MODEL 1
REMARK VINA RESULT:    -9.217      0.000      0.000
REMARK INTER + INTRA:         -12.651
REMARK INTER:                 -11.912
REMARK INTRA:                  -0.739
REMARK UNBOUND:                -0.739
REMARK  Name = 
REMARK  5 active torsions:
REMARK  status: ('A' for Active; 'I' for Inactive)
REMARK    1  A    between atoms: C_2  and  C_4
REMARK    2  A    between atoms: C_7  and  N_8
REMARK    3  A    between atoms: N_8  and  C_9
REMARK    4  A    between atoms: C_9  and  C_10
REMARK    5  A    between atoms: C_12  and  C_13
REMARK                            x       y       z     vdW  Elec       q    Type
REMARK                         _______ _______ _______ _____ _____    ______ ____
ROOT
ATOM      1  C   UNL     1      45.132   3.887  12.398  0.00  0.00    +0.000 A 
ATOM      2  C   UNL     1      45.247   5.261  12.170  0.00  0.00    +0.000 A 
ATOM      3  C   UNL     1      46.284   5.994  12.763  0.00  0.00    +0.000 A 
ATOM      4  C   UNL     1      47.162   5.283  13.591  0.00  0.00    +0.000 A 
ATOM      5  C   UNL     1      46.985   3.920  13.766  0.00  0.00    +0.000 A 
ATOM      6  N   UNL     1      45.996   3.208  13.188  0.00  0.00    +0.000 NA
ENDROOT
BRANCH   3   7
ATOM      7  C   UNL     1      46.446   7.447  12.543  0.00  0.00    +0.000 A 
ATOM      8  C   UNL     1      47.674   8.041  12.323  0.00  0.00    +0.000 A 
ATOM      9  C   UNL     1      47.666   9.400  12.122  0.00  0.00    +0.000 A 
ATOM     10  N   UNL     1      46.549  10.144  12.139  0.00  0.00    +0.000 NA
ATOM     11  C   UNL     1      45.411   9.495  12.388  0.00  0.00    +0.000 A 
ATOM     12  N   UNL     1      44.252  10.241  12.412  0.00  0.00    +0.000 N 
ATOM     13  N   UNL     1      45.306   8.176  12.572  0.00  0.00    +0.000 NA
ATOM     14  H   UNL     1      44.389  11.092  11.886  0.00  0.00    +0.000 HD
ATOM     15  H   UNL     1      43.465   9.661  12.161  0.00  0.00    +0.000 HD
ENDBRANCH   3   7
BRANCH   1  16
ATOM     16  C   UNL     1      43.967   3.127  11.790  0.00  0.00    +0.000 C 
BRANCH  16  17
ATOM     17  N   UNL     1      43.705   3.602  10.428  0.00  0.00    +0.000 N 
ATOM     18  H   UNL     1      43.426   4.581  10.443  0.00  0.00    +0.000 HD
BRANCH  17  22
ATOM     19  C   UNL     1      46.572   2.639   7.480  0.00  0.00    +0.000 A 
ATOM     20  C   UNL     1      46.182   3.966   7.656  0.00  0.00    +0.000 A 
ATOM     21  C   UNL     1      45.212   4.294   8.611  0.00  0.00    +0.000 A 
ATOM     22  C   UNL     1      44.587   3.310   9.387  0.00  0.00    +0.000 A 
ATOM     23  C   UNL     1      45.007   1.982   9.208  0.00  0.00    +0.000 A 
ATOM     24  C   UNL     1      45.972   1.642   8.252  0.00  0.00    +0.000 A 
BRANCH  19  26
ATOM     25  N   UNL     1      47.743   3.046   5.387  0.00  0.00    +0.000 N 
ATOM     26  C   UNL     1      47.616   2.257   6.497  0.00  0.00    +0.000 C 
ATOM     27  O   UNL     1      48.361   1.304   6.683  0.00  0.00    +0.000 OA
ATOM     28  H   UNL     1      48.527   2.842   4.781  0.00  0.00    +0.000 HD
ATOM     29  H   UNL     1      47.338   3.970   5.331  0.00  0.00    +0.000 HD
ENDBRANCH  19  26
ENDBRANCH  17  22
ENDBRANCH  16  17
ENDBRANCH   1  16
TORSDOF 5
ENDMDL
MODEL 2
REMARK VINA RESULT:    -8.918      2.210      3.924
REMARK INTER + INTRA:         -12.264
REMARK INTER:                 -11.815
REMARK INTRA:                  -0.449
REMARK UNBOUND:                -0.739
REMARK  Name = 
REMARK  5 active torsions:
REMARK  status: ('A' for Active; 'I' for Inactive)
REMARK    1  A    between atoms: C_2  and  C_4
REMARK    2  A    between atoms: C_7  and  N_8
REMARK    3  A    between atoms: N_8  and  C_9
REMARK    4  A    between atoms: C_9  and  C_10
REMARK    5  A    between atoms: C_12  and  C_13
REMARK                            x       y       z     vdW  Elec       q    Type
REMARK                         _______ _______ _______ _____ _____    ______ ____
ROOT
ATOM      1  C   UNL     1      45.262   5.224  12.187  0.00  0.00    +0.000 A 
ATOM      2  C   UNL     1      45.747   4.864  13.447  0.00  0.00    +0.000 A 
ATOM      3  C   UNL     1      46.920   5.444  13.948  0.00  0.00    +0.000 A 
ATOM      4  C   UNL     1      47.568   6.368  13.117  0.00  0.00    +0.000 A 
ATOM      5  C   UNL     1      47.023   6.676  11.881  0.00  0.00    +0.000 A 
ATOM      6  N   UNL     1      45.888   6.130  11.400  0.00  0.00    +0.000 NA
ENDROOT
BRANCH   3   7
ATOM      7  C   UNL     1      47.464   5.096  15.278  0.00  0.00    +0.000 A 
ATOM      8  C   UNL     1      48.480   5.810  15.883  0.00  0.00    +0.000 A 
ATOM      9  C   UNL     1      48.873   5.376  17.127  0.00  0.00    +0.000 A 
ATOM     10  N   UNL     1      48.329   4.317  17.746  0.00  0.00    +0.000 NA
ATOM     11  C   UNL     1      47.375   3.667  17.078  0.00  0.00    +0.000 A 
ATOM     12  N   UNL     1      46.804   2.575  17.696  0.00  0.00    +0.000 N 
ATOM     13  N   UNL     1      46.904   4.021  15.878  0.00  0.00    +0.000 NA
ATOM     14  H   UNL     1      46.935   2.647  18.695  0.00  0.00    +0.000 HD
ATOM     15  H   UNL     1      45.862   2.443  17.359  0.00  0.00    +0.000 HD
ENDBRANCH   3   7
BRANCH   1  16
ATOM     16  C   UNL     1      44.021   4.539  11.643  0.00  0.00    +0.000 C 
BRANCH  16  17
ATOM     17  N   UNL     1      43.929   4.730  10.193  0.00  0.00    +0.000 N 
ATOM     18  H   UNL     1      43.962   5.722   9.965  0.00  0.00    +0.000 HD
BRANCH  17  22
ATOM     19  C   UNL     1      46.398   2.299   7.778  0.00  0.00    +0.000 A 
ATOM     20  C   UNL     1      46.405   3.682   7.600  0.00  0.00    +0.000 A 
ATOM     21  C   UNL     1      45.570   4.495   8.375  0.00  0.00    +0.000 A 
ATOM     22  C   UNL     1      44.690   3.953   9.319  0.00  0.00    +0.000 A 
ATOM     23  C   UNL     1      44.711   2.560   9.497  0.00  0.00    +0.000 A 
ATOM     24  C   UNL     1      45.538   1.736   8.723  0.00  0.00    +0.000 A 
BRANCH  19  26
ATOM     25  N   UNL     1      48.352   1.991   6.362  0.00  0.00    +0.000 N 
ATOM     26  C   UNL     1      47.289   1.407   6.994  0.00  0.00    +0.000 C 
ATOM     27  O   UNL     1      47.110   0.198   6.944  0.00  0.00    +0.000 OA
ATOM     28  H   UNL     1      49.012   1.361   5.923  0.00  0.00    +0.000 HD
ATOM     29  H   UNL     1      48.677   2.919   6.593  0.00  0.00    +0.000 HD
ENDBRANCH  19  26
ENDBRANCH  17  22
ENDBRANCH  16  17
ENDBRANCH   1  16
TORSDOF 5
ENDMDL
MODEL 3
REMARK VINA RESULT:    -8.826      1.067      1.534
REMARK INTER + INTRA:         -12.145
REMARK INTER:                 -11.413
REMARK INTRA:                  -0.733
REMARK UNBOUND:                -0.739
REMARK  Name = 
REMARK  5 active torsions:
REMARK  status: ('A' for Active; 'I' for Inactive)
REMARK    1  A    between atoms: C_2  and  C_4
REMARK    2  A    between atoms: C_7  and  N_8
REMARK    3  A    between atoms: N_8  and  C_9
REMARK    4  A    between atoms: C_9  and  C_10
REMARK    5  A    between atoms: C_12  and  C_13
REMARK                            x       y       z     vdW  Elec       q    Type
REMARK                         _______ _______ _______ _____ _____    ______ ____
ROOT
ATOM      1  C   UNL     1      44.895   4.872  12.235  0.00  0.00    +0.000 A 
ATOM      2  C   UNL     1      45.523   6.079  11.918  0.00  0.00    +0.000 A 
ATOM      3  C   UNL     1      46.703   6.458  12.572  0.00  0.00    +0.000 A 
ATOM      4  C   UNL     1      47.189   5.580  13.550  0.00  0.00    +0.000 A 
ATOM      5  C   UNL     1      46.512   4.399  13.806  0.00  0.00    +0.000 A 
ATOM      6  N   UNL     1      45.382   4.024  13.171  0.00  0.00    +0.000 NA
ENDROOT
BRANCH   3   7
ATOM      7  C   UNL     1      47.403   7.723  12.262  0.00  0.00    +0.000 A 
ATOM      8  C   UNL     1      48.721   7.771  11.849  0.00  0.00    +0.000 A 
ATOM      9  C   UNL     1      49.231   9.019  11.585  0.00  0.00    +0.000 A 
ATOM     10  N   UNL     1      48.523  10.151  11.718  0.00  0.00    +0.000 NA
ATOM     11  C   UNL     1      47.269  10.017  12.150  0.00  0.00    +0.000 A 
ATOM     12  N   UNL     1      46.525  11.168  12.295  0.00  0.00    +0.000 N 
ATOM     13  N   UNL     1      46.669   8.851  12.410  0.00  0.00    +0.000 NA
ATOM     14  H   UNL     1      46.915  11.896  11.715  0.00  0.00    +0.000 HD
ATOM     15  H   UNL     1      45.543  10.959  12.181  0.00  0.00    +0.000 HD
ENDBRANCH   3   7
BRANCH   1  16
ATOM     16  C   UNL     1      43.587   4.512  11.554  0.00  0.00    +0.000 C 
BRANCH  16  17
ATOM     17  N   UNL     1      43.717   4.647  10.100  0.00  0.00    +0.000 N 
ATOM     18  H   UNL     1      43.716   5.630   9.835  0.00  0.00    +0.000 HD
BRANCH  17  22
ATOM     19  C   UNL     1      46.434   2.461   7.716  0.00  0.00    +0.000 A 
ATOM     20  C   UNL     1      45.599   1.786   8.606  0.00  0.00    +0.000 A 
ATOM     21  C   UNL     1      44.715   2.503   9.422  0.00  0.00    +0.000 A 
ATOM     22  C   UNL     1      44.662   3.902   9.394  0.00  0.00    +0.000 A 
ATOM     23  C   UNL     1      45.498   4.562   8.478  0.00  0.00    +0.000 A 
ATOM     24  C   UNL     1      46.391   3.856   7.662  0.00  0.00    +0.000 A 
BRANCH  19  26
ATOM     25  N   UNL     1      48.463   2.420   6.375  0.00  0.00    +0.000 N 
ATOM     26  C   UNL     1      47.365   1.735   6.817  0.00  0.00    +0.000 C 
ATOM     27  O   UNL     1      47.189   0.562   6.515  0.00  0.00    +0.000 OA
ATOM     28  H   UNL     1      49.146   1.884   5.855  0.00  0.00    +0.000 HD
ATOM     29  H   UNL     1      48.776   3.279   6.807  0.00  0.00    +0.000 HD
ENDBRANCH  19  26
ENDBRANCH  17  22
ENDBRANCH  16  17
ENDBRANCH   1  16
TORSDOF 5
ENDMDL
MODEL 4
REMARK VINA RESULT:    -8.491      1.987      2.376
REMARK INTER + INTRA:         -11.712
REMARK INTER:                 -10.945
REMARK INTRA:                  -0.767
REMARK UNBOUND:                -0.739
REMARK  Name = 
REMARK  5 active torsions:
REMARK  status: ('A' for Active; 'I' for Inactive)
REMARK    1  A    between atoms: C_2  and  C_4
REMARK    2  A    between atoms: C_7  and  N_8
REMARK    3  A    between atoms: N_8  and  C_9
REMARK    4  A    between atoms: C_9  and  C_10
REMARK    5  A    between atoms: C_12  and  C_13
REMARK                            x       y       z     vdW  Elec       q    Type
REMARK                         _______ _______ _______ _____ _____    ______ ____
ROOT
ATOM      1  C   UNL     1      45.075   4.910  12.060  0.00  0.00    +0.000 A 
ATOM      2  C   UNL     1      46.031   5.925  11.967  0.00  0.00    +0.000 A 
ATOM      3  C   UNL     1      47.165   5.909  12.790  0.00  0.00    +0.000 A 
ATOM      4  C   UNL     1      47.264   4.850  13.702  0.00  0.00    +0.000 A 
ATOM      5  C   UNL     1      46.277   3.879  13.733  0.00  0.00    +0.000 A 
ATOM      6  N   UNL     1      45.190   3.883  12.934  0.00  0.00    +0.000 NA
ENDROOT
BRANCH   3   7
ATOM      7  C   UNL     1      48.203   6.960  12.719  0.00  0.00    +0.000 A 
ATOM      8  C   UNL     1      48.158   7.998  11.808  0.00  0.00    +0.000 A 
ATOM      9  C   UNL     1      49.187   8.907  11.870  0.00  0.00    +0.000 A 
ATOM     10  N   UNL     1      50.200   8.818  12.745  0.00  0.00    +0.000 NA
ATOM     11  C   UNL     1      50.181   7.769  13.567  0.00  0.00    +0.000 A 
ATOM     12  N   UNL     1      51.214   7.659  14.473  0.00  0.00    +0.000 N 
ATOM     13  N   UNL     1      49.217   6.845  13.607  0.00  0.00    +0.000 NA
ATOM     14  H   UNL     1      51.630   8.567  14.622  0.00  0.00    +0.000 HD
ATOM     15  H   UNL     1      50.904   7.150  15.288  0.00  0.00    +0.000 HD
ENDBRANCH   3   7
BRANCH   1  16
ATOM     16  C   UNL     1      43.828   4.980  11.197  0.00  0.00    +0.000 C 
BRANCH  16  17
ATOM     17  N   UNL     1      43.660   3.733  10.445  0.00  0.00    +0.000 N 
ATOM     18  H   UNL     1      42.681   3.598  10.199  0.00  0.00    +0.000 HD
BRANCH  17  22
ATOM     19  C   UNL     1      46.488   2.673   7.493  0.00  0.00    +0.000 A 
ATOM     20  C   UNL     1      46.062   3.997   7.598  0.00  0.00    +0.000 A 
ATOM     21  C   UNL     1      45.104   4.354   8.554  0.00  0.00    +0.000 A 
ATOM     22  C   UNL     1      44.527   3.403   9.403  0.00  0.00    +0.000 A 
ATOM     23  C   UNL     1      44.982   2.078   9.295  0.00  0.00    +0.000 A 
ATOM     24  C   UNL     1      45.936   1.708   8.338  0.00  0.00    +0.000 A 
BRANCH  19  26
ATOM     25  N   UNL     1      47.558   2.944   5.326  0.00  0.00    +0.000 N 
ATOM     26  C   UNL     1      47.521   2.261   6.510  0.00  0.00    +0.000 C 
ATOM     27  O   UNL     1      48.333   1.379   6.757  0.00  0.00    +0.000 OA
ATOM     28  H   UNL     1      48.333   2.730   4.711  0.00  0.00    +0.000 HD
ATOM     29  H   UNL     1      47.093   3.831   5.197  0.00  0.00    +0.000 HD
ENDBRANCH  19  26
ENDBRANCH  17  22
ENDBRANCH  16  17
ENDBRANCH   1  16
TORSDOF 5
ENDMDL
MODEL 5
REMARK VINA RESULT:    -7.911      2.843      7.000
REMARK INTER + INTRA:         -10.962
REMARK INTER:                 -10.201
REMARK INTRA:                  -0.761
REMARK UNBOUND:                -0.739
REMARK  Name = 
REMARK  5 active torsions:
REMARK  status: ('A' for Active; 'I' for Inactive)
REMARK    1  A    between atoms: C_2  and  C_4
REMARK    2  A    between atoms: C_7  and  N_8
REMARK    3  A    between atoms: N_8  and  C_9
REMARK    4  A    between atoms: C_9  and  C_10
REMARK    5  A    between atoms: C_12  and  C_13
REMARK                            x       y       z     vdW  Elec       q    Type
REMARK                         _______ _______ _______ _____ _____    ______ ____
ROOT
ATOM      1  C   UNL     1      43.832   5.137  11.033  0.00  0.00    +0.000 A 
ATOM      2  C   UNL     1      44.637   4.686   9.983  0.00  0.00    +0.000 A 
ATOM      3  C   UNL     1      44.750   3.315   9.715  0.00  0.00    +0.000 A 
ATOM      4  C   UNL     1      44.039   2.449  10.556  0.00  0.00    +0.000 A 
ATOM      5  C   UNL     1      43.258   2.972  11.574  0.00  0.00    +0.000 A 
ATOM      6  N   UNL     1      43.136   4.292  11.829  0.00  0.00    +0.000 NA
ENDROOT
BRANCH   3   7
ATOM      7  C   UNL     1      45.586   2.796   8.611  0.00  0.00    +0.000 A 
ATOM      8  C   UNL     1      46.078   3.601   7.601  0.00  0.00    +0.000 A 
ATOM      9  C   UNL     1      46.852   2.980   6.650  0.00  0.00    +0.000 A 
ATOM     10  N   UNL     1      47.127   1.666   6.663  0.00  0.00    +0.000 NA
ATOM     11  C   UNL     1      46.587   0.959   7.656  0.00  0.00    +0.000 A 
ATOM     12  N   UNL     1      46.856  -0.393   7.687  0.00  0.00    +0.000 N 
ATOM     13  N   UNL     1      45.843   1.468   8.643  0.00  0.00    +0.000 NA
ATOM     14  H   UNL     1      47.704  -0.579   7.171  0.00  0.00    +0.000 HD
ATOM     15  H   UNL     1      46.806  -0.731   8.636  0.00  0.00    +0.000 HD
ENDBRANCH   3   7
BRANCH   1  16
ATOM     16  C   UNL     1      43.771   6.622  11.339  0.00  0.00    +0.000 C 
BRANCH  16  17
ATOM     17  N   UNL     1      44.404   6.900  12.632  0.00  0.00    +0.000 N 
ATOM     18  H   UNL     1      44.050   6.263  13.342  0.00  0.00    +0.000 HD
BRANCH  17  22
ATOM     19  C   UNL     1      48.574   7.564  12.630  0.00  0.00    +0.000 A 
ATOM     20  C   UNL     1      48.080   6.282  12.869  0.00  0.00    +0.000 A 
ATOM     21  C   UNL     1      46.698   6.056  12.901  0.00  0.00    +0.000 A 
ATOM     22  C   UNL     1      45.781   7.099  12.726  0.00  0.00    +0.000 A 
ATOM     23  C   UNL     1      46.299   8.379  12.469  0.00  0.00    +0.000 A 
ATOM     24  C   UNL     1      47.679   8.619  12.441  0.00  0.00    +0.000 A 
BRANCH  19  26
ATOM     25  N   UNL     1      50.692   7.420  11.441  0.00  0.00    +0.000 N 
ATOM     26  C   UNL     1      50.032   7.837  12.564  0.00  0.00    +0.000 C 
ATOM     27  O   UNL     1      50.616   8.445  13.450  0.00  0.00    +0.000 OA
ATOM     28  H   UNL     1      51.658   7.708  11.357  0.00  0.00    +0.000 HD
ATOM     29  H   UNL     1      50.207   7.162  10.593  0.00  0.00    +0.000 HD
ENDBRANCH  19  26
ENDBRANCH  17  22
ENDBRANCH  16  17
ENDBRANCH   1  16
TORSDOF 5
ENDMDL
MODEL 6
REMARK VINA RESULT:    -7.176      5.110      8.209
REMARK INTER + INTRA:         -10.012
REMARK INTER:                  -9.502
REMARK INTRA:                  -0.510
REMARK UNBOUND:                -0.739
REMARK  Name = 
REMARK  5 active torsions:
REMARK  status: ('A' for Active; 'I' for Inactive)
REMARK    1  A    between atoms: C_2  and  C_4
REMARK    2  A    between atoms: C_7  and  N_8
REMARK    3  A    between atoms: N_8  and  C_9
REMARK    4  A    between atoms: C_9  and  C_10
REMARK    5  A    between atoms: C_12  and  C_13
REMARK                            x       y       z     vdW  Elec       q    Type
REMARK                         _______ _______ _______ _____ _____    ______ ____
ROOT
ATOM      1  C   UNL     1      47.655   4.818  15.662  0.00  0.00    +0.000 A 
ATOM      2  C   UNL     1      46.572   4.387  14.892  0.00  0.00    +0.000 A 
ATOM      3  C   UNL     1      46.288   4.996  13.663  0.00  0.00    +0.000 A 
ATOM      4  C   UNL     1      47.125   6.050  13.275  0.00  0.00    +0.000 A 
ATOM      5  C   UNL     1      48.182   6.419  14.091  0.00  0.00    +0.000 A 
ATOM      6  N   UNL     1      48.468   5.828  15.270  0.00  0.00    +0.000 NA
ENDROOT
BRANCH   3   7
ATOM      7  C   UNL     1      45.155   4.565  12.815  0.00  0.00    +0.000 A 
ATOM      8  C   UNL     1      45.115   3.336  12.184  0.00  0.00    +0.000 A 
ATOM      9  C   UNL     1      43.991   3.070  11.440  0.00  0.00    +0.000 A 
ATOM     10  N   UNL     1      42.974   3.934  11.302  0.00  0.00    +0.000 NA
ATOM     11  C   UNL     1      43.107   5.109  11.919  0.00  0.00    +0.000 A 
ATOM     12  N   UNL     1      42.074   6.011  11.789  0.00  0.00    +0.000 N 
ATOM     13  N   UNL     1      44.145   5.456  12.686  0.00  0.00    +0.000 NA
ATOM     14  H   UNL     1      41.225   5.519  11.552  0.00  0.00    +0.000 HD
ATOM     15  H   UNL     1      42.049   6.622  12.593  0.00  0.00    +0.000 HD
ENDBRANCH   3   7
BRANCH   1  16
ATOM     16  C   UNL     1      47.908   4.181  17.016  0.00  0.00    +0.000 C 
BRANCH  16  17
ATOM     17  N   UNL     1      49.226   4.573  17.524  0.00  0.00    +0.000 N 
ATOM     18  H   UNL     1      49.132   5.052  18.417  0.00  0.00    +0.000 HD
BRANCH  17  22
ATOM     19  C   UNL     1      52.334   1.719  17.691  0.00  0.00    +0.000 A 
ATOM     20  C   UNL     1      52.600   3.048  18.019  0.00  0.00    +0.000 A 
ATOM     21  C   UNL     1      51.584   4.008  17.940  0.00  0.00    +0.000 A 
ATOM     22  C   UNL     1      50.295   3.677  17.505  0.00  0.00    +0.000 A 
ATOM     23  C   UNL     1      50.043   2.330  17.197  0.00  0.00    +0.000 A 
ATOM     24  C   UNL     1      51.053   1.362  17.266  0.00  0.00    +0.000 A 
BRANCH  19  26
ATOM     25  N   UNL     1      53.051  -0.473  18.467  0.00  0.00    +0.000 N 
ATOM     26  C   UNL     1      53.379   0.668  17.788  0.00  0.00    +0.000 C 
ATOM     27  O   UNL     1      54.472   0.792  17.251  0.00  0.00    +0.000 OA
ATOM     28  H   UNL     1      53.729  -1.224  18.432  0.00  0.00    +0.000 HD
ATOM     29  H   UNL     1      52.096  -0.717  18.686  0.00  0.00    +0.000 HD
ENDBRANCH  19  26
ENDBRANCH  17  22
ENDBRANCH  16  17
ENDBRANCH   1  16
TORSDOF 5
ENDMDL
MODEL 7
REMARK VINA RESULT:    -6.805      4.383      7.871
REMARK INTER + INTRA:          -9.533
REMARK INTER:                  -8.873
REMARK INTRA:                  -0.660
REMARK UNBOUND:                -0.739
REMARK  Name = 
REMARK  5 active torsions:
REMARK  status: ('A' for Active; 'I' for Inactive)
REMARK    1  A    between atoms: C_2  and  C_4
REMARK    2  A    between atoms: C_7  and  N_8
REMARK    3  A    between atoms: N_8  and  C_9
REMARK    4  A    between atoms: C_9  and  C_10
REMARK    5  A    between atoms: C_12  and  C_13
REMARK                            x       y       z     vdW  Elec       q    Type
REMARK                         _______ _______ _______ _____ _____    ______ ____
ROOT
ATOM      1  C   UNL     1      48.284   7.036  14.191  0.00  0.00    +0.000 A 
ATOM      2  C   UNL     1      47.122   6.328  13.871  0.00  0.00    +0.000 A 
ATOM      3  C   UNL     1      46.683   6.251  12.542  0.00  0.00    +0.000 A 
ATOM      4  C   UNL     1      47.450   6.928  11.586  0.00  0.00    +0.000 A 
ATOM      5  C   UNL     1      48.592   7.606  11.980  0.00  0.00    +0.000 A 
ATOM      6  N   UNL     1      49.026   7.673  13.256  0.00  0.00    +0.000 NA
ENDROOT
BRANCH   3   7
ATOM      7  C   UNL     1      45.463   5.506  12.160  0.00  0.00    +0.000 A 
ATOM      8  C   UNL     1      44.554   5.030  13.085  0.00  0.00    +0.000 A 
ATOM      9  C   UNL     1      43.462   4.367  12.580  0.00  0.00    +0.000 A 
ATOM     10  N   UNL     1      43.260   4.167  11.268  0.00  0.00    +0.000 NA
ATOM     11  C   UNL     1      44.201   4.634  10.447  0.00  0.00    +0.000 A 
ATOM     12  N   UNL     1      44.013   4.437   9.096  0.00  0.00    +0.000 N 
ATOM     13  N   UNL     1      45.286   5.311  10.833  0.00  0.00    +0.000 NA
ATOM     14  H   UNL     1      43.031   4.294   8.910  0.00  0.00    +0.000 HD
ATOM     15  H   UNL     1      44.485   5.162   8.574  0.00  0.00    +0.000 HD
ENDBRANCH   3   7
BRANCH   1  16
ATOM     16  C   UNL     1      48.707   7.154  15.644  0.00  0.00    +0.000 C 
BRANCH  16  17
ATOM     17  N   UNL     1      48.156   6.042  16.425  0.00  0.00    +0.000 N 
ATOM     18  H   UNL     1      47.302   5.696  15.992  0.00  0.00    +0.000 HD
BRANCH  17  22
ATOM     19  C   UNL     1      50.805   2.960  17.575  0.00  0.00    +0.000 A 
ATOM     20  C   UNL     1      49.474   2.656  17.290  0.00  0.00    +0.000 A 
ATOM     21  C   UNL     1      48.580   3.673  16.936  0.00  0.00    +0.000 A 
ATOM     22  C   UNL     1      48.979   5.014  16.886  0.00  0.00    +0.000 A 
ATOM     23  C   UNL     1      50.327   5.298  17.158  0.00  0.00    +0.000 A 
ATOM     24  C   UNL     1      51.229   4.289  17.520  0.00  0.00    +0.000 A 
BRANCH  19  26
ATOM     25  N   UNL     1      51.355   0.609  17.869  0.00  0.00    +0.000 N 
ATOM     26  C   UNL     1      51.787   1.905  17.928  0.00  0.00    +0.000 C 
ATOM     27  O   UNL     1      52.945   2.173  18.221  0.00  0.00    +0.000 OA
ATOM     28  H   UNL     1      52.061  -0.104  18.004  0.00  0.00    +0.000 HD
ATOM     29  H   UNL     1      50.510   0.342  17.385  0.00  0.00    +0.000 HD
ENDBRANCH  19  26
ENDBRANCH  17  22
ENDBRANCH  16  17
ENDBRANCH   1  16
TORSDOF 5
ENDMDL
MODEL 8
REMARK VINA RESULT:    -6.548      3.563      6.258
REMARK INTER + INTRA:          -9.201
REMARK INTER:                  -8.451
REMARK INTRA:                  -0.750
REMARK UNBOUND:                -0.739
REMARK  Name = 
REMARK  5 active torsions:
REMARK  status: ('A' for Active; 'I' for Inactive)
REMARK    1  A    between atoms: C_2  and  C_4
REMARK    2  A    between atoms: C_7  and  N_8
REMARK    3  A    between atoms: N_8  and  C_9
REMARK    4  A    between atoms: C_9  and  C_10
REMARK    5  A    between atoms: C_12  and  C_13
REMARK                            x       y       z     vdW  Elec       q    Type
REMARK                         _______ _______ _______ _____ _____    ______ ____
ROOT
ATOM      1  C   UNL     1      48.179   7.759  13.951  0.00  0.00    +0.000 A 
ATOM      2  C   UNL     1      48.211   6.512  14.583  0.00  0.00    +0.000 A 
ATOM      3  C   UNL     1      48.595   6.408  15.927  0.00  0.00    +0.000 A 
ATOM      4  C   UNL     1      48.953   7.599  16.572  0.00  0.00    +0.000 A 
ATOM      5  C   UNL     1      48.893   8.797  15.880  0.00  0.00    +0.000 A 
ATOM      6  N   UNL     1      48.513   8.905  14.590  0.00  0.00    +0.000 NA
ENDROOT
BRANCH   3   7
ATOM      7  C   UNL     1      48.636   5.110  16.634  0.00  0.00    +0.000 A 
ATOM      8  C   UNL     1      47.500   4.379  16.927  0.00  0.00    +0.000 A 
ATOM      9  C   UNL     1      47.696   3.184  17.577  0.00  0.00    +0.000 A 
ATOM     10  N   UNL     1      48.906   2.725  17.932  0.00  0.00    +0.000 NA
ATOM     11  C   UNL     1      49.945   3.508  17.638  0.00  0.00    +0.000 A 
ATOM     12  N   UNL     1      51.197   3.055  17.996  0.00  0.00    +0.000 N 
ATOM     13  N   UNL     1      49.866   4.672  16.988  0.00  0.00    +0.000 NA
ATOM     14  H   UNL     1      51.175   2.051  18.098  0.00  0.00    +0.000 HD
ATOM     15  H   UNL     1      51.893   3.445  17.377  0.00  0.00    +0.000 HD
ENDBRANCH   3   7
BRANCH   1  16
ATOM     16  C   UNL     1      47.816   7.838  12.480  0.00  0.00    +0.000 C 
BRANCH  16  17
ATOM     17  N   UNL     1      46.359   7.831  12.315  0.00  0.00    +0.000 N 
ATOM     18  H   UNL     1      46.057   8.664  11.814  0.00  0.00    +0.000 HD
BRANCH  17  22
ATOM     19  C   UNL     1      44.523   4.189  11.219  0.00  0.00    +0.000 A 
ATOM     20  C   UNL     1      45.223   4.925  10.263  0.00  0.00    +0.000 A 
ATOM     21  C   UNL     1      45.811   6.147  10.608  0.00  0.00    +0.000 A 
ATOM     22  C   UNL     1      45.692   6.679  11.897  0.00  0.00    +0.000 A 
ATOM     23  C   UNL     1      44.999   5.915  12.851  0.00  0.00    +0.000 A 
ATOM     24  C   UNL     1      44.401   4.694  12.515  0.00  0.00    +0.000 A 
BRANCH  19  26
ATOM     25  N   UNL     1      44.478   2.156   9.884  0.00  0.00    +0.000 N 
ATOM     26  C   UNL     1      43.909   2.877  10.897  0.00  0.00    +0.000 C 
ATOM     27  O   UNL     1      42.961   2.434  11.532  0.00  0.00    +0.000 OA
ATOM     28  H   UNL     1      44.122   1.219   9.747  0.00  0.00    +0.000 HD
ATOM     29  H   UNL     1      45.400   2.361   9.525  0.00  0.00    +0.000 HD
ENDBRANCH  19  26
ENDBRANCH  17  22
ENDBRANCH  16  17
ENDBRANCH   1  16
TORSDOF 5
ENDMDL
