MODEL 1
REMARK VINA RESULT:    -8.289      0.000      0.000
REMARK INTER + INTRA:         -11.678
REMARK INTER:                 -10.954
REMARK INTRA:                  -0.724
REMARK UNBOUND:                -0.724
REMARK  Name = 
REMARK  7 active torsions:
REMARK  status: ('A' for Active; 'I' for Inactive)
REMARK    1  A    between atoms: C_1  and  C_2
REMARK    2  A    between atoms: C_2  and  C_3
REMARK    3  A    between atoms: C_7  and  C_8
REMARK    4  A    between atoms: C_8  and  C_9
REMARK    5  A    between atoms: C_9  and  N_10
REMARK    6  A    between atoms: C_14  and  C_15
REMARK    7  A    between atoms: C_23  and  O_24
REMARK                            x       y       z     vdW  Elec       q    Type
REMARK                         _______ _______ _______ _____ _____    ______ ____
ROOT
ATOM      1  C   UNL     1      44.945   4.361   9.529  0.00  0.00    +0.000 A 
ATOM      2  C   UNL     1      43.790   3.969  10.221  0.00  0.00    +0.000 A 
ATOM      3  C   UNL     1      43.379   4.642  11.377  0.00  0.00    +0.000 A 
ATOM      4  C   UNL     1      44.120   5.715  11.876  0.00  0.00    +0.000 A 
ATOM      5  C   UNL     1      45.272   6.145  11.211  0.00  0.00    +0.000 A 
ATOM      6  C   UNL     1      45.640   5.473  10.030  0.00  0.00    +0.000 A 
ENDROOT
BRANCH   1   8
ATOM      7  C   UNL     1      44.286   3.304   7.386  0.00  0.00    +0.000 C 
ATOM      8  C   UNL     1      45.490   3.546   8.332  0.00  0.00    +0.000 C 
ATOM      9  C   UNL     1      46.612   4.336   7.610  0.00  0.00    +0.000 C 
ATOM     10  C   UNL     1      47.265   3.561   6.463  0.00  0.00    +0.000 C 
ATOM     11  C   UNL     1      47.789   2.198   6.905  0.00  0.00    +0.000 C 
ATOM     12  C   UNL     1      46.717   1.377   7.609  0.00  0.00    +0.000 C 
ATOM     13  C   UNL     1      46.077   2.160   8.750  0.00  0.00    +0.000 C 
BRANCH  11  14
ATOM     14  O   UNL     1      48.267   1.479   5.773  0.00  0.00    +0.000 OA
ATOM     15  H   UNL     1      48.499   2.125   5.083  0.00  0.00    +0.000 HD
ENDBRANCH  11  14
ENDBRANCH   1   8
BRANCH   5  16
ATOM     16  C   UNL     1      46.120   7.267  11.793  0.00  0.00    +0.000 C 
BRANCH  16  17
ATOM     17  C   UNL     1      47.609   6.908  11.926  0.00  0.00    +0.000 C 
BRANCH  17  18
ATOM     18  N   UNL     1      48.212   7.330  13.194  0.00  0.00    +0.000 N 
ATOM     19  C   UNL     1      48.019   6.342  14.193  0.00  0.00    +0.000 A 
ATOM     20  C   UNL     1      48.513   6.542  15.489  0.00  0.00    +0.000 A 
ATOM     21  N   UNL     1      48.382   5.647  16.507  0.00  0.00    +0.000 NA
ATOM     22  C   UNL     1      47.728   4.502  16.168  0.00  0.00    +0.000 A 
ATOM     23  C   UNL     1      47.240   4.278  14.895  0.00  0.00    +0.000 A 
ATOM     24  N   UNL     1      47.378   5.186  13.895  0.00  0.00    +0.000 NA
ATOM     25  H   UNL     1      47.818   8.208  13.526  0.00  0.00    +0.000 HD
BRANCH  22  26
ATOM     26  C   UNL     1      47.537   3.458  17.212  0.00  0.00    +0.000 C 
ATOM     27  N   UNL     1      48.645   3.139  17.947  0.00  0.00    +0.000 N 
ATOM     28  O   UNL     1      46.459   2.915  17.405  0.00  0.00    +0.000 OA
ATOM     29  H   UNL     1      49.535   3.587  17.755  0.00  0.00    +0.000 HD
ATOM     30  H   UNL     1      48.576   2.422  18.655  0.00  0.00    +0.000 HD
ENDBRANCH  22  26
ENDBRANCH  17  18
ENDBRANCH  16  17
ENDBRANCH   5  16
TORSDOF 6
ENDMDL
MODEL 2
REMARK VINA RESULT:    -7.855      2.700      3.914
REMARK INTER + INTRA:         -11.105
REMARK INTER:                  -9.935
REMARK INTRA:                  -1.170
REMARK UNBOUND:                -0.724
REMARK  Name = 
REMARK  7 active torsions:
REMARK  status: ('A' for Active; 'I' for Inactive)
REMARK    1  A    between atoms: C_1  and  C_2
REMARK    2  A    between atoms: C_2  and  C_3
REMARK    3  A    between atoms: C_7  and  C_8
REMARK    4  A    between atoms: C_8  and  C_9
REMARK    5  A    between atoms: C_9  and  N_10
REMARK    6  A    between atoms: C_14  and  C_15
REMARK    7  A    between atoms: C_23  and  O_24
REMARK                            x       y       z     vdW  Elec       q    Type
REMARK                         _______ _______ _______ _____ _____    ______ ____
ROOT
ATOM      1  C   UNL     1      45.472   7.139  11.600  0.00  0.00    +0.000 A 
ATOM      2  C   UNL     1      44.597   8.209  11.363  0.00  0.00    +0.000 A 
ATOM      3  C   UNL     1      44.958   9.521  11.687  0.00  0.00    +0.000 A 
ATOM      4  C   UNL     1      46.197   9.793  12.270  0.00  0.00    +0.000 A 
ATOM      5  C   UNL     1      47.102   8.758  12.515  0.00  0.00    +0.000 A 
ATOM      6  C   UNL     1      46.727   7.453  12.142  0.00  0.00    +0.000 A 
ENDROOT
BRANCH   1   8
ATOM      7  C   UNL     1      45.495   5.295   9.944  0.00  0.00    +0.000 C 
ATOM      8  C   UNL     1      45.038   5.670  11.376  0.00  0.00    +0.000 C 
ATOM      9  C   UNL     1      45.702   4.747  12.430  0.00  0.00    +0.000 C 
ATOM     10  C   UNL     1      45.255   3.286  12.331  0.00  0.00    +0.000 C 
ATOM     11  C   UNL     1      43.738   3.135  12.388  0.00  0.00    +0.000 C 
ATOM     12  C   UNL     1      43.040   4.015  11.359  0.00  0.00    +0.000 C 
ATOM     13  C   UNL     1      43.491   5.466  11.471  0.00  0.00    +0.000 C 
BRANCH  11  14
ATOM     14  O   UNL     1      43.385   1.775  12.164  0.00  0.00    +0.000 OA
ATOM     15  H   UNL     1      43.875   1.461  11.385  0.00  0.00    +0.000 HD
ENDBRANCH  11  14
ENDBRANCH   1   8
BRANCH   5  16
ATOM     16  C   UNL     1      48.424   9.042  13.215  0.00  0.00    +0.000 C 
BRANCH  16  17
ATOM     17  C   UNL     1      49.266   7.784  13.476  0.00  0.00    +0.000 C 
BRANCH  17  18
ATOM     18  N   UNL     1      49.828   7.713  14.829  0.00  0.00    +0.000 N 
ATOM     19  C   UNL     1      49.237   6.652  15.562  0.00  0.00    +0.000 A 
ATOM     20  C   UNL     1      49.626   6.406  16.885  0.00  0.00    +0.000 A 
ATOM     21  N   UNL     1      49.119   5.407  17.661  0.00  0.00    +0.000 NA
ATOM     22  C   UNL     1      48.189   4.630  17.040  0.00  0.00    +0.000 A 
ATOM     23  C   UNL     1      47.797   4.848  15.733  0.00  0.00    +0.000 A 
ATOM     24  N   UNL     1      48.312   5.853  14.979  0.00  0.00    +0.000 NA
ATOM     25  H   UNL     1      49.686   8.580  15.343  0.00  0.00    +0.000 HD
BRANCH  22  26
ATOM     26  C   UNL     1      47.578   3.508  17.803  0.00  0.00    +0.000 C 
ATOM     27  N   UNL     1      48.227   3.143  18.950  0.00  0.00    +0.000 N 
ATOM     28  O   UNL     1      46.560   2.941  17.432  0.00  0.00    +0.000 OA
ATOM     29  H   UNL     1      49.082   3.613  19.228  0.00  0.00    +0.000 HD
ATOM     30  H   UNL     1      47.867   2.373  19.496  0.00  0.00    +0.000 HD
ENDBRANCH  22  26
ENDBRANCH  17  18
ENDBRANCH  16  17
ENDBRANCH   5  16
TORSDOF 6
ENDMDL
MODEL 3
REMARK VINA RESULT:    -7.388      3.452      8.093
REMARK INTER + INTRA:         -10.487
REMARK INTER:                  -9.574
REMARK INTRA:                  -0.913
REMARK UNBOUND:                -0.724
REMARK  Name = 
REMARK  7 active torsions:
REMARK  status: ('A' for Active; 'I' for Inactive)
REMARK    1  A    between atoms: C_1  and  C_2
REMARK    2  A    between atoms: C_2  and  C_3
REMARK    3  A    between atoms: C_7  and  C_8
REMARK    4  A    between atoms: C_8  and  C_9
REMARK    5  A    between atoms: C_9  and  N_10
REMARK    6  A    between atoms: C_14  and  C_15
REMARK    7  A    between atoms: C_23  and  O_24
REMARK                            x       y       z     vdW  Elec       q    Type
REMARK                         _______ _______ _______ _____ _____    ______ ____
ROOT
ATOM      1  C   UNL     1      46.452   7.027  13.017  0.00  0.00    +0.000 A 
ATOM      2  C   UNL     1      45.934   7.999  12.149  0.00  0.00    +0.000 A 
ATOM      3  C   UNL     1      44.781   7.752  11.395  0.00  0.00    +0.000 A 
ATOM      4  C   UNL     1      44.127   6.522  11.481  0.00  0.00    +0.000 A 
ATOM      5  C   UNL     1      44.604   5.529  12.341  0.00  0.00    +0.000 A 
ATOM      6  C   UNL     1      45.743   5.820  13.115  0.00  0.00    +0.000 A 
ENDROOT
BRANCH   1   8
ATOM      7  C   UNL     1      48.910   7.005  12.697  0.00  0.00    +0.000 C 
ATOM      8  C   UNL     1      47.798   7.231  13.753  0.00  0.00    +0.000 C 
ATOM      9  C   UNL     1      47.876   8.663  14.342  0.00  0.00    +0.000 C 
ATOM     10  C   UNL     1      49.144   8.919  15.162  0.00  0.00    +0.000 C 
ATOM     11  C   UNL     1      49.339   7.888  16.270  0.00  0.00    +0.000 C 
ATOM     12  C   UNL     1      49.284   6.463  15.736  0.00  0.00    +0.000 C 
ATOM     13  C   UNL     1      48.016   6.221  14.925  0.00  0.00    +0.000 C 
BRANCH  11  14
ATOM     14  O   UNL     1      50.593   8.106  16.908  0.00  0.00    +0.000 OA
ATOM     15  H   UNL     1      51.081   8.771  16.393  0.00  0.00    +0.000 HD
ENDBRANCH  11  14
ENDBRANCH   1   8
BRANCH   5  16
ATOM     16  C   UNL     1      43.934   4.162  12.382  0.00  0.00    +0.000 C 
BRANCH  16  17
ATOM     17  C   UNL     1      43.445   3.675  11.009  0.00  0.00    +0.000 C 
BRANCH  17  18
ATOM     18  N   UNL     1      43.995   2.376  10.608  0.00  0.00    +0.000 N 
ATOM     19  C   UNL     1      44.830   2.517   9.470  0.00  0.00    +0.000 A 
ATOM     20  C   UNL     1      45.460   1.396   8.913  0.00  0.00    +0.000 A 
ATOM     21  N   UNL     1      46.284   1.438   7.829  0.00  0.00    +0.000 NA
ATOM     22  C   UNL     1      46.472   2.684   7.314  0.00  0.00    +0.000 A 
ATOM     23  C   UNL     1      45.870   3.805   7.852  0.00  0.00    +0.000 A 
ATOM     24  N   UNL     1      45.048   3.740   8.931  0.00  0.00    +0.000 NA
ATOM     25  H   UNL     1      43.260   1.706  10.389  0.00  0.00    +0.000 HD
BRANCH  22  26
ATOM     26  C   UNL     1      47.360   2.835   6.129  0.00  0.00    +0.000 C 
ATOM     27  N   UNL     1      48.674   2.510   6.323  0.00  0.00    +0.000 N 
ATOM     28  O   UNL     1      46.947   3.227   5.047  0.00  0.00    +0.000 OA
ATOM     29  H   UNL     1      48.999   2.208   7.235  0.00  0.00    +0.000 HD
ATOM     30  H   UNL     1      49.325   2.614   5.557  0.00  0.00    +0.000 HD
ENDBRANCH  22  26
ENDBRANCH  17  18
ENDBRANCH  16  17
ENDBRANCH   5  16
TORSDOF 6
ENDMDL
MODEL 4
REMARK VINA RESULT:    -7.355      3.787      7.729
REMARK INTER + INTRA:         -10.444
REMARK INTER:                  -9.591
REMARK INTRA:                  -0.853
REMARK UNBOUND:                -0.724
REMARK  Name = 
REMARK  7 active torsions:
REMARK  status: ('A' for Active; 'I' for Inactive)
REMARK    1  A    between atoms: C_1  and  C_2
REMARK    2  A    between atoms: C_2  and  C_3
REMARK    3  A    between atoms: C_7  and  C_8
REMARK    4  A    between atoms: C_8  and  C_9
REMARK    5  A    between atoms: C_9  and  N_10
REMARK    6  A    between atoms: C_14  and  C_15
REMARK    7  A    between atoms: C_23  and  O_24
REMARK                            x       y       z     vdW  Elec       q    Type
REMARK                         _______ _______ _______ _____ _____    ______ ____
ROOT
ATOM      1  C   UNL     1      46.738   7.917  12.365  0.00  0.00    +0.000 A 
ATOM      2  C   UNL     1      46.122   9.077  11.872  0.00  0.00    +0.000 A 
ATOM      3  C   UNL     1      44.786   9.063  11.457  0.00  0.00    +0.000 A 
ATOM      4  C   UNL     1      44.037   7.886  11.513  0.00  0.00    +0.000 A 
ATOM      5  C   UNL     1      44.609   6.711  12.006  0.00  0.00    +0.000 A 
ATOM      6  C   UNL     1      45.943   6.764  12.451  0.00  0.00    +0.000 A 
ENDROOT
BRANCH   1   8
ATOM      7  C   UNL     1      48.481   6.588  13.522  0.00  0.00    +0.000 C 
ATOM      8  C   UNL     1      48.249   7.879  12.698  0.00  0.00    +0.000 C 
ATOM      9  C   UNL     1      49.086   7.861  11.393  0.00  0.00    +0.000 C 
ATOM     10  C   UNL     1      50.596   7.911  11.634  0.00  0.00    +0.000 C 
ATOM     11  C   UNL     1      51.009   9.096  12.502  0.00  0.00    +0.000 C 
ATOM     12  C   UNL     1      50.222   9.149  13.805  0.00  0.00    +0.000 C 
ATOM     13  C   UNL     1      48.720   9.102  13.549  0.00  0.00    +0.000 C 
BRANCH  11  14
ATOM     14  O   UNL     1      52.400   9.013  12.793  0.00  0.00    +0.000 OA
ATOM     15  H   UNL     1      52.671   8.083  12.705  0.00  0.00    +0.000 HD
ENDBRANCH  11  14
ENDBRANCH   1   8
BRANCH   5  16
ATOM     16  C   UNL     1      43.817   5.410  12.000  0.00  0.00    +0.000 C 
BRANCH  16  17
ATOM     17  C   UNL     1      43.568   4.848  10.591  0.00  0.00    +0.000 C 
BRANCH  17  18
ATOM     18  N   UNL     1      43.847   3.413  10.465  0.00  0.00    +0.000 N 
ATOM     19  C   UNL     1      44.768   3.175   9.412  0.00  0.00    +0.000 A 
ATOM     20  C   UNL     1      45.174   1.868   9.112  0.00  0.00    +0.000 A 
ATOM     21  N   UNL     1      46.058   1.545   8.127  0.00  0.00    +0.000 NA
ATOM     22  C   UNL     1      46.547   2.614   7.439  0.00  0.00    +0.000 A 
ATOM     23  C   UNL     1      46.168   3.912   7.723  0.00  0.00    +0.000 A 
ATOM     24  N   UNL     1      45.282   4.211   8.707  0.00  0.00    +0.000 NA
ATOM     25  H   UNL     1      43.001   2.878  10.283  0.00  0.00    +0.000 HD
BRANCH  22  26
ATOM     26  C   UNL     1      47.523   2.366   6.343  0.00  0.00    +0.000 C 
ATOM     27  N   UNL     1      47.496   3.258   5.307  0.00  0.00    +0.000 N 
ATOM     28  O   UNL     1      48.304   1.425   6.362  0.00  0.00    +0.000 OA
ATOM     29  H   UNL     1      46.825   4.019   5.302  0.00  0.00    +0.000 HD
ATOM     30  H   UNL     1      48.123   3.125   4.526  0.00  0.00    +0.000 HD
ENDBRANCH  22  26
ENDBRANCH  17  18
ENDBRANCH  16  17
ENDBRANCH   5  16
TORSDOF 6
ENDMDL
MODEL 5
REMARK VINA RESULT:    -7.096      3.349      4.255
REMARK INTER + INTRA:         -10.102
REMARK INTER:                  -9.296
REMARK INTRA:                  -0.806
REMARK UNBOUND:                -0.724
REMARK  Name = 
REMARK  7 active torsions:
REMARK  status: ('A' for Active; 'I' for Inactive)
REMARK    1  A    between atoms: C_1  and  C_2
REMARK    2  A    between atoms: C_2  and  C_3
REMARK    3  A    between atoms: C_7  and  C_8
REMARK    4  A    between atoms: C_8  and  C_9
REMARK    5  A    between atoms: C_9  and  N_10
REMARK    6  A    between atoms: C_14  and  C_15
REMARK    7  A    between atoms: C_23  and  O_24
REMARK                            x       y       z     vdW  Elec       q    Type
REMARK                         _______ _______ _______ _____ _____    ______ ____
ROOT
ATOM      1  C   UNL     1      44.683   3.479   9.649  0.00  0.00    +0.000 A 
ATOM      2  C   UNL     1      44.017   2.570  10.484  0.00  0.00    +0.000 A 
ATOM      3  C   UNL     1      43.487   2.976  11.714  0.00  0.00    +0.000 A 
ATOM      4  C   UNL     1      43.623   4.298  12.144  0.00  0.00    +0.000 A 
ATOM      5  C   UNL     1      44.271   5.237  11.338  0.00  0.00    +0.000 A 
ATOM      6  C   UNL     1      44.760   4.808  10.090  0.00  0.00    +0.000 A 
ENDROOT
BRANCH   1   8
ATOM      7  C   UNL     1      44.298   2.946   7.259  0.00  0.00    +0.000 C 
ATOM      8  C   UNL     1      45.393   3.018   8.353  0.00  0.00    +0.000 C 
ATOM      9  C   UNL     1      46.502   4.029   7.961  0.00  0.00    +0.000 C 
ATOM     10  C   UNL     1      47.313   3.602   6.734  0.00  0.00    +0.000 C 
ATOM     11  C   UNL     1      47.910   2.206   6.887  0.00  0.00    +0.000 C 
ATOM     12  C   UNL     1      46.854   1.173   7.259  0.00  0.00    +0.000 C 
ATOM     13  C   UNL     1      46.057   1.610   8.484  0.00  0.00    +0.000 C 
BRANCH  11  14
ATOM     14  O   UNL     1      48.539   1.820   5.670  0.00  0.00    +0.000 OA
ATOM     15  H   UNL     1      47.843   1.600   5.028  0.00  0.00    +0.000 HD
ENDBRANCH  11  14
ENDBRANCH   1   8
BRANCH   5  16
ATOM     16  C   UNL     1      44.484   6.660  11.836  0.00  0.00    +0.000 C 
BRANCH  16  17
ATOM     17  C   UNL     1      45.566   6.778  12.920  0.00  0.00    +0.000 C 
BRANCH  17  18
ATOM     18  N   UNL     1      45.952   8.159  13.230  0.00  0.00    +0.000 N 
ATOM     19  C   UNL     1      47.238   8.448  12.706  0.00  0.00    +0.000 A 
ATOM     20  C   UNL     1      47.807   9.715  12.890  0.00  0.00    +0.000 A 
ATOM     21  N   UNL     1      49.030  10.084  12.417  0.00  0.00    +0.000 NA
ATOM     22  C   UNL     1      49.679   9.112  11.719  0.00  0.00    +0.000 A 
ATOM     23  C   UNL     1      49.134   7.858  11.517  0.00  0.00    +0.000 A 
ATOM     24  N   UNL     1      47.915   7.510  12.001  0.00  0.00    +0.000 NA
ATOM     25  H   UNL     1      45.964   8.332  14.233  0.00  0.00    +0.000 HD
BRANCH  22  26
ATOM     26  C   UNL     1      51.023   9.418  11.157  0.00  0.00    +0.000 C 
ATOM     27  N   UNL     1      51.356  10.744  11.097  0.00  0.00    +0.000 N 
ATOM     28  O   UNL     1      51.786   8.545  10.771  0.00  0.00    +0.000 OA
ATOM     29  H   UNL     1      50.698  11.453  11.403  0.00  0.00    +0.000 HD
ATOM     30  H   UNL     1      52.248  11.009  10.704  0.00  0.00    +0.000 HD
ENDBRANCH  22  26
ENDBRANCH  17  18
ENDBRANCH  16  17
ENDBRANCH   5  16
TORSDOF 6
ENDMDL
MODEL 6
REMARK VINA RESULT:    -6.846      3.875      7.900
REMARK INTER + INTRA:          -9.772
REMARK INTER:                  -8.820
REMARK INTRA:                  -0.952
REMARK UNBOUND:                -0.724
REMARK  Name = 
REMARK  7 active torsions:
REMARK  status: ('A' for Active; 'I' for Inactive)
REMARK    1  A    between atoms: C_1  and  C_2
REMARK    2  A    between atoms: C_2  and  C_3
REMARK    3  A    between atoms: C_7  and  C_8
REMARK    4  A    between atoms: C_8  and  C_9
REMARK    5  A    between atoms: C_9  and  N_10
REMARK    6  A    between atoms: C_14  and  C_15
REMARK    7  A    between atoms: C_23  and  O_24
REMARK                            x       y       z     vdW  Elec       q    Type
REMARK                         _______ _______ _______ _____ _____    ______ ____
ROOT
ATOM      1  C   UNL     1      49.002   6.455  17.252  0.00  0.00    +0.000 A 
ATOM      2  C   UNL     1      48.606   7.461  18.146  0.00  0.00    +0.000 A 
ATOM      3  C   UNL     1      48.294   8.747  17.692  0.00  0.00    +0.000 A 
ATOM      4  C   UNL     1      48.384   9.063  16.334  0.00  0.00    +0.000 A 
ATOM      5  C   UNL     1      48.766   8.087  15.410  0.00  0.00    +0.000 A 
ATOM      6  C   UNL     1      49.036   6.793  15.891  0.00  0.00    +0.000 A 
ENDROOT
BRANCH   1   8
ATOM      7  C   UNL     1      49.262   5.059  19.284  0.00  0.00    +0.000 C 
ATOM      8  C   UNL     1      49.482   5.071  17.750  0.00  0.00    +0.000 C 
ATOM      9  C   UNL     1      48.669   3.942  17.065  0.00  0.00    +0.000 C 
ATOM     10  C   UNL     1      49.140   2.535  17.439  0.00  0.00    +0.000 C 
ATOM     11  C   UNL     1      50.631   2.332  17.183  0.00  0.00    +0.000 C 
ATOM     12  C   UNL     1      51.474   3.411  17.849  0.00  0.00    +0.000 C 
ATOM     13  C   UNL     1      50.996   4.807  17.466  0.00  0.00    +0.000 C 
BRANCH  11  14
ATOM     14  O   UNL     1      51.029   1.055  17.667  0.00  0.00    +0.000 OA
ATOM     15  H   UNL     1      52.000   1.011  17.638  0.00  0.00    +0.000 HD
ENDBRANCH  11  14
ENDBRANCH   1   8
BRANCH   5  16
ATOM     16  C   UNL     1      48.934   8.447  13.939  0.00  0.00    +0.000 C 
BRANCH  16  17
ATOM     17  C   UNL     1      49.084   7.225  13.020  0.00  0.00    +0.000 C 
BRANCH  17  18
ATOM     18  N   UNL     1      48.164   7.223  11.877  0.00  0.00    +0.000 N 
ATOM     19  C   UNL     1      47.040   6.400  12.143  0.00  0.00    +0.000 A 
ATOM     20  C   UNL     1      46.032   6.250  11.181  0.00  0.00    +0.000 A 
ATOM     21  N   UNL     1      44.915   5.489  11.351  0.00  0.00    +0.000 NA
ATOM     22  C   UNL     1      44.834   4.874  12.563  0.00  0.00    +0.000 A 
ATOM     23  C   UNL     1      45.811   5.015  13.531  0.00  0.00    +0.000 A 
ATOM     24  N   UNL     1      46.918   5.775  13.338  0.00  0.00    +0.000 NA
ATOM     25  H   UNL     1      48.617   6.890  11.029  0.00  0.00    +0.000 HD
BRANCH  22  26
ATOM     26  C   UNL     1      43.648   4.021  12.849  0.00  0.00    +0.000 C 
ATOM     27  N   UNL     1      43.789   2.690  12.570  0.00  0.00    +0.000 N 
ATOM     28  O   UNL     1      42.608   4.476  13.303  0.00  0.00    +0.000 OA
ATOM     29  H   UNL     1      44.654   2.337  12.173  0.00  0.00    +0.000 HD
ATOM     30  H   UNL     1      43.008   2.069  12.725  0.00  0.00    +0.000 HD
ENDBRANCH  22  26
ENDBRANCH  17  18
ENDBRANCH  16  17
ENDBRANCH   5  16
TORSDOF 6
ENDMDL
MODEL 7
REMARK VINA RESULT:    -6.761      3.427      4.712
REMARK INTER + INTRA:          -9.659
REMARK INTER:                  -8.585
REMARK INTRA:                  -1.074
REMARK UNBOUND:                -0.724
REMARK  Name = 
REMARK  7 active torsions:
REMARK  status: ('A' for Active; 'I' for Inactive)
REMARK    1  A    between atoms: C_1  and  C_2
REMARK    2  A    between atoms: C_2  and  C_3
REMARK    3  A    between atoms: C_7  and  C_8
REMARK    4  A    between atoms: C_8  and  C_9
REMARK    5  A    between atoms: C_9  and  N_10
REMARK    6  A    between atoms: C_14  and  C_15
REMARK    7  A    between atoms: C_23  and  O_24
REMARK                            x       y       z     vdW  Elec       q    Type
REMARK                         _______ _______ _______ _____ _____    ______ ____
ROOT
ATOM      1  C   UNL     1      46.093   6.800  12.211  0.00  0.00    +0.000 A 
ATOM      2  C   UNL     1      45.322   7.923  12.546  0.00  0.00    +0.000 A 
ATOM      3  C   UNL     1      45.889   9.202  12.584  0.00  0.00    +0.000 A 
ATOM      4  C   UNL     1      47.243   9.387  12.300  0.00  0.00    +0.000 A 
ATOM      5  C   UNL     1      48.045   8.297  11.953  0.00  0.00    +0.000 A 
ATOM      6  C   UNL     1      47.439   7.028  11.886  0.00  0.00    +0.000 A 
ENDROOT
BRANCH   1   8
ATOM      7  C   UNL     1      46.496   4.558  13.187  0.00  0.00    +0.000 C 
ATOM      8  C   UNL     1      45.518   5.366  12.298  0.00  0.00    +0.000 C 
ATOM      9  C   UNL     1      44.098   5.394  12.920  0.00  0.00    +0.000 C 
ATOM     10  C   UNL     1      43.422   4.022  12.963  0.00  0.00    +0.000 C 
ATOM     11  C   UNL     1      43.377   3.351  11.593  0.00  0.00    +0.000 C 
ATOM     12  C   UNL     1      44.755   3.287  10.946  0.00  0.00    +0.000 C 
ATOM     13  C   UNL     1      45.414   4.661  10.908  0.00  0.00    +0.000 C 
BRANCH  11  14
ATOM     14  O   UNL     1      42.855   2.033  11.724  0.00  0.00    +0.000 OA
ATOM     15  H   UNL     1      43.508   1.414  11.355  0.00  0.00    +0.000 HD
ENDBRANCH  11  14
ENDBRANCH   1   8
BRANCH   5  16
ATOM     16  C   UNL     1      49.537   8.486  11.714  0.00  0.00    +0.000 C 
BRANCH  16  17
ATOM     17  C   UNL     1      50.319   8.870  12.979  0.00  0.00    +0.000 C 
BRANCH  17  18
ATOM     18  N   UNL     1      50.807   7.721  13.749  0.00  0.00    +0.000 N 
ATOM     19  C   UNL     1      50.200   7.683  15.030  0.00  0.00    +0.000 A 
ATOM     20  C   UNL     1      50.526   6.666  15.937  0.00  0.00    +0.000 A 
ATOM     21  N   UNL     1      49.988   6.546  17.182  0.00  0.00    +0.000 NA
ATOM     22  C   UNL     1      49.071   7.504  17.494  0.00  0.00    +0.000 A 
ATOM     23  C   UNL     1      48.727   8.511  16.613  0.00  0.00    +0.000 A 
ATOM     24  N   UNL     1      49.279   8.614  15.377  0.00  0.00    +0.000 NA
ATOM     25  H   UNL     1      51.817   7.750  13.871  0.00  0.00    +0.000 HD
BRANCH  22  26
ATOM     26  C   UNL     1      48.423   7.457  18.832  0.00  0.00    +0.000 C 
ATOM     27  N   UNL     1      47.056   7.391  18.831  0.00  0.00    +0.000 N 
ATOM     28  O   UNL     1      49.064   7.477  19.873  0.00  0.00    +0.000 OA
ATOM     29  H   UNL     1      46.543   7.397  17.957  0.00  0.00    +0.000 HD
ATOM     30  H   UNL     1      46.564   7.378  19.713  0.00  0.00    +0.000 HD
ENDBRANCH  22  26
ENDBRANCH  17  18
ENDBRANCH  16  17
ENDBRANCH   5  16
TORSDOF 6
ENDMDL
MODEL 8
REMARK VINA RESULT:    -6.534      2.901      4.596
REMARK INTER + INTRA:          -9.359
REMARK INTER:                  -8.330
REMARK INTRA:                  -1.029
REMARK UNBOUND:                -0.724
REMARK  Name = 
REMARK  7 active torsions:
REMARK  status: ('A' for Active; 'I' for Inactive)
REMARK    1  A    between atoms: C_1  and  C_2
REMARK    2  A    between atoms: C_2  and  C_3
REMARK    3  A    between atoms: C_7  and  C_8
REMARK    4  A    between atoms: C_8  and  C_9
REMARK    5  A    between atoms: C_9  and  N_10
REMARK    6  A    between atoms: C_14  and  C_15
REMARK    7  A    between atoms: C_23  and  O_24
REMARK                            x       y       z     vdW  Elec       q    Type
REMARK                         _______ _______ _______ _____ _____    ______ ____
ROOT
ATOM      1  C   UNL     1      47.386   7.053  12.349  0.00  0.00    +0.000 A 
ATOM      2  C   UNL     1      48.379   7.132  11.362  0.00  0.00    +0.000 A 
ATOM      3  C   UNL     1      49.478   7.987  11.511  0.00  0.00    +0.000 A 
ATOM      4  C   UNL     1      49.602   8.792  12.645  0.00  0.00    +0.000 A 
ATOM      5  C   UNL     1      48.640   8.736  13.656  0.00  0.00    +0.000 A 
ATOM      6  C   UNL     1      47.567   7.839  13.496  0.00  0.00    +0.000 A 
ENDROOT
BRANCH   1   8
ATOM      7  C   UNL     1      44.928   7.088  12.661  0.00  0.00    +0.000 C 
ATOM      8  C   UNL     1      46.100   6.219  12.140  0.00  0.00    +0.000 C 
ATOM      9  C   UNL     1      45.916   5.884  10.636  0.00  0.00    +0.000 C 
ATOM     10  C   UNL     1      44.709   4.987  10.353  0.00  0.00    +0.000 C 
ATOM     11  C   UNL     1      44.733   3.700  11.174  0.00  0.00    +0.000 C 
ATOM     12  C   UNL     1      44.899   3.979  12.662  0.00  0.00    +0.000 C 
ATOM     13  C   UNL     1      46.106   4.871  12.930  0.00  0.00    +0.000 C 
BRANCH  11  14
ATOM     14  O   UNL     1      43.528   2.974  10.960  0.00  0.00    +0.000 OA
ATOM     15  H   UNL     1      43.756   2.134  10.528  0.00  0.00    +0.000 HD
ENDBRANCH  11  14
ENDBRANCH   1   8
BRANCH   5  16
ATOM     16  C   UNL     1      48.736   9.665  14.859  0.00  0.00    +0.000 C 
BRANCH  16  17
ATOM     17  C   UNL     1      49.631   9.124  15.985  0.00  0.00    +0.000 C 
BRANCH  17  18
ATOM     18  N   UNL     1      48.933   8.932  17.261  0.00  0.00    +0.000 N 
ATOM     19  C   UNL     1      48.589   7.567  17.442  0.00  0.00    +0.000 A 
ATOM     20  C   UNL     1      47.910   7.158  18.597  0.00  0.00    +0.000 A 
ATOM     21  N   UNL     1      47.547   5.871  18.859  0.00  0.00    +0.000 NA
ATOM     22  C   UNL     1      47.912   4.978  17.898  0.00  0.00    +0.000 A 
ATOM     23  C   UNL     1      48.591   5.357  16.756  0.00  0.00    +0.000 A 
ATOM     24  N   UNL     1      48.939   6.646  16.513  0.00  0.00    +0.000 NA
ATOM     25  H   UNL     1      48.084   9.490  17.314  0.00  0.00    +0.000 HD
BRANCH  22  26
ATOM     26  C   UNL     1      47.565   3.544  18.094  0.00  0.00    +0.000 C 
ATOM     27  N   UNL     1      48.269   2.886  19.064  0.00  0.00    +0.000 N 
ATOM     28  O   UNL     1      46.704   2.983  17.431  0.00  0.00    +0.000 OA
ATOM     29  H   UNL     1      48.994   3.366  19.587  0.00  0.00    +0.000 HD
ATOM     30  H   UNL     1      48.088   1.905  19.224  0.00  0.00    +0.000 HD
ENDBRANCH  22  26
ENDBRANCH  17  18
ENDBRANCH  16  17
ENDBRANCH   5  16
TORSDOF 6
ENDMDL
MODEL 9
REMARK VINA RESULT:    -6.397      3.937      6.270
REMARK INTER + INTRA:          -9.178
REMARK INTER:                  -8.013
REMARK INTRA:                  -1.166
REMARK UNBOUND:                -0.724
REMARK  Name = 
REMARK  7 active torsions:
REMARK  status: ('A' for Active; 'I' for Inactive)
REMARK    1  A    between atoms: C_1  and  C_2
REMARK    2  A    between atoms: C_2  and  C_3
REMARK    3  A    between atoms: C_7  and  C_8
REMARK    4  A    between atoms: C_8  and  C_9
REMARK    5  A    between atoms: C_9  and  N_10
REMARK    6  A    between atoms: C_14  and  C_15
REMARK    7  A    between atoms: C_23  and  O_24
REMARK                            x       y       z     vdW  Elec       q    Type
REMARK                         _______ _______ _______ _____ _____    ______ ____
ROOT
ATOM      1  C   UNL     1      48.541   8.351  14.103  0.00  0.00    +0.000 A 
ATOM      2  C   UNL     1      49.895   8.653  13.897  0.00  0.00    +0.000 A 
ATOM      3  C   UNL     1      50.699   9.114  14.946  0.00  0.00    +0.000 A 
ATOM      4  C   UNL     1      50.164   9.297  16.223  0.00  0.00    +0.000 A 
ATOM      5  C   UNL     1      48.822   8.998  16.473  0.00  0.00    +0.000 A 
ATOM      6  C   UNL     1      48.049   8.500  15.408  0.00  0.00    +0.000 A 
ENDROOT
BRANCH   1   8
ATOM      7  C   UNL     1      48.360   8.358  11.631  0.00  0.00    +0.000 C 
ATOM      8  C   UNL     1      47.607   7.973  12.929  0.00  0.00    +0.000 C 
ATOM      9  C   UNL     1      47.295   6.454  12.958  0.00  0.00    +0.000 C 
ATOM     10  C   UNL     1      46.305   6.011  11.878  0.00  0.00    +0.000 C 
ATOM     11  C   UNL     1      45.006   6.810  11.915  0.00  0.00    +0.000 C 
ATOM     12  C   UNL     1      45.261   8.312  11.874  0.00  0.00    +0.000 C 
ATOM     13  C   UNL     1      46.245   8.738  12.957  0.00  0.00    +0.000 C 
BRANCH  11  14
ATOM     14  O   UNL     1      44.186   6.440  10.812  0.00  0.00    +0.000 OA
ATOM     15  H   UNL     1      43.422   5.948  11.158  0.00  0.00    +0.000 HD
ENDBRANCH  11  14
ENDBRANCH   1   8
BRANCH   5  16
ATOM     16  C   UNL     1      48.220   9.264  17.846  0.00  0.00    +0.000 C 
BRANCH  16  17
ATOM     17  C   UNL     1      48.371   8.087  18.823  0.00  0.00    +0.000 C 
BRANCH  17  18
ATOM     18  N   UNL     1      47.396   7.011  18.615  0.00  0.00    +0.000 N 
ATOM     19  C   UNL     1      48.046   5.821  18.198  0.00  0.00    +0.000 A 
ATOM     20  C   UNL     1      47.301   4.664  17.938  0.00  0.00    +0.000 A 
ATOM     21  N   UNL     1      47.839   3.477  17.542  0.00  0.00    +0.000 NA
ATOM     22  C   UNL     1      49.196   3.486  17.426  0.00  0.00    +0.000 A 
ATOM     23  C   UNL     1      49.953   4.612  17.687  0.00  0.00    +0.000 A 
ATOM     24  N   UNL     1      49.394   5.787  18.076  0.00  0.00    +0.000 NA
ATOM     25  H   UNL     1      46.700   7.262  17.916  0.00  0.00    +0.000 HD
BRANCH  22  26
ATOM     26  C   UNL     1      49.881   2.234  17.003  0.00  0.00    +0.000 C 
ATOM     27  N   UNL     1      50.850   1.769  17.849  0.00  0.00    +0.000 N 
ATOM     28  O   UNL     1      49.600   1.652  15.965  0.00  0.00    +0.000 OA
ATOM     29  H   UNL     1      51.082   2.279  18.694  0.00  0.00    +0.000 HD
ATOM     30  H   UNL     1      51.361   0.934  17.599  0.00  0.00    +0.000 HD
ENDBRANCH  22  26
ENDBRANCH  17  18
ENDBRANCH  16  17
ENDBRANCH   5  16
TORSDOF 6
ENDMDL
