MODEL 1
REMARK VINA RESULT:    -7.374      0.000      0.000
REMARK INTER + INTRA:         -10.886
REMARK INTER:                  -9.961
REMARK INTRA:                  -0.926
REMARK UNBOUND:                -0.926
REMARK  Name = 
REMARK  6 active torsions:
REMARK  status: ('A' for Active; 'I' for Inactive)
REMARK    1  A    between atoms: C_2  and  C_3
REMARK    2  A    between atoms: N_7  and  C_8
REMARK    3  A    between atoms: C_8  and  C_9
REMARK    4  A    between atoms: C_13  and  C_14
REMARK    5  A    between atoms: C_18  and  O_19
REMARK    6  A    between atoms: O_19  and  C_20
REMARK                            x       y       z     vdW  Elec       q    Type
REMARK                         _______ _______ _______ _____ _____    ______ ____
ROOT
ATOM      1  C   UNL     1      46.941   7.516  12.717  0.00  0.00    +0.000 A 
ATOM      2  C   UNL     1      46.047   8.575  12.871  0.00  0.00    +0.000 A 
ATOM      3  C   UNL     1      44.843   8.554  12.180  0.00  0.00    +0.000 A 
ATOM      4  C   UNL     1      44.539   7.459  11.378  0.00  0.00    +0.000 A 
ATOM      5  C   UNL     1      45.418   6.381  11.338  0.00  0.00    +0.000 A 
ATOM      6  N   UNL     1      46.592   6.407  12.018  0.00  0.00    +0.000 NA
ENDROOT
BRANCH   5   7
ATOM      7  C   UNL     1      45.207   5.173  10.510  0.00  0.00    +0.000 A 
ATOM      8  C   UNL     1      44.516   4.042  10.972  0.00  0.00    +0.000 A 
ATOM      9  C   UNL     1      44.324   2.924  10.153  0.00  0.00    +0.000 A 
ATOM     10  C   UNL     1      44.834   2.904   8.853  0.00  0.00    +0.000 A 
ATOM     11  C   UNL     1      45.545   4.000   8.375  0.00  0.00    +0.000 A 
ATOM     12  C   UNL     1      45.708   5.121   9.193  0.00  0.00    +0.000 A 
BRANCH  11  13
ATOM     13  O   UNL     1      46.094   4.112   7.129  0.00  0.00    +0.000 OA
BRANCH  13  14
ATOM     14  C   UNL     1      46.709   2.940   6.626  0.00  0.00    +0.000 C 
ATOM     15  F   UNL     1      46.765   3.019   5.274  0.00  0.00    +0.000 F 
ATOM     16  F   UNL     1      47.992   2.935   7.070  0.00  0.00    +0.000 F 
ENDBRANCH  13  14
ENDBRANCH  11  13
ENDBRANCH   5   7
BRANCH   1  17
ATOM     17  C   UNL     1      48.421   7.698  13.084  0.00  0.00    +0.000 C 
ATOM     18  C   UNL     1      49.478   7.075  12.187  0.00  0.00    +0.000 C 
ATOM     19  C   UNL     1      49.172   8.527  12.033  0.00  0.00    +0.000 C 
BRANCH  17  24
ATOM     20  C   UNL     1      48.689   5.656  17.915  0.00  0.00    +0.000 A 
ATOM     21  C   UNL     1      48.381   5.033  16.706  0.00  0.00    +0.000 A 
ATOM     22  C   UNL     1      48.396   5.781  15.521  0.00  0.00    +0.000 A 
ATOM     23  C   UNL     1      48.718   7.132  15.571  0.00  0.00    +0.000 A 
ATOM     24  N   UNL     1      48.740   7.989  14.480  0.00  0.00    +0.000 N 
ATOM     25  N   UNL     1      49.030   7.736  16.740  0.00  0.00    +0.000 NA
ATOM     26  C   UNL     1      49.010   7.000  17.877  0.00  0.00    +0.000 A 
ATOM     27  H   UNL     1      49.024   8.912  14.773  0.00  0.00    +0.000 HD
BRANCH  20  29
ATOM     28  N   UNL     1      48.655   4.408  20.182  0.00  0.00    +0.000 NA
ATOM     29  C   UNL     1      48.670   4.957  19.162  0.00  0.00    +0.000 C 
ENDBRANCH  20  29
ENDBRANCH  17  24
ENDBRANCH   1  17
TORSDOF 6
ENDMDL
MODEL 2
REMARK VINA RESULT:    -7.371      4.251      8.167
REMARK INTER + INTRA:         -10.882
REMARK INTER:                 -10.362
REMARK INTRA:                  -0.520
REMARK UNBOUND:                -0.926
REMARK  Name = 
REMARK  6 active torsions:
REMARK  status: ('A' for Active; 'I' for Inactive)
REMARK    1  A    between atoms: C_2  and  C_3
REMARK    2  A    between atoms: N_7  and  C_8
REMARK    3  A    between atoms: C_8  and  C_9
REMARK    4  A    between atoms: C_13  and  C_14
REMARK    5  A    between atoms: C_18  and  O_19
REMARK    6  A    between atoms: O_19  and  C_20
REMARK                            x       y       z     vdW  Elec       q    Type
REMARK                         _______ _______ _______ _____ _____    ______ ____
ROOT
ATOM      1  C   UNL     1      45.211   5.431  12.881  0.00  0.00    +0.000 A 
ATOM      2  C   UNL     1      46.203   4.694  13.529  0.00  0.00    +0.000 A 
ATOM      3  C   UNL     1      47.444   5.274  13.753  0.00  0.00    +0.000 A 
ATOM      4  C   UNL     1      47.660   6.591  13.358  0.00  0.00    +0.000 A 
ATOM      5  C   UNL     1      46.607   7.317  12.809  0.00  0.00    +0.000 A 
ATOM      6  N   UNL     1      45.396   6.745  12.596  0.00  0.00    +0.000 NA
ENDROOT
BRANCH   5   7
ATOM      7  C   UNL     1      46.725   8.716  12.340  0.00  0.00    +0.000 A 
ATOM      8  C   UNL     1      47.948   9.295  11.968  0.00  0.00    +0.000 A 
ATOM      9  C   UNL     1      48.017  10.617  11.516  0.00  0.00    +0.000 A 
ATOM     10  C   UNL     1      46.863  11.400  11.440  0.00  0.00    +0.000 A 
ATOM     11  C   UNL     1      45.639  10.861  11.827  0.00  0.00    +0.000 A 
ATOM     12  C   UNL     1      45.578   9.532  12.252  0.00  0.00    +0.000 A 
BRANCH  11  13
ATOM     13  O   UNL     1      44.438  11.513  11.802  0.00  0.00    +0.000 OA
BRANCH  13  14
ATOM     14  C   UNL     1      43.327  10.728  11.410  0.00  0.00    +0.000 C 
ATOM     15  F   UNL     1      42.189  11.349  11.808  0.00  0.00    +0.000 F 
ATOM     16  F   UNL     1      43.305  10.708  10.052  0.00  0.00    +0.000 F 
ENDBRANCH  13  14
ENDBRANCH  11  13
ENDBRANCH   5   7
BRANCH   1  17
ATOM     17  C   UNL     1      44.021   4.713  12.228  0.00  0.00    +0.000 C 
ATOM     18  C   UNL     1      42.650   4.839  12.871  0.00  0.00    +0.000 C 
ATOM     19  C   UNL     1      42.975   5.706  11.701  0.00  0.00    +0.000 C 
BRANCH  17  24
ATOM     20  C   UNL     1      46.058   3.252   7.613  0.00  0.00    +0.000 A 
ATOM     21  C   UNL     1      45.989   4.520   8.189  0.00  0.00    +0.000 A 
ATOM     22  C   UNL     1      45.416   4.672   9.459  0.00  0.00    +0.000 A 
ATOM     23  C   UNL     1      44.927   3.553  10.124  0.00  0.00    +0.000 A 
ATOM     24  N   UNL     1      44.312   3.569  11.367  0.00  0.00    +0.000 N 
ATOM     25  N   UNL     1      45.004   2.320   9.574  0.00  0.00    +0.000 NA
ATOM     26  C   UNL     1      45.559   2.191   8.345  0.00  0.00    +0.000 A 
ATOM     27  H   UNL     1      44.065   2.630  11.641  0.00  0.00    +0.000 HD
BRANCH  20  29
ATOM     28  N   UNL     1      47.038   2.864   5.250  0.00  0.00    +0.000 NA
ATOM     29  C   UNL     1      46.609   3.033   6.312  0.00  0.00    +0.000 C 
ENDBRANCH  20  29
ENDBRANCH  17  24
ENDBRANCH   1  17
TORSDOF 6
ENDMDL
MODEL 3
REMARK VINA RESULT:    -7.315      2.285      4.886
REMARK INTER + INTRA:         -10.806
REMARK INTER:                  -9.722
REMARK INTRA:                  -1.085
REMARK UNBOUND:                -0.926
REMARK  Name = 
REMARK  6 active torsions:
REMARK  status: ('A' for Active; 'I' for Inactive)
REMARK    1  A    between atoms: C_2  and  C_3
REMARK    2  A    between atoms: N_7  and  C_8
REMARK    3  A    between atoms: C_8  and  C_9
REMARK    4  A    between atoms: C_13  and  C_14
REMARK    5  A    between atoms: C_18  and  O_19
REMARK    6  A    between atoms: O_19  and  C_20
REMARK                            x       y       z     vdW  Elec       q    Type
REMARK                         _______ _______ _______ _____ _____    ______ ____
ROOT
ATOM      1  C   UNL     1      47.077   7.288  13.012  0.00  0.00    +0.000 A 
ATOM      2  C   UNL     1      46.338   8.470  13.070  0.00  0.00    +0.000 A 
ATOM      3  C   UNL     1      45.235   8.622  12.242  0.00  0.00    +0.000 A 
ATOM      4  C   UNL     1      44.869   7.579  11.398  0.00  0.00    +0.000 A 
ATOM      5  C   UNL     1      45.577   6.381  11.452  0.00  0.00    +0.000 A 
ATOM      6  N   UNL     1      46.652   6.238  12.265  0.00  0.00    +0.000 NA
ENDROOT
BRANCH   5   7
ATOM      7  C   UNL     1      45.288   5.213  10.592  0.00  0.00    +0.000 A 
ATOM      8  C   UNL     1      44.534   4.112  11.028  0.00  0.00    +0.000 A 
ATOM      9  C   UNL     1      44.270   3.031  10.180  0.00  0.00    +0.000 A 
ATOM     10  C   UNL     1      44.768   3.017   8.876  0.00  0.00    +0.000 A 
ATOM     11  C   UNL     1      45.540   4.082   8.422  0.00  0.00    +0.000 A 
ATOM     12  C   UNL     1      45.776   5.168   9.269  0.00  0.00    +0.000 A 
BRANCH  11  13
ATOM     13  O   UNL     1      46.086   4.197   7.175  0.00  0.00    +0.000 OA
BRANCH  13  14
ATOM     14  C   UNL     1      46.603   3.000   6.623  0.00  0.00    +0.000 C 
ATOM     15  F   UNL     1      46.890   3.208   5.315  0.00  0.00    +0.000 F 
ATOM     16  F   UNL     1      47.783   2.745   7.245  0.00  0.00    +0.000 F 
ENDBRANCH  13  14
ENDBRANCH  11  13
ENDBRANCH   5   7
BRANCH   1  17
ATOM     17  C   UNL     1      48.514   7.251  13.553  0.00  0.00    +0.000 C 
ATOM     18  C   UNL     1      48.817   7.950  14.869  0.00  0.00    +0.000 C 
ATOM     19  C   UNL     1      48.607   6.472  14.873  0.00  0.00    +0.000 C 
BRANCH  17  24
ATOM     20  C   UNL     1      51.832   9.590  10.222  0.00  0.00    +0.000 A 
ATOM     21  C   UNL     1      50.904  10.160  11.093  0.00  0.00    +0.000 A 
ATOM     22  C   UNL     1      50.133   9.330  11.919  0.00  0.00    +0.000 A 
ATOM     23  C   UNL     1      50.309   7.952  11.856  0.00  0.00    +0.000 A 
ATOM     24  N   UNL     1      49.592   7.022  12.594  0.00  0.00    +0.000 N 
ATOM     25  N   UNL     1      51.217   7.398  11.021  0.00  0.00    +0.000 NA
ATOM     26  C   UNL     1      51.953   8.214  10.229  0.00  0.00    +0.000 A 
ATOM     27  H   UNL     1      49.919   6.091  12.384  0.00  0.00    +0.000 HD
BRANCH  20  29
ATOM     28  N   UNL     1      53.290  11.026   8.637  0.00  0.00    +0.000 NA
ATOM     29  C   UNL     1      52.633  10.378   9.338  0.00  0.00    +0.000 C 
ENDBRANCH  20  29
ENDBRANCH  17  24
ENDBRANCH   1  17
TORSDOF 6
ENDMDL
MODEL 4
REMARK VINA RESULT:    -7.305      4.037      8.332
REMARK INTER + INTRA:         -10.793
REMARK INTER:                 -10.493
REMARK INTRA:                  -0.301
REMARK UNBOUND:                -0.926
REMARK  Name = 
REMARK  6 active torsions:
REMARK  status: ('A' for Active; 'I' for Inactive)
REMARK    1  A    between atoms: C_2  and  C_3
REMARK    2  A    between atoms: N_7  and  C_8
REMARK    3  A    between atoms: C_8  and  C_9
REMARK    4  A    between atoms: C_13  and  C_14
REMARK    5  A    between atoms: C_18  and  O_19
REMARK    6  A    between atoms: O_19  and  C_20
REMARK                            x       y       z     vdW  Elec       q    Type
REMARK                         _______ _______ _______ _____ _____    ______ ____
ROOT
ATOM      1  C   UNL     1      45.138   5.948  12.130  0.00  0.00    +0.000 A 
ATOM      2  C   UNL     1      44.880   7.185  11.539  0.00  0.00    +0.000 A 
ATOM      3  C   UNL     1      45.602   8.297  11.947  0.00  0.00    +0.000 A 
ATOM      4  C   UNL     1      46.594   8.147  12.912  0.00  0.00    +0.000 A 
ATOM      5  C   UNL     1      46.884   6.874  13.396  0.00  0.00    +0.000 A 
ATOM      6  N   UNL     1      46.176   5.791  12.990  0.00  0.00    +0.000 NA
ENDROOT
BRANCH   5   7
ATOM      7  C   UNL     1      47.904   6.598  14.431  0.00  0.00    +0.000 A 
ATOM      8  C   UNL     1      49.131   7.277  14.494  0.00  0.00    +0.000 A 
ATOM      9  C   UNL     1      50.065   6.996  15.497  0.00  0.00    +0.000 A 
ATOM     10  C   UNL     1      49.800   6.016  16.456  0.00  0.00    +0.000 A 
ATOM     11  C   UNL     1      48.603   5.308  16.404  0.00  0.00    +0.000 A 
ATOM     12  C   UNL     1      47.667   5.614  15.413  0.00  0.00    +0.000 A 
BRANCH  11  13
ATOM     13  O   UNL     1      48.219   4.329  17.276  0.00  0.00    +0.000 OA
BRANCH  13  14
ATOM     14  C   UNL     1      47.582   3.208  16.691  0.00  0.00    +0.000 C 
ATOM     15  F   UNL     1      48.528   2.376  16.192  0.00  0.00    +0.000 F 
ATOM     16  F   UNL     1      46.957   2.532  17.689  0.00  0.00    +0.000 F 
ENDBRANCH  13  14
ENDBRANCH  11  13
ENDBRANCH   5   7
BRANCH   1  17
ATOM     17  C   UNL     1      44.097   4.822  12.046  0.00  0.00    +0.000 C 
ATOM     18  C   UNL     1      43.045   4.717  13.138  0.00  0.00    +0.000 C 
ATOM     19  C   UNL     1      42.677   5.371  11.848  0.00  0.00    +0.000 C 
BRANCH  17  24
ATOM     20  C   UNL     1      46.156   3.157   7.511  0.00  0.00    +0.000 A 
ATOM     21  C   UNL     1      46.020   4.457   7.997  0.00  0.00    +0.000 A 
ATOM     22  C   UNL     1      45.455   4.665   9.264  0.00  0.00    +0.000 A 
ATOM     23  C   UNL     1      45.042   3.569  10.014  0.00  0.00    +0.000 A 
ATOM     24  N   UNL     1      44.443   3.638  11.263  0.00  0.00    +0.000 N 
ATOM     25  N   UNL     1      45.185   2.307   9.550  0.00  0.00    +0.000 NA
ATOM     26  C   UNL     1      45.730   2.124   8.324  0.00  0.00    +0.000 A 
ATOM     27  H   UNL     1      44.256   2.708  11.606  0.00  0.00    +0.000 HD
BRANCH  20  29
ATOM     28  N   UNL     1      47.125   2.651   5.165  0.00  0.00    +0.000 NA
ATOM     29  C   UNL     1      46.702   2.878   6.219  0.00  0.00    +0.000 C 
ENDBRANCH  20  29
ENDBRANCH  17  24
ENDBRANCH   1  17
TORSDOF 6
ENDMDL
MODEL 5
REMARK VINA RESULT:    -7.208      3.481      7.704
REMARK INTER + INTRA:         -10.661
REMARK INTER:                  -9.461
REMARK INTRA:                  -1.200
REMARK UNBOUND:                -0.926
REMARK  Name = 
REMARK  6 active torsions:
REMARK  status: ('A' for Active; 'I' for Inactive)
REMARK    1  A    between atoms: C_2  and  C_3
REMARK    2  A    between atoms: N_7  and  C_8
REMARK    3  A    between atoms: C_8  and  C_9
REMARK    4  A    between atoms: C_13  and  C_14
REMARK    5  A    between atoms: C_18  and  O_19
REMARK    6  A    between atoms: O_19  and  C_20
REMARK                            x       y       z     vdW  Elec       q    Type
REMARK                         _______ _______ _______ _____ _____    ______ ____
ROOT
ATOM      1  C   UNL     1      45.253   5.811  12.501  0.00  0.00    +0.000 A 
ATOM      2  C   UNL     1      44.973   4.715  13.318  0.00  0.00    +0.000 A 
ATOM      3  C   UNL     1      45.937   4.269  14.210  0.00  0.00    +0.000 A 
ATOM      4  C   UNL     1      47.149   4.946  14.297  0.00  0.00    +0.000 A 
ATOM      5  C   UNL     1      47.341   6.095  13.535  0.00  0.00    +0.000 A 
ATOM      6  N   UNL     1      46.393   6.527  12.667  0.00  0.00    +0.000 NA
ENDROOT
BRANCH   5   7
ATOM      7  C   UNL     1      48.592   6.885  13.533  0.00  0.00    +0.000 A 
ATOM      8  C   UNL     1      49.281   7.225  14.709  0.00  0.00    +0.000 A 
ATOM      9  C   UNL     1      50.469   7.962  14.665  0.00  0.00    +0.000 A 
ATOM     10  C   UNL     1      50.991   8.391  13.443  0.00  0.00    +0.000 A 
ATOM     11  C   UNL     1      50.317   8.092  12.263  0.00  0.00    +0.000 A 
ATOM     12  C   UNL     1      49.145   7.333  12.316  0.00  0.00    +0.000 A 
BRANCH  11  13
ATOM     13  O   UNL     1      50.716   8.447  11.005  0.00  0.00    +0.000 OA
BRANCH  13  14
ATOM     14  C   UNL     1      51.907   7.835  10.547  0.00  0.00    +0.000 C 
ATOM     15  F   UNL     1      51.596   6.942   9.576  0.00  0.00    +0.000 F 
ATOM     16  F   UNL     1      52.659   8.802   9.961  0.00  0.00    +0.000 F 
ENDBRANCH  13  14
ENDBRANCH  11  13
ENDBRANCH   5   7
BRANCH   1  17
ATOM     17  C   UNL     1      44.429   6.053  11.228  0.00  0.00    +0.000 C 
ATOM     18  C   UNL     1      42.914   5.970  11.312  0.00  0.00    +0.000 C 
ATOM     19  C   UNL     1      43.561   7.315  11.341  0.00  0.00    +0.000 C 
BRANCH  17  24
ATOM     20  C   UNL     1      46.236   2.410   7.905  0.00  0.00    +0.000 A 
ATOM     21  C   UNL     1      45.550   2.249   9.108  0.00  0.00    +0.000 A 
ATOM     22  C   UNL     1      45.136   3.381   9.824  0.00  0.00    +0.000 A 
ATOM     23  C   UNL     1      45.418   4.646   9.321  0.00  0.00    +0.000 A 
ATOM     24  N   UNL     1      45.093   5.842   9.943  0.00  0.00    +0.000 N 
ATOM     25  N   UNL     1      46.072   4.805   8.148  0.00  0.00    +0.000 NA
ATOM     26  C   UNL     1      46.466   3.701   7.470  0.00  0.00    +0.000 A 
ATOM     27  H   UNL     1      45.385   6.619   9.369  0.00  0.00    +0.000 HD
BRANCH  20  29
ATOM     28  N   UNL     1      47.103   0.405   6.516  0.00  0.00    +0.000 NA
ATOM     29  C   UNL     1      46.704   1.299   7.138  0.00  0.00    +0.000 C 
ENDBRANCH  20  29
ENDBRANCH  17  24
ENDBRANCH   1  17
TORSDOF 6
ENDMDL
MODEL 6
REMARK VINA RESULT:    -7.058      3.748      7.882
REMARK INTER + INTRA:         -10.460
REMARK INTER:                 -10.124
REMARK INTRA:                  -0.336
REMARK UNBOUND:                -0.926
REMARK  Name = 
REMARK  6 active torsions:
REMARK  status: ('A' for Active; 'I' for Inactive)
REMARK    1  A    between atoms: C_2  and  C_3
REMARK    2  A    between atoms: N_7  and  C_8
REMARK    3  A    between atoms: C_8  and  C_9
REMARK    4  A    between atoms: C_13  and  C_14
REMARK    5  A    between atoms: C_18  and  O_19
REMARK    6  A    between atoms: O_19  and  C_20
REMARK                            x       y       z     vdW  Elec       q    Type
REMARK                         _______ _______ _______ _____ _____    ______ ____
ROOT
ATOM      1  C   UNL     1      45.229   5.367  12.876  0.00  0.00    +0.000 A 
ATOM      2  C   UNL     1      45.889   4.532  13.778  0.00  0.00    +0.000 A 
ATOM      3  C   UNL     1      47.162   4.873  14.213  0.00  0.00    +0.000 A 
ATOM      4  C   UNL     1      47.738   6.058  13.767  0.00  0.00    +0.000 A 
ATOM      5  C   UNL     1      46.999   6.907  12.948  0.00  0.00    +0.000 A 
ATOM      6  N   UNL     1      45.754   6.570  12.530  0.00  0.00    +0.000 NA
ENDROOT
BRANCH   5   7
ATOM      7  C   UNL     1      47.513   8.183  12.402  0.00  0.00    +0.000 A 
ATOM      8  C   UNL     1      46.727   9.341  12.300  0.00  0.00    +0.000 A 
ATOM      9  C   UNL     1      47.255  10.533  11.790  0.00  0.00    +0.000 A 
ATOM     10  C   UNL     1      48.580  10.590  11.355  0.00  0.00    +0.000 A 
ATOM     11  C   UNL     1      49.377   9.451  11.420  0.00  0.00    +0.000 A 
ATOM     12  C   UNL     1      48.847   8.274  11.954  0.00  0.00    +0.000 A 
BRANCH  11  13
ATOM     13  O   UNL     1      50.684   9.370  11.031  0.00  0.00    +0.000 OA
BRANCH  13  14
ATOM     14  C   UNL     1      51.334   8.148  11.331  0.00  0.00    +0.000 C 
ATOM     15  F   UNL     1      51.528   7.460  10.180  0.00  0.00    +0.000 F 
ATOM     16  F   UNL     1      52.565   8.455  11.815  0.00  0.00    +0.000 F 
ENDBRANCH  13  14
ENDBRANCH  11  13
ENDBRANCH   5   7
BRANCH   1  17
ATOM     17  C   UNL     1      44.056   4.827  12.045  0.00  0.00    +0.000 C 
ATOM     18  C   UNL     1      42.638   5.134  12.499  0.00  0.00    +0.000 C 
ATOM     19  C   UNL     1      43.237   5.961  11.410  0.00  0.00    +0.000 C 
BRANCH  17  24
ATOM     20  C   UNL     1      46.134   3.227   7.495  0.00  0.00    +0.000 A 
ATOM     21  C   UNL     1      46.120   4.501   8.063  0.00  0.00    +0.000 A 
ATOM     22  C   UNL     1      45.522   4.691   9.316  0.00  0.00    +0.000 A 
ATOM     23  C   UNL     1      44.953   3.606   9.972  0.00  0.00    +0.000 A 
ATOM     24  N   UNL     1      44.306   3.663  11.198  0.00  0.00    +0.000 N 
ATOM     25  N   UNL     1      44.977   2.367   9.430  0.00  0.00    +0.000 NA
ATOM     26  C   UNL     1      45.557   2.200   8.218  0.00  0.00    +0.000 A 
ATOM     27  H   UNL     1      44.000   2.741  11.469  0.00  0.00    +0.000 HD
BRANCH  20  29
ATOM     28  N   UNL     1      47.172   2.781   5.166  0.00  0.00    +0.000 NA
ATOM     29  C   UNL     1      46.708   2.970   6.211  0.00  0.00    +0.000 C 
ENDBRANCH  20  29
ENDBRANCH  17  24
ENDBRANCH   1  17
TORSDOF 6
ENDMDL
MODEL 7
REMARK VINA RESULT:    -6.875      4.656      8.449
REMARK INTER + INTRA:         -10.212
REMARK INTER:                  -9.182
REMARK INTRA:                  -1.031
REMARK UNBOUND:                -0.926
REMARK  Name = 
REMARK  6 active torsions:
REMARK  status: ('A' for Active; 'I' for Inactive)
REMARK    1  A    between atoms: C_2  and  C_3
REMARK    2  A    between atoms: N_7  and  C_8
REMARK    3  A    between atoms: C_8  and  C_9
REMARK    4  A    between atoms: C_13  and  C_14
REMARK    5  A    between atoms: C_18  and  O_19
REMARK    6  A    between atoms: O_19  and  C_20
REMARK                            x       y       z     vdW  Elec       q    Type
REMARK                         _______ _______ _______ _____ _____    ______ ____
ROOT
ATOM      1  C   UNL     1      45.232   5.810  12.462  0.00  0.00    +0.000 A 
ATOM      2  C   UNL     1      45.134   4.801  13.420  0.00  0.00    +0.000 A 
ATOM      3  C   UNL     1      46.217   4.540  14.247  0.00  0.00    +0.000 A 
ATOM      4  C   UNL     1      47.366   5.316  14.128  0.00  0.00    +0.000 A 
ATOM      5  C   UNL     1      47.378   6.378  13.228  0.00  0.00    +0.000 A 
ATOM      6  N   UNL     1      46.314   6.629  12.424  0.00  0.00    +0.000 NA
ENDROOT
BRANCH   5   7
ATOM      7  C   UNL     1      48.546   7.258  13.005  0.00  0.00    +0.000 A 
ATOM      8  C   UNL     1      48.710   8.029  11.843  0.00  0.00    +0.000 A 
ATOM      9  C   UNL     1      49.823   8.860  11.676  0.00  0.00    +0.000 A 
ATOM     10  C   UNL     1      50.809   8.929  12.661  0.00  0.00    +0.000 A 
ATOM     11  C   UNL     1      50.687   8.157  13.812  0.00  0.00    +0.000 A 
ATOM     12  C   UNL     1      49.560   7.350  13.981  0.00  0.00    +0.000 A 
BRANCH  11  13
ATOM     13  O   UNL     1      51.575   8.130  14.851  0.00  0.00    +0.000 OA
BRANCH  13  14
ATOM     14  C   UNL     1      51.404   9.143  15.826  0.00  0.00    +0.000 C 
ATOM     15  F   UNL     1      50.121   9.579  15.785  0.00  0.00    +0.000 F 
ATOM     16  F   UNL     1      51.581   8.567  17.042  0.00  0.00    +0.000 F 
ENDBRANCH  13  14
ENDBRANCH  11  13
ENDBRANCH   5   7
BRANCH   1  17
ATOM     17  C   UNL     1      44.269   5.834  11.266  0.00  0.00    +0.000 C 
ATOM     18  C   UNL     1      42.801   5.524  11.505  0.00  0.00    +0.000 C 
ATOM     19  C   UNL     1      43.224   6.951  11.398  0.00  0.00    +0.000 C 
BRANCH  17  24
ATOM     20  C   UNL     1      46.171   2.266   7.915  0.00  0.00    +0.000 A 
ATOM     21  C   UNL     1      45.611   2.084   9.179  0.00  0.00    +0.000 A 
ATOM     22  C   UNL     1      45.140   3.195   9.892  0.00  0.00    +0.000 A 
ATOM     23  C   UNL     1      45.239   4.460   9.326  0.00  0.00    +0.000 A 
ATOM     24  N   UNL     1      44.840   5.641   9.935  0.00  0.00    +0.000 N 
ATOM     25  N   UNL     1      45.770   4.638   8.094  0.00  0.00    +0.000 NA
ATOM     26  C   UNL     1      46.221   3.555   7.419  0.00  0.00    +0.000 A 
ATOM     27  H   UNL     1      44.997   6.419   9.313  0.00  0.00    +0.000 HD
BRANCH  20  29
ATOM     28  N   UNL     1      47.114   0.287   6.539  0.00  0.00    +0.000 NA
ATOM     29  C   UNL     1      46.690   1.179   7.145  0.00  0.00    +0.000 C 
ENDBRANCH  20  29
ENDBRANCH  17  24
ENDBRANCH   1  17
TORSDOF 6
ENDMDL
MODEL 8
REMARK VINA RESULT:    -6.821      3.825      5.538
REMARK INTER + INTRA:         -10.139
REMARK INTER:                  -9.227
REMARK INTRA:                  -0.912
REMARK UNBOUND:                -0.926
REMARK  Name = 
REMARK  6 active torsions:
REMARK  status: ('A' for Active; 'I' for Inactive)
REMARK    1  A    between atoms: C_2  and  C_3
REMARK    2  A    between atoms: N_7  and  C_8
REMARK    3  A    between atoms: C_8  and  C_9
REMARK    4  A    between atoms: C_13  and  C_14
REMARK    5  A    between atoms: C_18  and  O_19
REMARK    6  A    between atoms: O_19  and  C_20
REMARK                            x       y       z     vdW  Elec       q    Type
REMARK                         _______ _______ _______ _____ _____    ______ ____
ROOT
ATOM      1  C   UNL     1      48.701   5.906  16.296  0.00  0.00    +0.000 A 
ATOM      2  C   UNL     1      49.773   6.787  16.153  0.00  0.00    +0.000 A 
ATOM      3  C   UNL     1      50.033   7.346  14.910  0.00  0.00    +0.000 A 
ATOM      4  C   UNL     1      49.197   7.043  13.840  0.00  0.00    +0.000 A 
ATOM      5  C   UNL     1      48.081   6.240  14.057  0.00  0.00    +0.000 A 
ATOM      6  N   UNL     1      47.830   5.700  15.275  0.00  0.00    +0.000 NA
ENDROOT
BRANCH   5   7
ATOM      7  C   UNL     1      47.133   5.840  12.993  0.00  0.00    +0.000 A 
ATOM      8  C   UNL     1      46.927   6.599  11.830  0.00  0.00    +0.000 A 
ATOM      9  C   UNL     1      46.032   6.179  10.840  0.00  0.00    +0.000 A 
ATOM     10  C   UNL     1      45.307   4.996  10.997  0.00  0.00    +0.000 A 
ATOM     11  C   UNL     1      45.471   4.236  12.150  0.00  0.00    +0.000 A 
ATOM     12  C   UNL     1      46.386   4.651  13.121  0.00  0.00    +0.000 A 
BRANCH  11  13
ATOM     13  O   UNL     1      44.828   3.063  12.430  0.00  0.00    +0.000 OA
BRANCH  13  14
ATOM     14  C   UNL     1      43.429   3.164  12.619  0.00  0.00    +0.000 C 
ATOM     15  F   UNL     1      43.154   4.332  13.250  0.00  0.00    +0.000 F 
ATOM     16  F   UNL     1      42.860   3.242  11.388  0.00  0.00    +0.000 F 
ENDBRANCH  13  14
ENDBRANCH  11  13
ENDBRANCH   5   7
BRANCH   1  17
ATOM     17  C   UNL     1      48.647   4.946  17.493  0.00  0.00    +0.000 C 
ATOM     18  C   UNL     1      48.632   5.529  18.896  0.00  0.00    +0.000 C 
ATOM     19  C   UNL     1      47.341   5.095  18.286  0.00  0.00    +0.000 C 
BRANCH  17  24
ATOM     20  C   UNL     1      52.839   1.794  17.764  0.00  0.00    +0.000 A 
ATOM     21  C   UNL     1      52.715   3.135  18.122  0.00  0.00    +0.000 A 
ATOM     22  C   UNL     1      51.475   3.776  17.985  0.00  0.00    +0.000 A 
ATOM     23  C   UNL     1      50.389   3.059  17.496  0.00  0.00    +0.000 A 
ATOM     24  N   UNL     1      49.121   3.579  17.285  0.00  0.00    +0.000 N 
ATOM     25  N   UNL     1      50.503   1.754  17.160  0.00  0.00    +0.000 NA
ATOM     26  C   UNL     1      51.708   1.152  17.296  0.00  0.00    +0.000 A 
ATOM     27  H   UNL     1      48.505   2.856  16.944  0.00  0.00    +0.000 HD
BRANCH  20  29
ATOM     28  N   UNL     1      55.095   0.536  17.928  0.00  0.00    +0.000 NA
ATOM     29  C   UNL     1      54.079   1.089  17.857  0.00  0.00    +0.000 C 
ENDBRANCH  20  29
ENDBRANCH  17  24
ENDBRANCH   1  17
TORSDOF 6
ENDMDL
MODEL 9
REMARK VINA RESULT:    -6.500      2.282      3.158
REMARK INTER + INTRA:          -9.706
REMARK INTER:                  -8.863
REMARK INTRA:                  -0.843
REMARK UNBOUND:                -0.926
REMARK  Name = 
REMARK  6 active torsions:
REMARK  status: ('A' for Active; 'I' for Inactive)
REMARK    1  A    between atoms: C_2  and  C_3
REMARK    2  A    between atoms: N_7  and  C_8
REMARK    3  A    between atoms: C_8  and  C_9
REMARK    4  A    between atoms: C_13  and  C_14
REMARK    5  A    between atoms: C_18  and  O_19
REMARK    6  A    between atoms: O_19  and  C_20
REMARK                            x       y       z     vdW  Elec       q    Type
REMARK                         _______ _______ _______ _____ _____    ______ ____
ROOT
ATOM      1  C   UNL     1      48.287   7.973  14.049  0.00  0.00    +0.000 A 
ATOM      2  C   UNL     1      49.158   8.477  13.084  0.00  0.00    +0.000 A 
ATOM      3  C   UNL     1      49.000   8.095  11.759  0.00  0.00    +0.000 A 
ATOM      4  C   UNL     1      47.954   7.245  11.417  0.00  0.00    +0.000 A 
ATOM      5  C   UNL     1      47.050   6.852  12.400  0.00  0.00    +0.000 A 
ATOM      6  N   UNL     1      47.208   7.231  13.692  0.00  0.00    +0.000 NA
ENDROOT
BRANCH   5   7
ATOM      7  C   UNL     1      45.910   5.939  12.156  0.00  0.00    +0.000 A 
ATOM      8  C   UNL     1      45.135   5.392  13.191  0.00  0.00    +0.000 A 
ATOM      9  C   UNL     1      44.057   4.544  12.918  0.00  0.00    +0.000 A 
ATOM     10  C   UNL     1      43.735   4.209  11.601  0.00  0.00    +0.000 A 
ATOM     11  C   UNL     1      44.501   4.715  10.556  0.00  0.00    +0.000 A 
ATOM     12  C   UNL     1      45.560   5.581  10.837  0.00  0.00    +0.000 A 
BRANCH  11  13
ATOM     13  O   UNL     1      44.297   4.469   9.227  0.00  0.00    +0.000 OA
BRANCH  13  14
ATOM     14  C   UNL     1      45.296   3.695   8.589  0.00  0.00    +0.000 C 
ATOM     15  F   UNL     1      45.470   2.545   9.286  0.00  0.00    +0.000 F 
ATOM     16  F   UNL     1      44.816   3.343   7.369  0.00  0.00    +0.000 F 
ENDBRANCH  13  14
ENDBRANCH  11  13
ENDBRANCH   5   7
BRANCH   1  17
ATOM     17  C   UNL     1      48.681   8.002  15.533  0.00  0.00    +0.000 C 
ATOM     18  C   UNL     1      49.629   9.087  16.016  0.00  0.00    +0.000 C 
ATOM     19  C   UNL     1      48.164   9.264  16.237  0.00  0.00    +0.000 C 
BRANCH  17  24
ATOM     20  C   UNL     1      51.404   4.102  17.759  0.00  0.00    +0.000 A 
ATOM     21  C   UNL     1      51.866   5.255  17.127  0.00  0.00    +0.000 A 
ATOM     22  C   UNL     1      50.943   6.182  16.623  0.00  0.00    +0.000 A 
ATOM     23  C   UNL     1      49.583   5.936  16.764  0.00  0.00    +0.000 A 
ATOM     24  N   UNL     1      48.570   6.754  16.286  0.00  0.00    +0.000 N 
ATOM     25  N   UNL     1      49.132   4.825  17.389  0.00  0.00    +0.000 NA
ATOM     26  C   UNL     1      50.036   3.938  17.869  0.00  0.00    +0.000 A 
ATOM     27  H   UNL     1      47.670   6.369  16.533  0.00  0.00    +0.000 HD
BRANCH  20  29
ATOM     28  N   UNL     1      53.025   2.313  18.695  0.00  0.00    +0.000 NA
ATOM     29  C   UNL     1      52.291   3.106  18.275  0.00  0.00    +0.000 C 
ENDBRANCH  20  29
ENDBRANCH  17  24
ENDBRANCH   1  17
TORSDOF 6
ENDMDL
