MODEL 1
REMARK VINA RESULT:    -7.301      0.000      0.000
REMARK INTER + INTRA:         -10.958
REMARK INTER:                  -9.862
REMARK INTRA:                  -1.096
REMARK UNBOUND:                -1.096
REMARK  Name = 
REMARK  6 active torsions:
REMARK  status: ('A' for Active; 'I' for Inactive)
REMARK    1  A    between atoms: C_2  and  C_3
REMARK    2  A    between atoms: N_10  and  C_11
REMARK    3  A    between atoms: C_11  and  C_12
REMARK    4  A    between atoms: C_15  and  C_16
REMARK    5  A    between atoms: C_16  and  N_17
REMARK    6  A    between atoms: C_18  and  C_20
REMARK                            x       y       z     vdW  Elec       q    Type
REMARK                         _______ _______ _______ _____ _____    ______ ____
ROOT
ATOM      1  C   UNL     1      49.315   6.242  17.652  0.00  0.00    +0.000 A 
ATOM      2  C   UNL     1      49.475   7.632  17.548  0.00  0.00    +0.000 A 
ATOM      3  C   UNL     1      49.073   8.312  16.391  0.00  0.00    +0.000 A 
ATOM      4  C   UNL     1      48.489   7.618  15.321  0.00  0.00    +0.000 A 
ATOM      5  C   UNL     1      48.348   6.229  15.421  0.00  0.00    +0.000 A 
ATOM      6  C   UNL     1      48.748   5.551  16.578  0.00  0.00    +0.000 A 
ENDROOT
BRANCH   1   7
ATOM      7  C   UNL     1      49.769   5.503  18.883  0.00  0.00    +0.000 C 
BRANCH   7  15
ATOM      8  C   UNL     1      51.733   1.785  17.547  0.00  0.00    +0.000 A 
ATOM      9  C   UNL     1      52.629   0.742  17.706  0.00  0.00    +0.000 A 
ATOM     10  C   UNL     1      53.756   1.242  18.394  0.00  0.00    +0.000 A 
ATOM     11  C   UNL     1      53.532   2.582  18.604  0.00  0.00    +0.000 A 
ATOM     12  N   UNL     1      52.266   2.919  18.143  0.00  0.00    +0.000 N 
ATOM     13  C   UNL     1      51.722   4.215  18.242  0.00  0.00    +0.000 C 
ATOM     14  O   UNL     1      52.461   5.183  18.139  0.00  0.00    +0.000 OA
ATOM     15  N   UNL     1      50.388   4.228  18.583  0.00  0.00    +0.000 N 
ATOM     16  H   UNL     1      49.906   3.387  18.876  0.00  0.00    +0.000 HD
BRANCH   8  18
ATOM     17  N   UNL     1      49.541   1.710  16.187  0.00  0.00    +0.000 NA
ATOM     18  C   UNL     1      50.526   1.746  16.800  0.00  0.00    +0.000 C 
ENDBRANCH   8  18
ENDBRANCH   7  15
ENDBRANCH   1   7
BRANCH   4  19
ATOM     19  C   UNL     1      48.036   8.343  14.078  0.00  0.00    +0.000 C 
BRANCH  19  20
ATOM     20  N   UNL     1      46.775   7.845  13.597  0.00  0.00    +0.000 N 
ATOM     21  C   UNL     1      46.715   7.003  12.508  0.00  0.00    +0.000 C 
ATOM     22  O   UNL     1      47.706   6.770  11.820  0.00  0.00    +0.000 OA
ATOM     23  H   UNL     1      45.989   7.880  14.240  0.00  0.00    +0.000 HD
BRANCH  21  24
ATOM     24  C   UNL     1      45.416   6.401  12.206  0.00  0.00    +0.000 A 
ATOM     25  C   UNL     1      44.397   7.181  11.673  0.00  0.00    +0.000 A 
ATOM     26  S   UNL     1      42.985   6.298  11.301  0.00  0.00    +0.000 S 
ATOM     27  C   UNL     1      43.718   4.832  11.760  0.00  0.00    +0.000 A 
ATOM     28  N   UNL     1      43.082   3.644  11.576  0.00  0.00    +0.000 NA
ATOM     29  C   UNL     1      43.762   2.614  11.951  0.00  0.00    +0.000 A 
ATOM     30  N   UNL     1      45.003   2.665  12.532  0.00  0.00    +0.000 N 
ATOM     31  C   UNL     1      45.663   3.846  12.781  0.00  0.00    +0.000 A 
ATOM     32  O   UNL     1      46.726   3.866  13.394  0.00  0.00    +0.000 OA
ATOM     33  C   UNL     1      44.977   5.029  12.299  0.00  0.00    +0.000 A 
ATOM     34  H   UNL     1      45.458   1.825  12.857  0.00  0.00    +0.000 HD
ENDBRANCH  21  24
ENDBRANCH  19  20
ENDBRANCH   4  19
TORSDOF 6
ENDMDL
MODEL 2
REMARK VINA RESULT:    -7.083      4.122      8.870
REMARK INTER + INTRA:         -10.664
REMARK INTER:                  -9.650
REMARK INTRA:                  -1.014
REMARK UNBOUND:                -1.096
REMARK  Name = 
REMARK  6 active torsions:
REMARK  status: ('A' for Active; 'I' for Inactive)
REMARK    1  A    between atoms: C_2  and  C_3
REMARK    2  A    between atoms: N_10  and  C_11
REMARK    3  A    between atoms: C_11  and  C_12
REMARK    4  A    between atoms: C_15  and  C_16
REMARK    5  A    between atoms: C_16  and  N_17
REMARK    6  A    between atoms: C_18  and  C_20
REMARK                            x       y       z     vdW  Elec       q    Type
REMARK                         _______ _______ _______ _____ _____    ______ ____
ROOT
ATOM      1  C   UNL     1      45.359   4.216  11.134  0.00  0.00    +0.000 A 
ATOM      2  C   UNL     1      45.665   5.448  10.536  0.00  0.00    +0.000 A 
ATOM      3  C   UNL     1      46.184   6.503  11.299  0.00  0.00    +0.000 A 
ATOM      4  C   UNL     1      46.422   6.341  12.671  0.00  0.00    +0.000 A 
ATOM      5  C   UNL     1      46.099   5.117  13.269  0.00  0.00    +0.000 A 
ATOM      6  C   UNL     1      45.582   4.064  12.505  0.00  0.00    +0.000 A 
ENDROOT
BRANCH   1   7
ATOM      7  C   UNL     1      44.776   3.088  10.323  0.00  0.00    +0.000 C 
BRANCH   7  15
ATOM      8  C   UNL     1      46.985   1.665   6.780  0.00  0.00    +0.000 A 
ATOM      9  C   UNL     1      47.845   1.849   5.711  0.00  0.00    +0.000 A 
ATOM     10  C   UNL     1      47.652   3.160   5.223  0.00  0.00    +0.000 A 
ATOM     11  C   UNL     1      46.657   3.726   5.985  0.00  0.00    +0.000 A 
ATOM     12  N   UNL     1      46.279   2.840   6.986  0.00  0.00    +0.000 N 
ATOM     13  C   UNL     1      45.300   3.136   7.956  0.00  0.00    +0.000 C 
ATOM     14  O   UNL     1      44.344   3.832   7.647  0.00  0.00    +0.000 OA
ATOM     15  N   UNL     1      45.623   2.689   9.218  0.00  0.00    +0.000 N 
ATOM     16  H   UNL     1      46.542   2.323   9.434  0.00  0.00    +0.000 HD
BRANCH   8  18
ATOM     17  N   UNL     1      46.593  -0.548   8.049  0.00  0.00    +0.000 NA
ATOM     18  C   UNL     1      46.767   0.447   7.479  0.00  0.00    +0.000 C 
ENDBRANCH   8  18
ENDBRANCH   7  15
ENDBRANCH   1   7
BRANCH   4  19
ATOM     19  C   UNL     1      46.998   7.463  13.499  0.00  0.00    +0.000 C 
BRANCH  19  20
ATOM     20  N   UNL     1      47.594   6.981  14.716  0.00  0.00    +0.000 N 
ATOM     21  C   UNL     1      48.960   6.854  14.833  0.00  0.00    +0.000 C 
ATOM     22  O   UNL     1      49.705   6.998  13.866  0.00  0.00    +0.000 OA
ATOM     23  H   UNL     1      47.027   7.028  15.558  0.00  0.00    +0.000 HD
BRANCH  21  24
ATOM     24  C   UNL     1      49.486   6.537  16.161  0.00  0.00    +0.000 A 
ATOM     25  C   UNL     1      50.349   7.422  16.795  0.00  0.00    +0.000 A 
ATOM     26  S   UNL     1      50.792   6.935  18.370  0.00  0.00    +0.000 S 
ATOM     27  C   UNL     1      49.780   5.569  18.288  0.00  0.00    +0.000 A 
ATOM     28  N   UNL     1      49.597   4.767  19.370  0.00  0.00    +0.000 NA
ATOM     29  C   UNL     1      48.789   3.781  19.171  0.00  0.00    +0.000 A 
ATOM     30  N   UNL     1      48.180   3.499  17.975  0.00  0.00    +0.000 N 
ATOM     31  C   UNL     1      48.373   4.253  16.842  0.00  0.00    +0.000 A 
ATOM     32  O   UNL     1      47.895   3.917  15.763  0.00  0.00    +0.000 OA
ATOM     33  C   UNL     1      49.205   5.424  17.037  0.00  0.00    +0.000 A 
ATOM     34  H   UNL     1      47.603   2.676  17.869  0.00  0.00    +0.000 HD
ENDBRANCH  21  24
ENDBRANCH  19  20
ENDBRANCH   4  19
TORSDOF 6
ENDMDL
MODEL 3
REMARK VINA RESULT:    -6.858      1.886      2.572
REMARK INTER + INTRA:         -10.359
REMARK INTER:                  -9.422
REMARK INTRA:                  -0.937
REMARK UNBOUND:                -1.096
REMARK  Name = 
REMARK  6 active torsions:
REMARK  status: ('A' for Active; 'I' for Inactive)
REMARK    1  A    between atoms: C_2  and  C_3
REMARK    2  A    between atoms: N_10  and  C_11
REMARK    3  A    between atoms: C_11  and  C_12
REMARK    4  A    between atoms: C_15  and  C_16
REMARK    5  A    between atoms: C_16  and  N_17
REMARK    6  A    between atoms: C_18  and  C_20
REMARK                            x       y       z     vdW  Elec       q    Type
REMARK                         _______ _______ _______ _____ _____    ______ ____
ROOT
ATOM      1  C   UNL     1      50.177   7.088  15.945  0.00  0.00    +0.000 A 
ATOM      2  C   UNL     1      48.870   6.667  15.657  0.00  0.00    +0.000 A 
ATOM      3  C   UNL     1      48.298   6.918  14.403  0.00  0.00    +0.000 A 
ATOM      4  C   UNL     1      49.028   7.580  13.406  0.00  0.00    +0.000 A 
ATOM      5  C   UNL     1      50.325   8.015  13.701  0.00  0.00    +0.000 A 
ATOM      6  C   UNL     1      50.896   7.762  14.954  0.00  0.00    +0.000 A 
ENDROOT
BRANCH   1   7
ATOM      7  C   UNL     1      50.786   6.844  17.300  0.00  0.00    +0.000 C 
BRANCH   7  15
ATOM      8  C   UNL     1      52.726   2.955  18.061  0.00  0.00    +0.000 A 
ATOM      9  C   UNL     1      52.932   1.612  17.799  0.00  0.00    +0.000 A 
ATOM     10  C   UNL     1      51.702   1.061  17.377  0.00  0.00    +0.000 A 
ATOM     11  C   UNL     1      50.774   2.074  17.426  0.00  0.00    +0.000 A 
ATOM     12  N   UNL     1      51.401   3.260  17.786  0.00  0.00    +0.000 N 
ATOM     13  C   UNL     1      50.728   4.494  17.895  0.00  0.00    +0.000 C 
ATOM     14  O   UNL     1      49.571   4.510  18.289  0.00  0.00    +0.000 OA
ATOM     15  N   UNL     1      51.447   5.559  17.402  0.00  0.00    +0.000 N 
ATOM     16  H   UNL     1      52.305   5.426  16.881  0.00  0.00    +0.000 HD
BRANCH   8  18
ATOM     17  N   UNL     1      54.445   4.584  19.088  0.00  0.00    +0.000 NA
ATOM     18  C   UNL     1      53.671   3.853  18.628  0.00  0.00    +0.000 C 
ENDBRANCH   8  18
ENDBRANCH   7  15
ENDBRANCH   1   7
BRANCH   4  19
ATOM     19  C   UNL     1      48.430   7.840  12.045  0.00  0.00    +0.000 C 
BRANCH  19  20
ATOM     20  N   UNL     1      47.635   6.731  11.588  0.00  0.00    +0.000 N 
ATOM     21  C   UNL     1      46.279   6.865  11.391  0.00  0.00    +0.000 C 
ATOM     22  O   UNL     1      45.675   7.877  11.740  0.00  0.00    +0.000 OA
ATOM     23  H   UNL     1      48.129   5.965  11.137  0.00  0.00    +0.000 HD
BRANCH  21  24
ATOM     24  C   UNL     1      45.587   5.746  10.750  0.00  0.00    +0.000 A 
ATOM     25  C   UNL     1      45.803   5.477   9.404  0.00  0.00    +0.000 A 
ATOM     26  S   UNL     1      44.986   4.086   8.846  0.00  0.00    +0.000 S 
ATOM     27  C   UNL     1      44.386   3.751  10.403  0.00  0.00    +0.000 A 
ATOM     28  N   UNL     1      43.691   2.610  10.655  0.00  0.00    +0.000 NA
ATOM     29  C   UNL     1      43.314   2.475  11.881  0.00  0.00    +0.000 A 
ATOM     30  N   UNL     1      43.532   3.400  12.871  0.00  0.00    +0.000 N 
ATOM     31  C   UNL     1      44.187   4.589  12.652  0.00  0.00    +0.000 A 
ATOM     32  O   UNL     1      44.277   5.439  13.533  0.00  0.00    +0.000 OA
ATOM     33  C   UNL     1      44.706   4.748  11.308  0.00  0.00    +0.000 A 
ATOM     34  H   UNL     1      43.159   3.261  13.799  0.00  0.00    +0.000 HD
ENDBRANCH  21  24
ENDBRANCH  19  20
ENDBRANCH   4  19
TORSDOF 6
ENDMDL
MODEL 4
REMARK VINA RESULT:    -6.645      3.147      8.491
REMARK INTER + INTRA:         -10.072
REMARK INTER:                  -8.994
REMARK INTRA:                  -1.078
REMARK UNBOUND:                -1.096
REMARK  Name = 
REMARK  6 active torsions:
REMARK  status: ('A' for Active; 'I' for Inactive)
REMARK    1  A    between atoms: C_2  and  C_3
REMARK    2  A    between atoms: N_10  and  C_11
REMARK    3  A    between atoms: C_11  and  C_12
REMARK    4  A    between atoms: C_15  and  C_16
REMARK    5  A    between atoms: C_16  and  N_17
REMARK    6  A    between atoms: C_18  and  C_20
REMARK                            x       y       z     vdW  Elec       q    Type
REMARK                         _______ _______ _______ _____ _____    ______ ____
ROOT
ATOM      1  C   UNL     1      48.830   7.464  13.040  0.00  0.00    +0.000 A 
ATOM      2  C   UNL     1      50.041   8.164  12.923  0.00  0.00    +0.000 A 
ATOM      3  C   UNL     1      50.912   8.273  14.014  0.00  0.00    +0.000 A 
ATOM      4  C   UNL     1      50.599   7.670  15.240  0.00  0.00    +0.000 A 
ATOM      5  C   UNL     1      49.383   6.987  15.361  0.00  0.00    +0.000 A 
ATOM      6  C   UNL     1      48.514   6.878  14.269  0.00  0.00    +0.000 A 
ENDROOT
BRANCH   1   7
ATOM      7  C   UNL     1      47.878   7.367  11.878  0.00  0.00    +0.000 C 
BRANCH   7  15
ATOM      8  C   UNL     1      45.159   3.956  12.536  0.00  0.00    +0.000 A 
ATOM      9  C   UNL     1      44.098   3.143  12.178  0.00  0.00    +0.000 A 
ATOM     10  C   UNL     1      43.138   3.948  11.528  0.00  0.00    +0.000 A 
ATOM     11  C   UNL     1      43.624   5.234  11.537  0.00  0.00    +0.000 A 
ATOM     12  N   UNL     1      44.894   5.245  12.099  0.00  0.00    +0.000 N 
ATOM     13  C   UNL     1      45.677   6.410  12.226  0.00  0.00    +0.000 C 
ATOM     14  O   UNL     1      45.127   7.479  12.444  0.00  0.00    +0.000 OA
ATOM     15  N   UNL     1      47.011   6.209  11.950  0.00  0.00    +0.000 N 
ATOM     16  H   UNL     1      47.347   5.341  11.552  0.00  0.00    +0.000 HD
BRANCH   8  18
ATOM     17  N   UNL     1      47.195   3.257  13.960  0.00  0.00    +0.000 NA
ATOM     18  C   UNL     1      46.280   3.573  13.320  0.00  0.00    +0.000 C 
ENDBRANCH   8  18
ENDBRANCH   7  15
ENDBRANCH   1   7
BRANCH   4  19
ATOM     19  C   UNL     1      51.538   7.764  16.417  0.00  0.00    +0.000 C 
BRANCH  19  20
ATOM     20  N   UNL     1      52.272   6.543  16.618  0.00  0.00    +0.000 N 
ATOM     21  C   UNL     1      52.318   5.940  17.855  0.00  0.00    +0.000 C 
ATOM     22  O   UNL     1      51.870   6.493  18.857  0.00  0.00    +0.000 OA
ATOM     23  H   UNL     1      52.489   5.995  15.790  0.00  0.00    +0.000 HD
BRANCH  21  24
ATOM     24  C   UNL     1      52.927   4.611  17.923  0.00  0.00    +0.000 A 
ATOM     25  C   UNL     1      54.267   4.480  18.265  0.00  0.00    +0.000 A 
ATOM     26  S   UNL     1      54.787   2.859  18.383  0.00  0.00    +0.000 S 
ATOM     27  C   UNL     1      53.219   2.279  18.063  0.00  0.00    +0.000 A 
ATOM     28  N   UNL     1      52.935   0.951  18.134  0.00  0.00    +0.000 NA
ATOM     29  C   UNL     1      51.704   0.656  17.887  0.00  0.00    +0.000 A 
ATOM     30  N   UNL     1      50.738   1.565  17.535  0.00  0.00    +0.000 N 
ATOM     31  C   UNL     1      50.990   2.911  17.405  0.00  0.00    +0.000 A 
ATOM     32  O   UNL     1      50.131   3.683  16.990  0.00  0.00    +0.000 OA
ATOM     33  C   UNL     1      52.340   3.304  17.756  0.00  0.00    +0.000 A 
ATOM     34  H   UNL     1      49.805   1.262  17.297  0.00  0.00    +0.000 HD
ENDBRANCH  21  24
ENDBRANCH  19  20
ENDBRANCH   4  19
TORSDOF 6
ENDMDL
MODEL 5
REMARK VINA RESULT:    -6.500      4.320      9.271
REMARK INTER + INTRA:          -9.876
REMARK INTER:                  -8.853
REMARK INTRA:                  -1.022
REMARK UNBOUND:                -1.096
REMARK  Name = 
REMARK  6 active torsions:
REMARK  status: ('A' for Active; 'I' for Inactive)
REMARK    1  A    between atoms: C_2  and  C_3
REMARK    2  A    between atoms: N_10  and  C_11
REMARK    3  A    between atoms: C_11  and  C_12
REMARK    4  A    between atoms: C_15  and  C_16
REMARK    5  A    between atoms: C_16  and  N_17
REMARK    6  A    between atoms: C_18  and  C_20
REMARK                            x       y       z     vdW  Elec       q    Type
REMARK                         _______ _______ _______ _____ _____    ______ ____
ROOT
ATOM      1  C   UNL     1      45.527   3.982  11.528  0.00  0.00    +0.000 A 
ATOM      2  C   UNL     1      45.988   3.636  12.807  0.00  0.00    +0.000 A 
ATOM      3  C   UNL     1      46.618   4.587  13.621  0.00  0.00    +0.000 A 
ATOM      4  C   UNL     1      46.785   5.907  13.178  0.00  0.00    +0.000 A 
ATOM      5  C   UNL     1      46.341   6.245  11.894  0.00  0.00    +0.000 A 
ATOM      6  C   UNL     1      45.710   5.294  11.083  0.00  0.00    +0.000 A 
ENDROOT
BRANCH   1   7
ATOM      7  C   UNL     1      44.873   2.957  10.640  0.00  0.00    +0.000 C 
BRANCH   7  15
ATOM      8  C   UNL     1      46.921   1.753   6.922  0.00  0.00    +0.000 A 
ATOM      9  C   UNL     1      47.735   2.001   5.831  0.00  0.00    +0.000 A 
ATOM     10  C   UNL     1      47.527   3.340   5.435  0.00  0.00    +0.000 A 
ATOM     11  C   UNL     1      46.569   3.860   6.272  0.00  0.00    +0.000 A 
ATOM     12  N   UNL     1      46.230   2.914   7.232  0.00  0.00    +0.000 N 
ATOM     13  C   UNL     1      45.295   3.151   8.260  0.00  0.00    +0.000 C 
ATOM     14  O   UNL     1      44.330   3.867   8.036  0.00  0.00    +0.000 OA
ATOM     15  N   UNL     1      45.669   2.626   9.476  0.00  0.00    +0.000 N 
ATOM     16  H   UNL     1      46.595   2.245   9.629  0.00  0.00    +0.000 HD
BRANCH   8  18
ATOM     17  N   UNL     1      46.572  -0.535   8.066  0.00  0.00    +0.000 NA
ATOM     18  C   UNL     1      46.727   0.494   7.553  0.00  0.00    +0.000 C 
ENDBRANCH   8  18
ENDBRANCH   7  15
ENDBRANCH   1   7
BRANCH   4  19
ATOM     19  C   UNL     1      47.445   6.944  14.052  0.00  0.00    +0.000 C 
BRANCH  19  20
ATOM     20  N   UNL     1      47.838   6.401  15.325  0.00  0.00    +0.000 N 
ATOM     21  C   UNL     1      49.150   6.453  15.743  0.00  0.00    +0.000 C 
ATOM     22  O   UNL     1      50.050   6.819  14.991  0.00  0.00    +0.000 OA
ATOM     23  H   UNL     1      47.104   6.263  16.014  0.00  0.00    +0.000 HD
BRANCH  21  24
ATOM     24  C   UNL     1      49.424   6.048  17.122  0.00  0.00    +0.000 A 
ATOM     25  C   UNL     1      50.170   4.903  17.374  0.00  0.00    +0.000 A 
ATOM     26  S   UNL     1      50.466   4.632  19.032  0.00  0.00    +0.000 S 
ATOM     27  C   UNL     1      49.679   6.079  19.463  0.00  0.00    +0.000 A 
ATOM     28  N   UNL     1      49.675   6.517  20.749  0.00  0.00    +0.000 NA
ATOM     29  C   UNL     1      49.060   7.637  20.928  0.00  0.00    +0.000 A 
ATOM     30  N   UNL     1      48.411   8.338  19.943  0.00  0.00    +0.000 N 
ATOM     31  C   UNL     1      48.348   7.908  18.638  0.00  0.00    +0.000 A 
ATOM     32  O   UNL     1      47.675   8.504  17.803  0.00  0.00    +0.000 OA
ATOM     33  C   UNL     1      49.098   6.698  18.369  0.00  0.00    +0.000 A 
ATOM     34  H   UNL     1      47.897   9.180  20.160  0.00  0.00    +0.000 HD
ENDBRANCH  21  24
ENDBRANCH  19  20
ENDBRANCH   4  19
TORSDOF 6
ENDMDL
MODEL 6
REMARK VINA RESULT:    -6.446      3.178      8.033
REMARK INTER + INTRA:          -9.803
REMARK INTER:                  -9.013
REMARK INTRA:                  -0.790
REMARK UNBOUND:                -1.096
REMARK  Name = 
REMARK  6 active torsions:
REMARK  status: ('A' for Active; 'I' for Inactive)
REMARK    1  A    between atoms: C_2  and  C_3
REMARK    2  A    between atoms: N_10  and  C_11
REMARK    3  A    between atoms: C_11  and  C_12
REMARK    4  A    between atoms: C_15  and  C_16
REMARK    5  A    between atoms: C_16  and  N_17
REMARK    6  A    between atoms: C_18  and  C_20
REMARK                            x       y       z     vdW  Elec       q    Type
REMARK                         _______ _______ _______ _____ _____    ______ ____
ROOT
ATOM      1  C   UNL     1      46.590   8.199  12.202  0.00  0.00    +0.000 A 
ATOM      2  C   UNL     1      46.833   8.849  13.422  0.00  0.00    +0.000 A 
ATOM      3  C   UNL     1      48.125   8.895  13.962  0.00  0.00    +0.000 A 
ATOM      4  C   UNL     1      49.202   8.305  13.286  0.00  0.00    +0.000 A 
ATOM      5  C   UNL     1      48.954   7.641  12.079  0.00  0.00    +0.000 A 
ATOM      6  C   UNL     1      47.664   7.598  11.539  0.00  0.00    +0.000 A 
ENDROOT
BRANCH   1   7
ATOM      7  C   UNL     1      45.199   8.124  11.630  0.00  0.00    +0.000 C 
BRANCH   7  15
ATOM      8  C   UNL     1      44.564   3.967  10.299  0.00  0.00    +0.000 A 
ATOM      9  C   UNL     1      43.861   2.775  10.282  0.00  0.00    +0.000 A 
ATOM     10  C   UNL     1      43.306   2.584  11.566  0.00  0.00    +0.000 A 
ATOM     11  C   UNL     1      43.713   3.646  12.338  0.00  0.00    +0.000 A 
ATOM     12  N   UNL     1      44.437   4.537  11.556  0.00  0.00    +0.000 N 
ATOM     13  C   UNL     1      44.969   5.746  12.046  0.00  0.00    +0.000 C 
ATOM     14  O   UNL     1      45.370   5.799  13.200  0.00  0.00    +0.000 OA
ATOM     15  N   UNL     1      44.847   6.798  11.166  0.00  0.00    +0.000 N 
ATOM     16  H   UNL     1      44.294   6.723  10.322  0.00  0.00    +0.000 HD
BRANCH   8  18
ATOM     17  N   UNL     1      46.045   4.883   8.393  0.00  0.00    +0.000 NA
ATOM     18  C   UNL     1      45.379   4.473   9.250  0.00  0.00    +0.000 C 
ENDBRANCH   8  18
ENDBRANCH   7  15
ENDBRANCH   1   7
BRANCH   4  19
ATOM     19  C   UNL     1      50.601   8.363  13.849  0.00  0.00    +0.000 C 
BRANCH  19  20
ATOM     20  N   UNL     1      50.835   7.323  14.814  0.00  0.00    +0.000 N 
ATOM     21  C   UNL     1      50.676   7.559  16.162  0.00  0.00    +0.000 C 
ATOM     22  O   UNL     1      50.483   8.691  16.599  0.00  0.00    +0.000 OA
ATOM     23  H   UNL     1      50.819   6.365  14.474  0.00  0.00    +0.000 HD
BRANCH  21  24
ATOM     24  C   UNL     1      50.753   6.399  17.052  0.00  0.00    +0.000 A 
ATOM     25  C   UNL     1      51.804   6.285  17.953  0.00  0.00    +0.000 A 
ATOM     26  S   UNL     1      51.687   4.920  18.970  0.00  0.00    +0.000 S 
ATOM     27  C   UNL     1      50.186   4.483  18.298  0.00  0.00    +0.000 A 
ATOM     28  N   UNL     1      49.464   3.450  18.807  0.00  0.00    +0.000 NA
ATOM     29  C   UNL     1      48.337   3.243  18.213  0.00  0.00    +0.000 A 
ATOM     30  N   UNL     1      47.885   3.950  17.128  0.00  0.00    +0.000 N 
ATOM     31  C   UNL     1      48.602   4.971  16.550  0.00  0.00    +0.000 A 
ATOM     32  O   UNL     1      48.219   5.516  15.519  0.00  0.00    +0.000 OA
ATOM     33  C   UNL     1      49.837   5.298  17.235  0.00  0.00    +0.000 A 
ATOM     34  H   UNL     1      47.020   3.700  16.672  0.00  0.00    +0.000 HD
ENDBRANCH  21  24
ENDBRANCH  19  20
ENDBRANCH   4  19
TORSDOF 6
ENDMDL
MODEL 7
REMARK VINA RESULT:    -6.410      5.662      9.130
REMARK INTER + INTRA:          -9.754
REMARK INTER:                  -8.796
REMARK INTRA:                  -0.957
REMARK UNBOUND:                -1.096
REMARK  Name = 
REMARK  6 active torsions:
REMARK  status: ('A' for Active; 'I' for Inactive)
REMARK    1  A    between atoms: C_2  and  C_3
REMARK    2  A    between atoms: N_10  and  C_11
REMARK    3  A    between atoms: C_11  and  C_12
REMARK    4  A    between atoms: C_15  and  C_16
REMARK    5  A    between atoms: C_16  and  N_17
REMARK    6  A    between atoms: C_18  and  C_20
REMARK                            x       y       z     vdW  Elec       q    Type
REMARK                         _______ _______ _______ _____ _____    ______ ____
ROOT
ATOM      1  C   UNL     1      47.162   6.961  12.828  0.00  0.00    +0.000 A 
ATOM      2  C   UNL     1      47.119   8.322  12.486  0.00  0.00    +0.000 A 
ATOM      3  C   UNL     1      48.294   9.016  12.169  0.00  0.00    +0.000 A 
ATOM      4  C   UNL     1      49.533   8.360  12.172  0.00  0.00    +0.000 A 
ATOM      5  C   UNL     1      49.576   7.008  12.530  0.00  0.00    +0.000 A 
ATOM      6  C   UNL     1      48.401   6.315  12.845  0.00  0.00    +0.000 A 
ENDROOT
BRANCH   1   7
ATOM      7  C   UNL     1      45.905   6.218  13.195  0.00  0.00    +0.000 C 
BRANCH   7  15
ATOM      8  C   UNL     1      44.484   3.147  10.364  0.00  0.00    +0.000 A 
ATOM      9  C   UNL     1      44.578   2.418   9.192  0.00  0.00    +0.000 A 
ATOM     10  C   UNL     1      45.121   3.264   8.200  0.00  0.00    +0.000 A 
ATOM     11  C   UNL     1      45.311   4.493   8.786  0.00  0.00    +0.000 A 
ATOM     12  N   UNL     1      44.981   4.421  10.133  0.00  0.00    +0.000 N 
ATOM     13  C   UNL     1      45.096   5.509  11.022  0.00  0.00    +0.000 C 
ATOM     14  O   UNL     1      44.882   6.640  10.611  0.00  0.00    +0.000 OA
ATOM     15  N   UNL     1      45.580   5.159  12.262  0.00  0.00    +0.000 N 
ATOM     16  H   UNL     1      45.952   4.235  12.446  0.00  0.00    +0.000 HD
BRANCH   8  18
ATOM     17  N   UNL     1      43.380   2.363  12.562  0.00  0.00    +0.000 NA
ATOM     18  C   UNL     1      43.875   2.714  11.573  0.00  0.00    +0.000 C 
ENDBRANCH   8  18
ENDBRANCH   7  15
ENDBRANCH   1   7
BRANCH   4  19
ATOM     19  C   UNL     1      50.803   9.093  11.814  0.00  0.00    +0.000 C 
BRANCH  19  20
ATOM     20  N   UNL     1      51.409   8.565  10.621  0.00  0.00    +0.000 N 
ATOM     21  C   UNL     1      52.650   7.969  10.663  0.00  0.00    +0.000 C 
ATOM     22  O   UNL     1      53.346   8.002  11.675  0.00  0.00    +0.000 OA
ATOM     23  H   UNL     1      50.793   8.372   9.837  0.00  0.00    +0.000 HD
BRANCH  21  24
ATOM     24  C   UNL     1      53.105   7.297   9.445  0.00  0.00    +0.000 A 
ATOM     25  C   UNL     1      53.386   5.936   9.467  0.00  0.00    +0.000 A 
ATOM     26  S   UNL     1      53.817   5.303   7.943  0.00  0.00    +0.000 S 
ATOM     27  C   UNL     1      53.562   6.807   7.188  0.00  0.00    +0.000 A 
ATOM     28  N   UNL     1      53.643   6.935   5.837  0.00  0.00    +0.000 NA
ATOM     29  C   UNL     1      53.406   8.126   5.400  0.00  0.00    +0.000 A 
ATOM     30  N   UNL     1      53.138   9.210   6.195  0.00  0.00    +0.000 N 
ATOM     31  C   UNL     1      53.093   9.138   7.568  0.00  0.00    +0.000 A 
ATOM     32  O   UNL     1      52.952  10.145   8.255  0.00  0.00    +0.000 OA
ATOM     33  C   UNL     1      53.267   7.803   8.103  0.00  0.00    +0.000 A 
ATOM     34  H   UNL     1      53.020  10.130   5.794  0.00  0.00    +0.000 HD
ENDBRANCH  21  24
ENDBRANCH  19  20
ENDBRANCH   4  19
TORSDOF 6
ENDMDL
MODEL 8
REMARK VINA RESULT:    -6.395      6.029      8.989
REMARK INTER + INTRA:          -9.733
REMARK INTER:                  -8.929
REMARK INTRA:                  -0.804
REMARK UNBOUND:                -1.096
REMARK  Name = 
REMARK  6 active torsions:
REMARK  status: ('A' for Active; 'I' for Inactive)
REMARK    1  A    between atoms: C_2  and  C_3
REMARK    2  A    between atoms: N_10  and  C_11
REMARK    3  A    between atoms: C_11  and  C_12
REMARK    4  A    between atoms: C_15  and  C_16
REMARK    5  A    between atoms: C_16  and  N_17
REMARK    6  A    between atoms: C_18  and  C_20
REMARK                            x       y       z     vdW  Elec       q    Type
REMARK                         _______ _______ _______ _____ _____    ______ ____
ROOT
ATOM      1  C   UNL     1      47.131   8.185  12.290  0.00  0.00    +0.000 A 
ATOM      2  C   UNL     1      47.419   9.544  12.091  0.00  0.00    +0.000 A 
ATOM      3  C   UNL     1      48.699   9.952  11.693  0.00  0.00    +0.000 A 
ATOM      4  C   UNL     1      49.712   9.008  11.471  0.00  0.00    +0.000 A 
ATOM      5  C   UNL     1      49.427   7.655  11.689  0.00  0.00    +0.000 A 
ATOM      6  C   UNL     1      48.147   7.249  12.084  0.00  0.00    +0.000 A 
ENDROOT
BRANCH   1   7
ATOM      7  C   UNL     1      45.764   7.745  12.744  0.00  0.00    +0.000 C 
BRANCH   7  15
ATOM      8  C   UNL     1      44.687   4.076  10.542  0.00  0.00    +0.000 A 
ATOM      9  C   UNL     1      43.886   2.972  10.311  0.00  0.00    +0.000 A 
ATOM     10  C   UNL     1      43.408   2.517  11.559  0.00  0.00    +0.000 A 
ATOM     11  C   UNL     1      43.957   3.334  12.518  0.00  0.00    +0.000 A 
ATOM     12  N   UNL     1      44.698   4.336  11.904  0.00  0.00    +0.000 N 
ATOM     13  C   UNL     1      45.363   5.356  12.614  0.00  0.00    +0.000 C 
ATOM     14  O   UNL     1      45.848   5.105  13.707  0.00  0.00    +0.000 OA
ATOM     15  N   UNL     1      45.270   6.593  12.017  0.00  0.00    +0.000 N 
ATOM     16  H   UNL     1      44.654   6.759  11.230  0.00  0.00    +0.000 HD
BRANCH   8  18
ATOM     17  N   UNL     1      46.103   5.321   8.780  0.00  0.00    +0.000 NA
ATOM     18  C   UNL     1      45.466   4.764   9.573  0.00  0.00    +0.000 C 
ENDBRANCH   8  18
ENDBRANCH   7  15
ENDBRANCH   1   7
BRANCH   4  19
ATOM     19  C   UNL     1      51.089   9.433  11.025  0.00  0.00    +0.000 C 
BRANCH  19  20
ATOM     20  N   UNL     1      51.908   8.307  10.664  0.00  0.00    +0.000 N 
ATOM     21  C   UNL     1      52.833   8.401   9.648  0.00  0.00    +0.000 C 
ATOM     22  O   UNL     1      52.888   9.388   8.917  0.00  0.00    +0.000 OA
ATOM     23  H   UNL     1      52.001   7.565  11.352  0.00  0.00    +0.000 HD
BRANCH  21  24
ATOM     24  C   UNL     1      53.747   7.271   9.476  0.00  0.00    +0.000 A 
ATOM     25  C   UNL     1      54.700   6.996  10.448  0.00  0.00    +0.000 A 
ATOM     26  S   UNL     1      55.619   5.594  10.127  0.00  0.00    +0.000 S 
ATOM     27  C   UNL     1      54.717   5.262   8.722  0.00  0.00    +0.000 A 
ATOM     28  N   UNL     1      54.913   4.116   8.019  0.00  0.00    +0.000 NA
ATOM     29  C   UNL     1      54.146   3.986   6.989  0.00  0.00    +0.000 A 
ATOM     30  N   UNL     1      53.230   4.918   6.574  0.00  0.00    +0.000 N 
ATOM     31  C   UNL     1      53.031   6.113   7.226  0.00  0.00    +0.000 A 
ATOM     32  O   UNL     1      52.279   6.969   6.773  0.00  0.00    +0.000 OA
ATOM     33  C   UNL     1      53.808   6.268   8.440  0.00  0.00    +0.000 A 
ATOM     34  H   UNL     1      52.702   4.782   5.724  0.00  0.00    +0.000 HD
ENDBRANCH  21  24
ENDBRANCH  19  20
ENDBRANCH   4  19
TORSDOF 6
ENDMDL
MODEL 9
REMARK VINA RESULT:    -6.136      2.277      2.947
REMARK INTER + INTRA:          -9.384
REMARK INTER:                  -8.454
REMARK INTRA:                  -0.930
REMARK UNBOUND:                -1.096
REMARK  Name = 
REMARK  6 active torsions:
REMARK  status: ('A' for Active; 'I' for Inactive)
REMARK    1  A    between atoms: C_2  and  C_3
REMARK    2  A    between atoms: N_10  and  C_11
REMARK    3  A    between atoms: C_11  and  C_12
REMARK    4  A    between atoms: C_15  and  C_16
REMARK    5  A    between atoms: C_16  and  N_17
REMARK    6  A    between atoms: C_18  and  C_20
REMARK                            x       y       z     vdW  Elec       q    Type
REMARK                         _______ _______ _______ _____ _____    ______ ____
ROOT
ATOM      1  C   UNL     1      50.428   8.042  15.286  0.00  0.00    +0.000 A 
ATOM      2  C   UNL     1      49.370   7.130  15.425  0.00  0.00    +0.000 A 
ATOM      3  C   UNL     1      48.307   7.125  14.513  0.00  0.00    +0.000 A 
ATOM      4  C   UNL     1      48.288   8.020  13.434  0.00  0.00    +0.000 A 
ATOM      5  C   UNL     1      49.335   8.941  13.308  0.00  0.00    +0.000 A 
ATOM      6  C   UNL     1      50.397   8.944  14.220  0.00  0.00    +0.000 A 
ENDROOT
BRANCH   1   7
ATOM      7  C   UNL     1      51.559   8.068  16.280  0.00  0.00    +0.000 C 
BRANCH   7  15
ATOM      8  C   UNL     1      52.195   3.988  17.833  0.00  0.00    +0.000 A 
ATOM      9  C   UNL     1      52.858   3.060  18.616  0.00  0.00    +0.000 A 
ATOM     10  C   UNL     1      54.222   3.426  18.656  0.00  0.00    +0.000 A 
ATOM     11  C   UNL     1      54.357   4.545  17.869  0.00  0.00    +0.000 A 
ATOM     12  N   UNL     1      53.108   4.939  17.405  0.00  0.00    +0.000 N 
ATOM     13  C   UNL     1      52.903   6.075  16.595  0.00  0.00    +0.000 C 
ATOM     14  O   UNL     1      53.757   6.390  15.780  0.00  0.00    +0.000 OA
ATOM     15  N   UNL     1      51.775   6.790  16.927  0.00  0.00    +0.000 N 
ATOM     16  H   UNL     1      51.245   6.590  17.766  0.00  0.00    +0.000 HD
BRANCH   8  18
ATOM     17  N   UNL     1      49.723   3.869  17.098  0.00  0.00    +0.000 NA
ATOM     18  C   UNL     1      50.833   3.923  17.430  0.00  0.00    +0.000 C 
ENDBRANCH   8  18
ENDBRANCH   7  15
ENDBRANCH   1   7
BRANCH   4  19
ATOM     19  C   UNL     1      47.158   8.012  12.435  0.00  0.00    +0.000 C 
BRANCH  19  20
ATOM     20  N   UNL     1      46.541   6.716  12.333  0.00  0.00    +0.000 N 
ATOM     21  C   UNL     1      45.315   6.561  11.725  0.00  0.00    +0.000 C 
ATOM     22  O   UNL     1      44.637   7.529  11.388  0.00  0.00    +0.000 OA
ATOM     23  H   UNL     1      47.148   5.907  12.439  0.00  0.00    +0.000 HD
BRANCH  21  24
ATOM     24  C   UNL     1      44.854   5.190  11.501  0.00  0.00    +0.000 A 
ATOM     25  C   UNL     1      44.153   4.523  12.497  0.00  0.00    +0.000 A 
ATOM     26  S   UNL     1      43.617   2.971  12.033  0.00  0.00    +0.000 S 
ATOM     27  C   UNL     1      44.231   3.173  10.458  0.00  0.00    +0.000 A 
ATOM     28  N   UNL     1      44.003   2.243   9.493  0.00  0.00    +0.000 NA
ATOM     29  C   UNL     1      44.509   2.535   8.343  0.00  0.00    +0.000 A 
ATOM     30  N   UNL     1      45.258   3.653   8.080  0.00  0.00    +0.000 N 
ATOM     31  C   UNL     1      45.554   4.597   9.036  0.00  0.00    +0.000 A 
ATOM     32  O   UNL     1      46.311   5.532   8.796  0.00  0.00    +0.000 OA
ATOM     33  C   UNL     1      44.936   4.357  10.325  0.00  0.00    +0.000 A 
ATOM     34  H   UNL     1      45.676   3.795   7.171  0.00  0.00    +0.000 HD
ENDBRANCH  21  24
ENDBRANCH  19  20
ENDBRANCH   4  19
TORSDOF 6
ENDMDL
