MODEL 1
REMARK VINA RESULT:    -7.568      0.000      0.000
REMARK INTER + INTRA:         -12.046
REMARK INTER:                 -10.886
REMARK INTRA:                  -1.160
REMARK UNBOUND:                -1.160
REMARK  Name = 
REMARK  8 active torsions:
REMARK  status: ('A' for Active; 'I' for Inactive)
REMARK    1  A    between atoms: N_1  and  C_2
REMARK    2  A    between atoms: C_2  and  C_3
REMARK    3  A    between atoms: C_3  and  N_4
REMARK    4  A    between atoms: C_3  and  C_17
REMARK    5  A    between atoms: C_5  and  C_7
REMARK    6  A    between atoms: C_20  and  C_21
REMARK    7  A    between atoms: C_21  and  N_22
REMARK    8  A    between atoms: N_22  and  C_23
REMARK                            x       y       z     vdW  Elec       q    Type
REMARK                         _______ _______ _______ _____ _____    ______ ____
ROOT
ATOM      1  C   UNL     1      48.695   5.837  17.335  0.00  0.00    +0.000 C 
ENDROOT
BRANCH   1   2
ATOM      2  C   UNL     1      49.555   4.574  17.394  0.00  0.00    +0.000 A 
ATOM      3  C   UNL     1      50.936   4.672  17.634  0.00  0.00    +0.000 A 
ATOM      4  C   UNL     1      51.745   3.527  17.681  0.00  0.00    +0.000 A 
ATOM      5  C   UNL     1      51.194   2.256  17.479  0.00  0.00    +0.000 A 
ATOM      6  C   UNL     1      49.823   2.156  17.223  0.00  0.00    +0.000 A 
ATOM      7  C   UNL     1      49.021   3.296  17.165  0.00  0.00    +0.000 A 
BRANCH   5   8
ATOM      8  C   UNL     1      52.047   1.011  17.448  0.00  0.00    +0.000 C 
BRANCH   8   9
ATOM      9  N   UNL     1      52.969   0.915  18.579  0.00  0.00    +0.000 NA
ATOM     10  H   UNL     1      52.762   0.086  19.136  0.00  0.00    +0.000 HD
BRANCH   9  11
ATOM     11  C   UNL     1      54.375   0.910  18.139  0.00  0.00    +0.000 C 
ATOM     12  C   UNL     1      54.655   0.074  16.901  0.00  0.00    +0.000 C 
ATOM     13  C   UNL     1      54.893  -1.317  17.445  0.00  0.00    +0.000 C 
ATOM     14  O   UNL     1      55.376  -1.174  18.783  0.00  0.00    +0.000 OA
ATOM     15  C   UNL     1      55.280   0.210  19.159  0.00  0.00    +0.000 C 
ENDBRANCH   9  11
ENDBRANCH   8   9
ENDBRANCH   5   8
ENDBRANCH   1   2
BRANCH   1  16
ATOM     16  N   UNL     1      47.889   5.785  16.123  0.00  0.00    +0.000 N 
ATOM     17  C   UNL     1      48.325   6.223  14.900  0.00  0.00    +0.000 C 
ATOM     18  O   UNL     1      49.471   6.598  14.693  0.00  0.00    +0.000 OA
ATOM     19  H   UNL     1      46.906   5.589  16.262  0.00  0.00    +0.000 HD
BRANCH  17  20
ATOM     20  C   UNL     1      47.329   6.188  13.821  0.00  0.00    +0.000 A 
ATOM     21  C   UNL     1      46.916   7.372  13.224  0.00  0.00    +0.000 A 
ATOM     22  S   UNL     1      45.790   7.142  11.965  0.00  0.00    +0.000 S 
ATOM     23  C   UNL     1      45.770   5.460  12.212  0.00  0.00    +0.000 A 
ATOM     24  N   UNL     1      44.976   4.653  11.460  0.00  0.00    +0.000 NA
ATOM     25  C   UNL     1      45.031   3.402  11.777  0.00  0.00    +0.000 A 
ATOM     26  N   UNL     1      45.808   2.885  12.784  0.00  0.00    +0.000 N 
ATOM     27  C   UNL     1      46.656   3.655  13.541  0.00  0.00    +0.000 A 
ATOM     28  O   UNL     1      47.385   3.151  14.388  0.00  0.00    +0.000 OA
ATOM     29  C   UNL     1      46.622   5.074  13.230  0.00  0.00    +0.000 A 
ATOM     30  H   UNL     1      45.812   1.893  12.972  0.00  0.00    +0.000 HD
ENDBRANCH  17  20
ENDBRANCH   1  16
BRANCH   1  31
ATOM     31  C   UNL     1      47.801   6.008  18.608  0.00  0.00    +0.000 C 
BRANCH  31  32
ATOM     32  N   UNL     1      46.465   5.411  18.545  0.00  0.00    +0.000 NA
ATOM     33  H   UNL     1      45.785   6.131  18.311  0.00  0.00    +0.000 HD
ATOM     34  H   UNL     1      46.210   5.057  19.467  0.00  0.00    +0.000 HD
ENDBRANCH  31  32
ENDBRANCH   1  31
TORSDOF 8
ENDMDL
MODEL 2
REMARK VINA RESULT:    -7.305      4.280      8.497
REMARK INTER + INTRA:         -11.668
REMARK INTER:                 -10.912
REMARK INTRA:                  -0.756
REMARK UNBOUND:                -1.160
REMARK  Name = 
REMARK  8 active torsions:
REMARK  status: ('A' for Active; 'I' for Inactive)
REMARK    1  A    between atoms: N_1  and  C_2
REMARK    2  A    between atoms: C_2  and  C_3
REMARK    3  A    between atoms: C_3  and  N_4
REMARK    4  A    between atoms: C_3  and  C_17
REMARK    5  A    between atoms: C_5  and  C_7
REMARK    6  A    between atoms: C_20  and  C_21
REMARK    7  A    between atoms: C_21  and  N_22
REMARK    8  A    between atoms: N_22  and  C_23
REMARK                            x       y       z     vdW  Elec       q    Type
REMARK                         _______ _______ _______ _____ _____    ______ ____
ROOT
ATOM      1  C   UNL     1      46.586   8.160  13.096  0.00  0.00    +0.000 C 
ENDROOT
BRANCH   1   2
ATOM      2  C   UNL     1      45.917   6.977  12.393  0.00  0.00    +0.000 A 
ATOM      3  C   UNL     1      44.989   6.180  13.084  0.00  0.00    +0.000 A 
ATOM      4  C   UNL     1      44.373   5.084  12.463  0.00  0.00    +0.000 A 
ATOM      5  C   UNL     1      44.677   4.753  11.137  0.00  0.00    +0.000 A 
ATOM      6  C   UNL     1      45.611   5.534  10.451  0.00  0.00    +0.000 A 
ATOM      7  C   UNL     1      46.233   6.617  11.074  0.00  0.00    +0.000 A 
BRANCH   5   8
ATOM      8  C   UNL     1      44.088   3.537  10.463  0.00  0.00    +0.000 C 
BRANCH   8   9
ATOM      9  N   UNL     1      45.091   2.544  10.082  0.00  0.00    +0.000 NA
ATOM     10  H   UNL     1      45.029   1.727  10.689  0.00  0.00    +0.000 HD
BRANCH   9  11
ATOM     11  C   UNL     1      44.965   2.155   8.666  0.00  0.00    +0.000 C 
ATOM     12  C   UNL     1      46.242   1.629   8.032  0.00  0.00    +0.000 C 
ATOM     13  C   UNL     1      46.953   2.874   7.554  0.00  0.00    +0.000 C 
ATOM     14  O   UNL     1      45.954   3.867   7.307  0.00  0.00    +0.000 OA
ATOM     15  C   UNL     1      44.689   3.369   7.773  0.00  0.00    +0.000 C 
ENDBRANCH   9  11
ENDBRANCH   8   9
ENDBRANCH   5   8
ENDBRANCH   1   2
BRANCH   1  16
ATOM     16  N   UNL     1      47.249   7.663  14.294  0.00  0.00    +0.000 N 
ATOM     17  C   UNL     1      48.277   6.758  14.275  0.00  0.00    +0.000 C 
ATOM     18  O   UNL     1      48.804   6.365  13.243  0.00  0.00    +0.000 OA
ATOM     19  H   UNL     1      46.782   7.870  15.168  0.00  0.00    +0.000 HD
BRANCH  17  20
ATOM     20  C   UNL     1      48.742   6.297  15.590  0.00  0.00    +0.000 A 
ATOM     21  C   UNL     1      49.714   7.018  16.270  0.00  0.00    +0.000 A 
ATOM     22  S   UNL     1      50.103   6.363  17.796  0.00  0.00    +0.000 S 
ATOM     23  C   UNL     1      49.029   5.063  17.575  0.00  0.00    +0.000 A 
ATOM     24  N   UNL     1      48.895   4.099  18.525  0.00  0.00    +0.000 NA
ATOM     25  C   UNL     1      48.075   3.152  18.214  0.00  0.00    +0.000 A 
ATOM     26  N   UNL     1      47.378   3.079  17.034  0.00  0.00    +0.000 N 
ATOM     27  C   UNL     1      47.450   4.049  16.064  0.00  0.00    +0.000 A 
ATOM     28  O   UNL     1      46.763   3.985  15.051  0.00  0.00    +0.000 OA
ATOM     29  C   UNL     1      48.370   5.133  16.363  0.00  0.00    +0.000 A 
ATOM     30  H   UNL     1      46.743   2.314  16.858  0.00  0.00    +0.000 HD
ENDBRANCH  17  20
ENDBRANCH   1  16
BRANCH   1  31
ATOM     31  C   UNL     1      47.587   8.916  12.162  0.00  0.00    +0.000 C 
BRANCH  31  32
ATOM     32  N   UNL     1      47.897  10.300  12.531  0.00  0.00    +0.000 NA
ATOM     33  H   UNL     1      48.727  10.605  12.027  0.00  0.00    +0.000 HD
ATOM     34  H   UNL     1      48.126  10.341  13.524  0.00  0.00    +0.000 HD
ENDBRANCH  31  32
ENDBRANCH   1  31
TORSDOF 8
ENDMDL
MODEL 3
REMARK VINA RESULT:    -6.701      4.372      8.565
REMARK INTER + INTRA:         -10.800
REMARK INTER:                  -9.603
REMARK INTRA:                  -1.196
REMARK UNBOUND:                -1.160
REMARK  Name = 
REMARK  8 active torsions:
REMARK  status: ('A' for Active; 'I' for Inactive)
REMARK    1  A    between atoms: N_1  and  C_2
REMARK    2  A    between atoms: C_2  and  C_3
REMARK    3  A    between atoms: C_3  and  N_4
REMARK    4  A    between atoms: C_3  and  C_17
REMARK    5  A    between atoms: C_5  and  C_7
REMARK    6  A    between atoms: C_20  and  C_21
REMARK    7  A    between atoms: C_21  and  N_22
REMARK    8  A    between atoms: N_22  and  C_23
REMARK                            x       y       z     vdW  Elec       q    Type
REMARK                         _______ _______ _______ _____ _____    ______ ____
ROOT
ATOM      1  C   UNL     1      47.958   7.754  13.368  0.00  0.00    +0.000 C 
ENDROOT
BRANCH   1   2
ATOM      2  C   UNL     1      47.025   6.711  12.751  0.00  0.00    +0.000 A 
ATOM      3  C   UNL     1      46.764   5.509  13.431  0.00  0.00    +0.000 A 
ATOM      4  C   UNL     1      45.921   4.534  12.878  0.00  0.00    +0.000 A 
ATOM      5  C   UNL     1      45.326   4.733  11.627  0.00  0.00    +0.000 A 
ATOM      6  C   UNL     1      45.596   5.920  10.940  0.00  0.00    +0.000 A 
ATOM      7  C   UNL     1      46.445   6.884  11.485  0.00  0.00    +0.000 A 
BRANCH   5   8
ATOM      8  C   UNL     1      44.474   3.673  10.970  0.00  0.00    +0.000 C 
BRANCH   8   9
ATOM      9  N   UNL     1      45.251   2.562  10.425  0.00  0.00    +0.000 NA
ATOM     10  H   UNL     1      45.138   1.731  11.005  0.00  0.00    +0.000 HD
BRANCH   9  11
ATOM     11  C   UNL     1      44.887   2.275   9.026  0.00  0.00    +0.000 C 
ATOM     12  C   UNL     1      46.025   1.755   8.163  0.00  0.00    +0.000 C 
ATOM     13  C   UNL     1      46.703   3.008   7.657  0.00  0.00    +0.000 C 
ATOM     14  O   UNL     1      45.720   4.046   7.636  0.00  0.00    +0.000 OA
ATOM     15  C   UNL     1      44.525   3.557   8.266  0.00  0.00    +0.000 C 
ENDBRANCH   9  11
ENDBRANCH   8   9
ENDBRANCH   5   8
ENDBRANCH   1   2
BRANCH   1  16
ATOM     16  N   UNL     1      47.908   7.611  14.817  0.00  0.00    +0.000 N 
ATOM     17  C   UNL     1      48.321   8.582  15.692  0.00  0.00    +0.000 C 
ATOM     18  O   UNL     1      48.668   9.700  15.336  0.00  0.00    +0.000 OA
ATOM     19  H   UNL     1      47.736   6.673  15.157  0.00  0.00    +0.000 HD
BRANCH  17  20
ATOM     20  C   UNL     1      48.295   8.209  17.113  0.00  0.00    +0.000 A 
ATOM     21  C   UNL     1      47.900   9.141  18.063  0.00  0.00    +0.000 A 
ATOM     22  S   UNL     1      47.890   8.527  19.654  0.00  0.00    +0.000 S 
ATOM     23  C   UNL     1      48.467   7.014  19.135  0.00  0.00    +0.000 A 
ATOM     24  N   UNL     1      48.703   6.014  20.025  0.00  0.00    +0.000 NA
ATOM     25  C   UNL     1      49.174   4.931  19.501  0.00  0.00    +0.000 A 
ATOM     26  N   UNL     1      49.433   4.760  18.164  0.00  0.00    +0.000 N 
ATOM     27  C   UNL     1      49.172   5.727  17.224  0.00  0.00    +0.000 A 
ATOM     28  O   UNL     1      49.354   5.516  16.030  0.00  0.00    +0.000 OA
ATOM     29  C   UNL     1      48.651   6.969  17.766  0.00  0.00    +0.000 A 
ATOM     30  H   UNL     1      49.792   3.882  17.819  0.00  0.00    +0.000 HD
ENDBRANCH  17  20
ENDBRANCH   1  16
BRANCH   1  31
ATOM     31  C   UNL     1      49.423   7.631  12.833  0.00  0.00    +0.000 C 
BRANCH  31  32
ATOM     32  N   UNL     1      50.461   7.391  13.838  0.00  0.00    +0.000 NA
ATOM     33  H   UNL     1      50.841   6.455  13.714  0.00  0.00    +0.000 HD
ATOM     34  H   UNL     1      50.042   7.415  14.768  0.00  0.00    +0.000 HD
ENDBRANCH  31  32
ENDBRANCH   1  31
TORSDOF 8
ENDMDL
MODEL 4
REMARK VINA RESULT:    -6.590      4.698      8.629
REMARK INTER + INTRA:         -10.639
REMARK INTER:                  -9.128
REMARK INTRA:                  -1.511
REMARK UNBOUND:                -1.160
REMARK  Name = 
REMARK  8 active torsions:
REMARK  status: ('A' for Active; 'I' for Inactive)
REMARK    1  A    between atoms: N_1  and  C_2
REMARK    2  A    between atoms: C_2  and  C_3
REMARK    3  A    between atoms: C_3  and  N_4
REMARK    4  A    between atoms: C_3  and  C_17
REMARK    5  A    between atoms: C_5  and  C_7
REMARK    6  A    between atoms: C_20  and  C_21
REMARK    7  A    between atoms: C_21  and  N_22
REMARK    8  A    between atoms: N_22  and  C_23
REMARK                            x       y       z     vdW  Elec       q    Type
REMARK                         _______ _______ _______ _____ _____    ______ ____
ROOT
ATOM      1  C   UNL     1      47.677   4.624  15.431  0.00  0.00    +0.000 C 
ENDROOT
BRANCH   1   2
ATOM      2  C   UNL     1      46.855   4.741  14.146  0.00  0.00    +0.000 A 
ATOM      3  C   UNL     1      46.313   3.590  13.550  0.00  0.00    +0.000 A 
ATOM      4  C   UNL     1      45.566   3.673  12.365  0.00  0.00    +0.000 A 
ATOM      5  C   UNL     1      45.353   4.908  11.742  0.00  0.00    +0.000 A 
ATOM      6  C   UNL     1      45.905   6.053  12.323  0.00  0.00    +0.000 A 
ATOM      7  C   UNL     1      46.658   5.969  13.495  0.00  0.00    +0.000 A 
BRANCH   5   8
ATOM      8  C   UNL     1      44.618   5.024  10.428  0.00  0.00    +0.000 C 
BRANCH   8   9
ATOM      9  N   UNL     1      45.496   4.925   9.264  0.00  0.00    +0.000 NA
ATOM     10  H   UNL     1      46.432   4.639   9.549  0.00  0.00    +0.000 HD
BRANCH   9  11
ATOM     11  C   UNL     1      44.956   4.003   8.249  0.00  0.00    +0.000 C 
ATOM     12  C   UNL     1      44.525   2.646   8.782  0.00  0.00    +0.000 C 
ATOM     13  C   UNL     1      45.792   1.823   8.754  0.00  0.00    +0.000 C 
ATOM     14  O   UNL     1      46.630   2.363   7.729  0.00  0.00    +0.000 OA
ATOM     15  C   UNL     1      46.034   3.578   7.245  0.00  0.00    +0.000 C 
ENDBRANCH   9  11
ENDBRANCH   8   9
ENDBRANCH   5   8
ENDBRANCH   1   2
BRANCH   1  16
ATOM     16  N   UNL     1      47.849   5.960  15.986  0.00  0.00    +0.000 N 
ATOM     17  C   UNL     1      49.065   6.489  16.331  0.00  0.00    +0.000 C 
ATOM     18  O   UNL     1      50.129   5.928  16.103  0.00  0.00    +0.000 OA
ATOM     19  H   UNL     1      47.000   6.417  16.294  0.00  0.00    +0.000 HD
BRANCH  17  20
ATOM     20  C   UNL     1      49.024   7.809  16.976  0.00  0.00    +0.000 A 
ATOM     21  C   UNL     1      49.639   8.894  16.367  0.00  0.00    +0.000 A 
ATOM     22  S   UNL     1      49.457  10.352  17.232  0.00  0.00    +0.000 S 
ATOM     23  C   UNL     1      48.601   9.573  18.478  0.00  0.00    +0.000 A 
ATOM     24  N   UNL     1      48.163  10.265  19.563  0.00  0.00    +0.000 NA
ATOM     25  C   UNL     1      47.561   9.544  20.449  0.00  0.00    +0.000 A 
ATOM     26  N   UNL     1      47.360   8.190  20.349  0.00  0.00    +0.000 N 
ATOM     27  C   UNL     1      47.748   7.458  19.255  0.00  0.00    +0.000 A 
ATOM     28  O   UNL     1      47.493   6.261  19.169  0.00  0.00    +0.000 OA
ATOM     29  C   UNL     1      48.441   8.222  18.232  0.00  0.00    +0.000 A 
ATOM     30  H   UNL     1      46.870   7.688  21.077  0.00  0.00    +0.000 HD
ENDBRANCH  17  20
ENDBRANCH   1  16
BRANCH   1  31
ATOM     31  C   UNL     1      47.021   3.656  16.469  0.00  0.00    +0.000 C 
BRANCH  31  32
ATOM     32  N   UNL     1      47.675   3.569  17.777  0.00  0.00    +0.000 NA
ATOM     33  H   UNL     1      47.983   2.612  17.938  0.00  0.00    +0.000 HD
ATOM     34  H   UNL     1      46.997   3.784  18.508  0.00  0.00    +0.000 HD
ENDBRANCH  31  32
ENDBRANCH   1  31
TORSDOF 8
ENDMDL
MODEL 5
REMARK VINA RESULT:    -6.300      4.338      8.592
REMARK INTER + INTRA:         -10.223
REMARK INTER:                  -8.714
REMARK INTRA:                  -1.509
REMARK UNBOUND:                -1.160
REMARK  Name = 
REMARK  8 active torsions:
REMARK  status: ('A' for Active; 'I' for Inactive)
REMARK    1  A    between atoms: N_1  and  C_2
REMARK    2  A    between atoms: C_2  and  C_3
REMARK    3  A    between atoms: C_3  and  N_4
REMARK    4  A    between atoms: C_3  and  C_17
REMARK    5  A    between atoms: C_5  and  C_7
REMARK    6  A    between atoms: C_20  and  C_21
REMARK    7  A    between atoms: C_21  and  N_22
REMARK    8  A    between atoms: N_22  and  C_23
REMARK                            x       y       z     vdW  Elec       q    Type
REMARK                         _______ _______ _______ _____ _____    ______ ____
ROOT
ATOM      1  C   UNL     1      48.968   8.162  13.402  0.00  0.00    +0.000 C 
ENDROOT
BRANCH   1   2
ATOM      2  C   UNL     1      47.614   7.852  12.762  0.00  0.00    +0.000 A 
ATOM      3  C   UNL     1      46.497   8.651  13.055  0.00  0.00    +0.000 A 
ATOM      4  C   UNL     1      45.243   8.378  12.488  0.00  0.00    +0.000 A 
ATOM      5  C   UNL     1      45.075   7.293  11.621  0.00  0.00    +0.000 A 
ATOM      6  C   UNL     1      46.181   6.485  11.340  0.00  0.00    +0.000 A 
ATOM      7  C   UNL     1      47.425   6.750  11.914  0.00  0.00    +0.000 A 
BRANCH   5   8
ATOM      8  C   UNL     1      43.725   6.927  11.052  0.00  0.00    +0.000 C 
BRANCH   8   9
ATOM      9  N   UNL     1      43.652   5.545  10.579  0.00  0.00    +0.000 NA
ATOM     10  H   UNL     1      44.589   5.156  10.475  0.00  0.00    +0.000 HD
BRANCH   9  11
ATOM     11  C   UNL     1      42.834   4.704  11.471  0.00  0.00    +0.000 C 
ATOM     12  C   UNL     1      42.958   5.033  12.950  0.00  0.00    +0.000 C 
ATOM     13  C   UNL     1      44.155   4.229  13.405  0.00  0.00    +0.000 C 
ATOM     14  O   UNL     1      44.263   3.097  12.537  0.00  0.00    +0.000 OA
ATOM     15  C   UNL     1      43.315   3.249  11.467  0.00  0.00    +0.000 C 
ENDBRANCH   9  11
ENDBRANCH   8   9
ENDBRANCH   5   8
ENDBRANCH   1   2
BRANCH   1  16
ATOM     16  N   UNL     1      49.106   7.342  14.598  0.00  0.00    +0.000 N 
ATOM     17  C   UNL     1      48.818   7.784  15.862  0.00  0.00    +0.000 C 
ATOM     18  O   UNL     1      48.314   8.877  16.091  0.00  0.00    +0.000 OA
ATOM     19  H   UNL     1      49.619   6.478  14.477  0.00  0.00    +0.000 HD
BRANCH  17  20
ATOM     20  C   UNL     1      49.124   6.846  16.950  0.00  0.00    +0.000 A 
ATOM     21  C   UNL     1      49.968   7.236  17.981  0.00  0.00    +0.000 A 
ATOM     22  S   UNL     1      50.180   6.038  19.176  0.00  0.00    +0.000 S 
ATOM     23  C   UNL     1      49.198   4.938  18.329  0.00  0.00    +0.000 A 
ATOM     24  N   UNL     1      48.980   3.684  18.808  0.00  0.00    +0.000 NA
ATOM     25  C   UNL     1      48.247   2.941  18.048  0.00  0.00    +0.000 A 
ATOM     26  N   UNL     1      47.715   3.339  16.847  0.00  0.00    +0.000 N 
ATOM     27  C   UNL     1      47.875   4.606  16.343  0.00  0.00    +0.000 A 
ATOM     28  O   UNL     1      47.330   4.947  15.299  0.00  0.00    +0.000 OA
ATOM     29  C   UNL     1      48.702   5.479  17.158  0.00  0.00    +0.000 A 
ATOM     30  H   UNL     1      47.140   2.708  16.306  0.00  0.00    +0.000 HD
ENDBRANCH  17  20
ENDBRANCH   1  16
BRANCH   1  31
ATOM     31  C   UNL     1      50.159   7.935  12.414  0.00  0.00    +0.000 C 
BRANCH  31  32
ATOM     32  N   UNL     1      50.349   8.957  11.383  0.00  0.00    +0.000 NA
ATOM     33  H   UNL     1      51.340   9.037  11.165  0.00  0.00    +0.000 HD
ATOM     34  H   UNL     1      50.056   9.863  11.748  0.00  0.00    +0.000 HD
ENDBRANCH  31  32
ENDBRANCH   1  31
TORSDOF 8
ENDMDL
MODEL 6
REMARK VINA RESULT:    -6.203      3.191      8.821
REMARK INTER + INTRA:         -10.083
REMARK INTER:                  -9.015
REMARK INTRA:                  -1.068
REMARK UNBOUND:                -1.160
REMARK  Name = 
REMARK  8 active torsions:
REMARK  status: ('A' for Active; 'I' for Inactive)
REMARK    1  A    between atoms: N_1  and  C_2
REMARK    2  A    between atoms: C_2  and  C_3
REMARK    3  A    between atoms: C_3  and  N_4
REMARK    4  A    between atoms: C_3  and  C_17
REMARK    5  A    between atoms: C_5  and  C_7
REMARK    6  A    between atoms: C_20  and  C_21
REMARK    7  A    between atoms: C_21  and  N_22
REMARK    8  A    between atoms: N_22  and  C_23
REMARK                            x       y       z     vdW  Elec       q    Type
REMARK                         _______ _______ _______ _____ _____    ______ ____
ROOT
ATOM      1  C   UNL     1      48.169   4.018  17.732  0.00  0.00    +0.000 C 
ENDROOT
BRANCH   1   2
ATOM      2  C   UNL     1      47.868   4.555  16.332  0.00  0.00    +0.000 A 
ATOM      3  C   UNL     1      48.406   5.786  15.920  0.00  0.00    +0.000 A 
ATOM      4  C   UNL     1      48.134   6.303  14.645  0.00  0.00    +0.000 A 
ATOM      5  C   UNL     1      47.308   5.606  13.754  0.00  0.00    +0.000 A 
ATOM      6  C   UNL     1      46.758   4.389  14.167  0.00  0.00    +0.000 A 
ATOM      7  C   UNL     1      47.020   3.881  15.441  0.00  0.00    +0.000 A 
BRANCH   5   8
ATOM      8  C   UNL     1      46.936   6.169  12.404  0.00  0.00    +0.000 C 
BRANCH   8   9
ATOM      9  N   UNL     1      46.063   5.286  11.631  0.00  0.00    +0.000 NA
ATOM     10  H   UNL     1      45.963   4.386  12.100  0.00  0.00    +0.000 HD
BRANCH   9  11
ATOM     11  C   UNL     1      44.744   5.898  11.388  0.00  0.00    +0.000 C 
ATOM     12  C   UNL     1      43.917   6.151  12.638  0.00  0.00    +0.000 C 
ATOM     13  C   UNL     1      43.192   4.845  12.869  0.00  0.00    +0.000 C 
ATOM     14  O   UNL     1      43.059   4.201  11.598  0.00  0.00    +0.000 OA
ATOM     15  C   UNL     1      43.815   4.945  10.628  0.00  0.00    +0.000 C 
ENDBRANCH   9  11
ENDBRANCH   8   9
ENDBRANCH   5   8
ENDBRANCH   1   2
BRANCH   1  16
ATOM     16  N   UNL     1      49.581   3.663  17.792  0.00  0.00    +0.000 N 
ATOM     17  C   UNL     1      50.113   2.555  17.188  0.00  0.00    +0.000 C 
ATOM     18  O   UNL     1      49.469   1.819  16.452  0.00  0.00    +0.000 OA
ATOM     19  H   UNL     1      50.129   4.173  18.473  0.00  0.00    +0.000 HD
BRANCH  17  20
ATOM     20  C   UNL     1      51.537   2.309  17.453  0.00  0.00    +0.000 A 
ATOM     21  C   UNL     1      51.985   1.013  17.671  0.00  0.00    +0.000 A 
ATOM     22  S   UNL     1      53.668   0.908  17.921  0.00  0.00    +0.000 S 
ATOM     23  C   UNL     1      53.848   2.595  17.805  0.00  0.00    +0.000 A 
ATOM     24  N   UNL     1      55.067   3.178  17.952  0.00  0.00    +0.000 NA
ATOM     25  C   UNL     1      55.055   4.468  17.878  0.00  0.00    +0.000 A 
ATOM     26  N   UNL     1      53.931   5.227  17.673  0.00  0.00    +0.000 N 
ATOM     27  C   UNL     1      52.687   4.680  17.478  0.00  0.00    +0.000 A 
ATOM     28  O   UNL     1      51.715   5.386  17.231  0.00  0.00    +0.000 OA
ATOM     29  C   UNL     1      52.645   3.231  17.563  0.00  0.00    +0.000 A 
ATOM     30  H   UNL     1      53.994   6.234  17.614  0.00  0.00    +0.000 HD
ENDBRANCH  17  20
ENDBRANCH   1  16
BRANCH   1  31
ATOM     31  C   UNL     1      47.790   5.039  18.855  0.00  0.00    +0.000 C 
BRANCH  31  32
ATOM     32  N   UNL     1      46.401   5.505  18.863  0.00  0.00    +0.000 NA
ATOM     33  H   UNL     1      45.816   4.835  18.370  0.00  0.00    +0.000 HD
ATOM     34  H   UNL     1      46.337   6.383  18.348  0.00  0.00    +0.000 HD
ENDBRANCH  31  32
ENDBRANCH   1  31
TORSDOF 8
ENDMDL
MODEL 7
REMARK VINA RESULT:    -6.096      5.612      7.564
REMARK INTER + INTRA:          -9.929
REMARK INTER:                  -8.771
REMARK INTRA:                  -1.158
REMARK UNBOUND:                -1.160
REMARK  Name = 
REMARK  8 active torsions:
REMARK  status: ('A' for Active; 'I' for Inactive)
REMARK    1  A    between atoms: N_1  and  C_2
REMARK    2  A    between atoms: C_2  and  C_3
REMARK    3  A    between atoms: C_3  and  N_4
REMARK    4  A    between atoms: C_3  and  C_17
REMARK    5  A    between atoms: C_5  and  C_7
REMARK    6  A    between atoms: C_20  and  C_21
REMARK    7  A    between atoms: C_21  and  N_22
REMARK    8  A    between atoms: N_22  and  C_23
REMARK                            x       y       z     vdW  Elec       q    Type
REMARK                         _______ _______ _______ _____ _____    ______ ____
ROOT
ATOM      1  C   UNL     1      48.099   7.220  13.480  0.00  0.00    +0.000 C 
ENDROOT
BRANCH   1   2
ATOM      2  C   UNL     1      49.401   7.640  12.796  0.00  0.00    +0.000 A 
ATOM      3  C   UNL     1      49.555   7.473  11.410  0.00  0.00    +0.000 A 
ATOM      4  C   UNL     1      50.745   7.841  10.765  0.00  0.00    +0.000 A 
ATOM      5  C   UNL     1      51.814   8.375  11.492  0.00  0.00    +0.000 A 
ATOM      6  C   UNL     1      51.671   8.527  12.875  0.00  0.00    +0.000 A 
ATOM      7  C   UNL     1      50.492   8.150  13.518  0.00  0.00    +0.000 A 
BRANCH   5   8
ATOM      8  C   UNL     1      53.134   8.711  10.841  0.00  0.00    +0.000 C 
BRANCH   8   9
ATOM      9  N   UNL     1      53.030   8.919   9.398  0.00  0.00    +0.000 NA
ATOM     10  H   UNL     1      53.337   9.859   9.151  0.00  0.00    +0.000 HD
BRANCH   9  11
ATOM     11  C   UNL     1      53.793   7.907   8.644  0.00  0.00    +0.000 C 
ATOM     12  C   UNL     1      54.291   8.364   7.283  0.00  0.00    +0.000 C 
ATOM     13  C   UNL     1      53.131   8.082   6.355  0.00  0.00    +0.000 C 
ATOM     14  O   UNL     1      52.382   7.005   6.924  0.00  0.00    +0.000 OA
ATOM     15  C   UNL     1      52.904   6.727   8.234  0.00  0.00    +0.000 C 
ENDBRANCH   9  11
ENDBRANCH   8   9
ENDBRANCH   5   8
ENDBRANCH   1   2
BRANCH   1  16
ATOM     16  N   UNL     1      47.380   6.326  12.582  0.00  0.00    +0.000 N 
ATOM     17  C   UNL     1      46.319   6.717  11.808  0.00  0.00    +0.000 C 
ATOM     18  O   UNL     1      45.947   7.880  11.719  0.00  0.00    +0.000 OA
ATOM     19  H   UNL     1      47.575   5.340  12.701  0.00  0.00    +0.000 HD
BRANCH  17  20
ATOM     20  C   UNL     1      45.656   5.646  11.051  0.00  0.00    +0.000 A 
ATOM     21  C   UNL     1      45.732   5.633   9.665  0.00  0.00    +0.000 A 
ATOM     22  S   UNL     1      44.942   4.299   8.954  0.00  0.00    +0.000 S 
ATOM     23  C   UNL     1      44.423   3.726  10.468  0.00  0.00    +0.000 A 
ATOM     24  N   UNL     1      43.664   2.603  10.567  0.00  0.00    +0.000 NA
ATOM     25  C   UNL     1      43.309   2.301  11.772  0.00  0.00    +0.000 A 
ATOM     26  N   UNL     1      43.643   3.026  12.888  0.00  0.00    +0.000 N 
ATOM     27  C   UNL     1      44.440   4.143  12.841  0.00  0.00    +0.000 A 
ATOM     28  O   UNL     1      44.773   4.728  13.866  0.00  0.00    +0.000 OA
ATOM     29  C   UNL     1      44.858   4.530  11.505  0.00  0.00    +0.000 A 
ATOM     30  H   UNL     1      43.340   2.727  13.804  0.00  0.00    +0.000 HD
ENDBRANCH  17  20
ENDBRANCH   1  16
BRANCH   1  31
ATOM     31  C   UNL     1      48.347   6.551  14.872  0.00  0.00    +0.000 C 
BRANCH  31  32
ATOM     32  N   UNL     1      47.637   5.295  15.123  0.00  0.00    +0.000 NA
ATOM     33  H   UNL     1      46.676   5.380  14.800  0.00  0.00    +0.000 HD
ATOM     34  H   UNL     1      47.594   5.127  16.128  0.00  0.00    +0.000 HD
ENDBRANCH  31  32
ENDBRANCH   1  31
TORSDOF 8
ENDMDL
MODEL 8
REMARK VINA RESULT:    -6.093      3.522      9.024
REMARK INTER + INTRA:          -9.925
REMARK INTER:                  -9.122
REMARK INTRA:                  -0.803
REMARK UNBOUND:                -1.160
REMARK  Name = 
REMARK  8 active torsions:
REMARK  status: ('A' for Active; 'I' for Inactive)
REMARK    1  A    between atoms: N_1  and  C_2
REMARK    2  A    between atoms: C_2  and  C_3
REMARK    3  A    between atoms: C_3  and  N_4
REMARK    4  A    between atoms: C_3  and  C_17
REMARK    5  A    between atoms: C_5  and  C_7
REMARK    6  A    between atoms: C_20  and  C_21
REMARK    7  A    between atoms: C_21  and  N_22
REMARK    8  A    between atoms: N_22  and  C_23
REMARK                            x       y       z     vdW  Elec       q    Type
REMARK                         _______ _______ _______ _____ _____    ______ ____
ROOT
ATOM      1  C   UNL     1      47.946   7.536  13.862  0.00  0.00    +0.000 C 
ENDROOT
BRANCH   1   2
ATOM      2  C   UNL     1      46.671   7.056  13.167  0.00  0.00    +0.000 A 
ATOM      3  C   UNL     1      46.098   5.823  13.519  0.00  0.00    +0.000 A 
ATOM      4  C   UNL     1      44.935   5.359  12.887  0.00  0.00    +0.000 A 
ATOM      5  C   UNL     1      44.323   6.113  11.878  0.00  0.00    +0.000 A 
ATOM      6  C   UNL     1      44.900   7.333  11.514  0.00  0.00    +0.000 A 
ATOM      7  C   UNL     1      46.064   7.788  12.135  0.00  0.00    +0.000 A 
BRANCH   5   8
ATOM      8  C   UNL     1      43.115   5.609  11.127  0.00  0.00    +0.000 C 
BRANCH   8   9
ATOM      9  N   UNL     1      43.447   5.002   9.839  0.00  0.00    +0.000 NA
ATOM     10  H   UNL     1      43.452   5.708   9.104  0.00  0.00    +0.000 HD
BRANCH   9  11
ATOM     11  C   UNL     1      44.737   4.290   9.887  0.00  0.00    +0.000 C 
ATOM     12  C   UNL     1      45.592   4.432   8.639  0.00  0.00    +0.000 C 
ATOM     13  C   UNL     1      45.098   3.331   7.729  0.00  0.00    +0.000 C 
ATOM     14  O   UNL     1      44.565   2.297   8.560  0.00  0.00    +0.000 OA
ATOM     15  C   UNL     1      44.538   2.770   9.917  0.00  0.00    +0.000 C 
ENDBRANCH   9  11
ENDBRANCH   8   9
ENDBRANCH   5   8
ENDBRANCH   1   2
BRANCH   1  16
ATOM     16  N   UNL     1      48.365   6.509  14.808  0.00  0.00    +0.000 N 
ATOM     17  C   UNL     1      48.793   6.777  16.081  0.00  0.00    +0.000 C 
ATOM     18  O   UNL     1      48.760   7.896  16.578  0.00  0.00    +0.000 OA
ATOM     19  H   UNL     1      48.514   5.589  14.414  0.00  0.00    +0.000 HD
BRANCH  17  20
ATOM     20  C   UNL     1      49.276   5.619  16.846  0.00  0.00    +0.000 A 
ATOM     21  C   UNL     1      48.365   4.748  17.428  0.00  0.00    +0.000 A 
ATOM     22  S   UNL     1      49.098   3.441  18.240  0.00  0.00    +0.000 S 
ATOM     23  C   UNL     1      50.657   4.025  17.893  0.00  0.00    +0.000 A 
ATOM     24  N   UNL     1      51.763   3.368  18.333  0.00  0.00    +0.000 NA
ATOM     25  C   UNL     1      52.881   3.941  18.030  0.00  0.00    +0.000 A 
ATOM     26  N   UNL     1      52.991   5.115  17.330  0.00  0.00    +0.000 N 
ATOM     27  C   UNL     1      51.905   5.791  16.831  0.00  0.00    +0.000 A 
ATOM     28  O   UNL     1      52.044   6.803  16.153  0.00  0.00    +0.000 OA
ATOM     29  C   UNL     1      50.622   5.193  17.154  0.00  0.00    +0.000 A 
ATOM     30  H   UNL     1      53.900   5.503  17.118  0.00  0.00    +0.000 HD
ENDBRANCH  17  20
ENDBRANCH   1  16
BRANCH   1  31
ATOM     31  C   UNL     1      49.086   7.873  12.845  0.00  0.00    +0.000 C 
BRANCH  31  32
ATOM     32  N   UNL     1      50.109   8.813  13.308  0.00  0.00    +0.000 NA
ATOM     33  H   UNL     1      49.699   9.740  13.400  0.00  0.00    +0.000 HD
ATOM     34  H   UNL     1      50.843   8.887  12.603  0.00  0.00    +0.000 HD
ENDBRANCH  31  32
ENDBRANCH   1  31
TORSDOF 8
ENDMDL
MODEL 9
REMARK VINA RESULT:    -6.041      4.565     10.996
REMARK INTER + INTRA:          -9.850
REMARK INTER:                  -8.767
REMARK INTRA:                  -1.083
REMARK UNBOUND:                -1.160
REMARK  Name = 
REMARK  8 active torsions:
REMARK  status: ('A' for Active; 'I' for Inactive)
REMARK    1  A    between atoms: N_1  and  C_2
REMARK    2  A    between atoms: C_2  and  C_3
REMARK    3  A    between atoms: C_3  and  N_4
REMARK    4  A    between atoms: C_3  and  C_17
REMARK    5  A    between atoms: C_5  and  C_7
REMARK    6  A    between atoms: C_20  and  C_21
REMARK    7  A    between atoms: C_21  and  N_22
REMARK    8  A    between atoms: N_22  and  C_23
REMARK                            x       y       z     vdW  Elec       q    Type
REMARK                         _______ _______ _______ _____ _____    ______ ____
ROOT
ATOM      1  C   UNL     1      45.844   5.633  12.806  0.00  0.00    +0.000 C 
ENDROOT
BRANCH   1   2
ATOM      2  C   UNL     1      45.231   6.925  12.261  0.00  0.00    +0.000 A 
ATOM      3  C   UNL     1      45.757   8.170  12.644  0.00  0.00    +0.000 A 
ATOM      4  C   UNL     1      45.203   9.367  12.166  0.00  0.00    +0.000 A 
ATOM      5  C   UNL     1      44.103   9.347  11.301  0.00  0.00    +0.000 A 
ATOM      6  C   UNL     1      43.567   8.110  10.930  0.00  0.00    +0.000 A 
ATOM      7  C   UNL     1      44.111   6.920  11.416  0.00  0.00    +0.000 A 
BRANCH   5   8
ATOM      8  C   UNL     1      43.437  10.616  10.827  0.00  0.00    +0.000 C 
BRANCH   8   9
ATOM      9  N   UNL     1      42.098  10.397  10.281  0.00  0.00    +0.000 NA
ATOM     10  H   UNL     1      41.746   9.482  10.561  0.00  0.00    +0.000 HD
BRANCH   9  11
ATOM     11  C   UNL     1      41.163  11.463  10.684  0.00  0.00    +0.000 C 
ATOM     12  C   UNL     1      40.485  11.243  12.027  0.00  0.00    +0.000 C 
ATOM     13  C   UNL     1      39.274  10.402  11.692  0.00  0.00    +0.000 C 
ATOM     14  O   UNL     1      38.918  10.687  10.337  0.00  0.00    +0.000 OA
ATOM     15  C   UNL     1      39.941  11.516   9.760  0.00  0.00    +0.000 C 
ENDBRANCH   9  11
ENDBRANCH   8   9
ENDBRANCH   5   8
ENDBRANCH   1   2
BRANCH   1  16
ATOM     16  N   UNL     1      46.571   5.953  14.027  0.00  0.00    +0.000 N 
ATOM     17  C   UNL     1      47.939   5.993  14.110  0.00  0.00    +0.000 C 
ATOM     18  O   UNL     1      48.672   5.871  13.138  0.00  0.00    +0.000 OA
ATOM     19  H   UNL     1      46.020   5.953  14.876  0.00  0.00    +0.000 HD
BRANCH  17  20
ATOM     20  C   UNL     1      48.487   6.227  15.453  0.00  0.00    +0.000 A 
ATOM     21  C   UNL     1      49.341   7.299  15.672  0.00  0.00    +0.000 A 
ATOM     22  S   UNL     1      49.849   7.443  17.294  0.00  0.00    +0.000 S 
ATOM     23  C   UNL     1      48.992   6.045  17.746  0.00  0.00    +0.000 A 
ATOM     24  N   UNL     1      49.025   5.590  19.027  0.00  0.00    +0.000 NA
ATOM     25  C   UNL     1      48.361   4.500  19.224  0.00  0.00    +0.000 A 
ATOM     26  N   UNL     1      47.669   3.821  18.252  0.00  0.00    +0.000 N 
ATOM     27  C   UNL     1      47.575   4.264  16.956  0.00  0.00    +0.000 A 
ATOM     28  O   UNL     1      46.894   3.667  16.129  0.00  0.00    +0.000 OA
ATOM     29  C   UNL     1      48.315   5.483  16.680  0.00  0.00    +0.000 A 
ATOM     30  H   UNL     1      47.161   2.977  18.478  0.00  0.00    +0.000 HD
ENDBRANCH  17  20
ENDBRANCH   1  16
BRANCH   1  31
ATOM     31  C   UNL     1      44.769   4.525  13.056  0.00  0.00    +0.000 C 
BRANCH  31  32
ATOM     32  N   UNL     1      45.075   3.195  12.525  0.00  0.00    +0.000 NA
ATOM     33  H   UNL     1      46.036   3.177  12.191  0.00  0.00    +0.000 HD
ATOM     34  H   UNL     1      44.481   3.011  11.716  0.00  0.00    +0.000 HD
ENDBRANCH  31  32
ENDBRANCH   1  31
TORSDOF 8
ENDMDL
