MODEL 1
REMARK VINA RESULT:    -8.063      0.000      0.000
REMARK INTER + INTRA:         -12.272
REMARK INTER:                 -11.363
REMARK INTRA:                  -0.909
REMARK UNBOUND:                -0.909
REMARK  Name = 
REMARK  7 active torsions:
REMARK  status: ('A' for Active; 'I' for Inactive)
REMARK    1  A    between atoms: C_2  and  C_19
REMARK    2  A    between atoms: N_3  and  C_4
REMARK    3  A    between atoms: C_4  and  C_5
REMARK    4  A    between atoms: C_8  and  C_9
REMARK    5  A    between atoms: C_9  and  C_10
REMARK    6  A    between atoms: C_10  and  C_11
REMARK    7  A    between atoms: C_11  and  N_12
REMARK                            x       y       z     vdW  Elec       q    Type
REMARK                         _______ _______ _______ _____ _____    ______ ____
ROOT
ATOM      1  C   UNL     1      46.751   7.260  12.947  0.00  0.00    +0.000 C 
ENDROOT
BRANCH   1   2
ATOM      2  C   UNL     1      46.052   6.126  12.244  0.00  0.00    +0.000 A 
ATOM      3  C   UNL     1      45.700   4.970  12.950  0.00  0.00    +0.000 A 
ATOM      4  C   UNL     1      45.077   3.903  12.300  0.00  0.00    +0.000 A 
ATOM      5  C   UNL     1      44.808   3.971  10.926  0.00  0.00    +0.000 A 
ATOM      6  C   UNL     1      45.174   5.118  10.216  0.00  0.00    +0.000 A 
ATOM      7  C   UNL     1      45.794   6.188  10.868  0.00  0.00    +0.000 A 
BRANCH   5   8
ATOM      8  C   UNL     1      44.126   2.826  10.219  0.00  0.00    +0.000 C 
BRANCH   8   9
ATOM      9  C   UNL     1      44.584   2.637   8.772  0.00  0.00    +0.000 C 
BRANCH   9  10
ATOM     10  C   UNL     1      45.959   1.967   8.614  0.00  0.00    +0.000 C 
BRANCH  10  11
ATOM     11  N   UNL     1      46.333   1.886   7.200  0.00  0.00    +0.000 NA
ATOM     12  C   UNL     1      46.543   3.192   6.577  0.00  0.00    +0.000 C 
ATOM     13  C   UNL     1      47.382   2.819   5.376  0.00  0.00    +0.000 C 
ATOM     14  N   UNL     1      48.316   1.829   5.925  0.00  0.00    +0.000 NA
ATOM     15  C   UNL     1      47.545   1.117   6.949  0.00  0.00    +0.000 C 
ATOM     16  H   UNL     1      49.055   2.334   6.408  0.00  0.00    +0.000 HD
ENDBRANCH  10  11
ENDBRANCH   9  10
ENDBRANCH   8   9
ENDBRANCH   5   8
ENDBRANCH   1   2
BRANCH   1  19
ATOM     17  O   UNL     1      49.404   6.705  13.714  0.00  0.00    +0.000 OA
ATOM     18  C   UNL     1      48.517   6.668  14.562  0.00  0.00    +0.000 C 
ATOM     19  N   UNL     1      47.193   6.859  14.256  0.00  0.00    +0.000 N 
ATOM     20  H   UNL     1      46.536   7.018  15.010  0.00  0.00    +0.000 HD
BRANCH  18  21
ATOM     21  C   UNL     1      48.810   6.345  15.965  0.00  0.00    +0.000 A 
ATOM     22  C   UNL     1      49.430   7.288  16.774  0.00  0.00    +0.000 A 
ATOM     23  S   UNL     1      49.735   6.735  18.359  0.00  0.00    +0.000 S 
ATOM     24  C   UNL     1      49.003   5.234  18.035  0.00  0.00    +0.000 A 
ATOM     25  N   UNL     1      48.904   4.278  19.001  0.00  0.00    +0.000 NA
ATOM     26  C   UNL     1      48.285   3.208  18.631  0.00  0.00    +0.000 A 
ATOM     27  N   UNL     1      47.757   3.002  17.385  0.00  0.00    +0.000 N 
ATOM     28  C   UNL     1      47.895   3.906  16.359  0.00  0.00    +0.000 A 
ATOM     29  O   UNL     1      47.524   3.633  15.221  0.00  0.00    +0.000 OA
ATOM     30  C   UNL     1      48.550   5.148  16.730  0.00  0.00    +0.000 A 
ATOM     31  H   UNL     1      47.305   2.131  17.151  0.00  0.00    +0.000 HD
ENDBRANCH  18  21
ENDBRANCH   1  19
TORSDOF 7
ENDMDL
MODEL 2
REMARK VINA RESULT:    -7.584      1.224      1.657
REMARK INTER + INTRA:         -11.596
REMARK INTER:                 -10.737
REMARK INTRA:                  -0.859
REMARK UNBOUND:                -0.909
REMARK  Name = 
REMARK  7 active torsions:
REMARK  status: ('A' for Active; 'I' for Inactive)
REMARK    1  A    between atoms: C_2  and  C_19
REMARK    2  A    between atoms: N_3  and  C_4
REMARK    3  A    between atoms: C_4  and  C_5
REMARK    4  A    between atoms: C_8  and  C_9
REMARK    5  A    between atoms: C_9  and  C_10
REMARK    6  A    between atoms: C_10  and  C_11
REMARK    7  A    between atoms: C_11  and  N_12
REMARK                            x       y       z     vdW  Elec       q    Type
REMARK                         _______ _______ _______ _____ _____    ______ ____
ROOT
ATOM      1  C   UNL     1      47.988   7.279  13.382  0.00  0.00    +0.000 C 
ENDROOT
BRANCH   1   2
ATOM      2  C   UNL     1      47.023   6.354  12.687  0.00  0.00    +0.000 A 
ATOM      3  C   UNL     1      46.599   6.629  11.382  0.00  0.00    +0.000 A 
ATOM      4  C   UNL     1      45.684   5.792  10.741  0.00  0.00    +0.000 A 
ATOM      5  C   UNL     1      45.168   4.670  11.403  0.00  0.00    +0.000 A 
ATOM      6  C   UNL     1      45.577   4.403  12.713  0.00  0.00    +0.000 A 
ATOM      7  C   UNL     1      46.496   5.239  13.353  0.00  0.00    +0.000 A 
BRANCH   5   8
ATOM      8  C   UNL     1      44.186   3.755  10.713  0.00  0.00    +0.000 C 
BRANCH   8   9
ATOM      9  C   UNL     1      44.573   3.411   9.275  0.00  0.00    +0.000 C 
BRANCH   9  10
ATOM     10  C   UNL     1      45.346   2.091   9.113  0.00  0.00    +0.000 C 
BRANCH  10  11
ATOM     11  N   UNL     1      45.950   2.008   7.781  0.00  0.00    +0.000 NA
ATOM     12  C   UNL     1      46.687   3.212   7.399  0.00  0.00    +0.000 C 
ATOM     13  C   UNL     1      47.586   2.678   6.307  0.00  0.00    +0.000 C 
ATOM     14  N   UNL     1      48.024   1.386   6.846  0.00  0.00    +0.000 NA
ATOM     15  C   UNL     1      46.877   0.895   7.618  0.00  0.00    +0.000 C 
ATOM     16  H   UNL     1      48.773   1.566   7.512  0.00  0.00    +0.000 HD
ENDBRANCH  10  11
ENDBRANCH   9  10
ENDBRANCH   8   9
ENDBRANCH   5   8
ENDBRANCH   1   2
BRANCH   1  19
ATOM     17  O   UNL     1      50.092   6.673  15.154  0.00  0.00    +0.000 OA
ATOM     18  C   UNL     1      48.978   6.909  15.610  0.00  0.00    +0.000 C 
ATOM     19  N   UNL     1      47.887   7.145  14.811  0.00  0.00    +0.000 N 
ATOM     20  H   UNL     1      47.049   7.530  15.231  0.00  0.00    +0.000 HD
BRANCH  18  21
ATOM     21  C   UNL     1      48.720   6.887  17.056  0.00  0.00    +0.000 A 
ATOM     22  C   UNL     1      48.358   8.057  17.709  0.00  0.00    +0.000 A 
ATOM     23  S   UNL     1      48.139   7.862  19.391  0.00  0.00    +0.000 S 
ATOM     24  C   UNL     1      48.471   6.196  19.296  0.00  0.00    +0.000 A 
ATOM     25  N   UNL     1      48.428   5.408  20.407  0.00  0.00    +0.000 NA
ATOM     26  C   UNL     1      48.654   4.158  20.182  0.00  0.00    +0.000 A 
ATOM     27  N   UNL     1      48.924   3.622  18.952  0.00  0.00    +0.000 N 
ATOM     28  C   UNL     1      49.050   4.386  17.817  0.00  0.00    +0.000 A 
ATOM     29  O   UNL     1      49.419   3.890  16.758  0.00  0.00    +0.000 OA
ATOM     30  C   UNL     1      48.764   5.797  18.004  0.00  0.00    +0.000 A 
ATOM     31  H   UNL     1      49.117   2.636  18.847  0.00  0.00    +0.000 HD
ENDBRANCH  18  21
ENDBRANCH   1  19
TORSDOF 7
ENDMDL
MODEL 3
REMARK VINA RESULT:    -7.326      2.069      2.721
REMARK INTER + INTRA:         -11.233
REMARK INTER:                 -10.375
REMARK INTRA:                  -0.858
REMARK UNBOUND:                -0.909
REMARK  Name = 
REMARK  7 active torsions:
REMARK  status: ('A' for Active; 'I' for Inactive)
REMARK    1  A    between atoms: C_2  and  C_19
REMARK    2  A    between atoms: N_3  and  C_4
REMARK    3  A    between atoms: C_4  and  C_5
REMARK    4  A    between atoms: C_8  and  C_9
REMARK    5  A    between atoms: C_9  and  C_10
REMARK    6  A    between atoms: C_10  and  C_11
REMARK    7  A    between atoms: C_11  and  N_12
REMARK                            x       y       z     vdW  Elec       q    Type
REMARK                         _______ _______ _______ _____ _____    ______ ____
ROOT
ATOM      1  C   UNL     1      48.030   6.566  13.669  0.00  0.00    +0.000 C 
ENDROOT
BRANCH   1   2
ATOM      2  C   UNL     1      46.993   5.767  12.924  0.00  0.00    +0.000 A 
ATOM      3  C   UNL     1      46.571   4.527  13.416  0.00  0.00    +0.000 A 
ATOM      4  C   UNL     1      45.632   3.767  12.717  0.00  0.00    +0.000 A 
ATOM      5  C   UNL     1      45.108   4.232  11.504  0.00  0.00    +0.000 A 
ATOM      6  C   UNL     1      45.540   5.463  11.001  0.00  0.00    +0.000 A 
ATOM      7  C   UNL     1      46.478   6.225  11.703  0.00  0.00    +0.000 A 
BRANCH   5   8
ATOM      8  C   UNL     1      44.084   3.421  10.747  0.00  0.00    +0.000 C 
BRANCH   8   9
ATOM      9  C   UNL     1      44.398   3.270   9.258  0.00  0.00    +0.000 C 
BRANCH   9  10
ATOM     10  C   UNL     1      45.210   2.016   8.894  0.00  0.00    +0.000 C 
BRANCH  10  11
ATOM     11  N   UNL     1      46.439   2.386   8.187  0.00  0.00    +0.000 NA
ATOM     12  C   UNL     1      46.963   1.321   7.334  0.00  0.00    +0.000 C 
ATOM     13  C   UNL     1      47.845   2.103   6.387  0.00  0.00    +0.000 C 
ATOM     14  N   UNL     1      47.035   3.291   6.093  0.00  0.00    +0.000 NA
ATOM     15  C   UNL     1      46.302   3.560   7.333  0.00  0.00    +0.000 C 
ATOM     16  H   UNL     1      46.345   3.030   5.391  0.00  0.00    +0.000 HD
ENDBRANCH  10  11
ENDBRANCH   9  10
ENDBRANCH   8   9
ENDBRANCH   5   8
ENDBRANCH   1   2
BRANCH   1  19
ATOM     17  O   UNL     1      50.183   6.612  15.484  0.00  0.00    +0.000 OA
ATOM     18  C   UNL     1      49.049   6.413  15.908  0.00  0.00    +0.000 C 
ATOM     19  N   UNL     1      47.958   6.309  15.082  0.00  0.00    +0.000 N 
ATOM     20  H   UNL     1      47.032   6.347  15.490  0.00  0.00    +0.000 HD
BRANCH  18  21
ATOM     21  C   UNL     1      48.791   6.204  17.340  0.00  0.00    +0.000 A 
ATOM     22  C   UNL     1      49.038   4.963  17.910  0.00  0.00    +0.000 A 
ATOM     23  S   UNL     1      48.643   4.881  19.568  0.00  0.00    +0.000 S 
ATOM     24  C   UNL     1      48.178   6.518  19.594  0.00  0.00    +0.000 A 
ATOM     25  N   UNL     1      47.749   7.107  20.745  0.00  0.00    +0.000 NA
ATOM     26  C   UNL     1      47.473   8.362  20.631  0.00  0.00    +0.000 A 
ATOM     27  N   UNL     1      47.583   9.083  19.473  0.00  0.00    +0.000 N 
ATOM     28  C   UNL     1      47.941   8.517  18.273  0.00  0.00    +0.000 A 
ATOM     29  O   UNL     1      47.903   9.164  17.231  0.00  0.00    +0.000 OA
ATOM     30  C   UNL     1      48.302   7.113  18.351  0.00  0.00    +0.000 A 
ATOM     31  H   UNL     1      47.327  10.060  19.444  0.00  0.00    +0.000 HD
ENDBRANCH  18  21
ENDBRANCH   1  19
TORSDOF 7
ENDMDL
MODEL 4
REMARK VINA RESULT:    -7.200      4.233      9.310
REMARK INTER + INTRA:         -11.055
REMARK INTER:                 -10.164
REMARK INTRA:                  -0.891
REMARK UNBOUND:                -0.909
REMARK  Name = 
REMARK  7 active torsions:
REMARK  status: ('A' for Active; 'I' for Inactive)
REMARK    1  A    between atoms: C_2  and  C_19
REMARK    2  A    between atoms: N_3  and  C_4
REMARK    3  A    between atoms: C_4  and  C_5
REMARK    4  A    between atoms: C_8  and  C_9
REMARK    5  A    between atoms: C_9  and  C_10
REMARK    6  A    between atoms: C_10  and  C_11
REMARK    7  A    between atoms: C_11  and  N_12
REMARK                            x       y       z     vdW  Elec       q    Type
REMARK                         _______ _______ _______ _____ _____    ______ ____
ROOT
ATOM      1  C   UNL     1      47.137   3.560  16.818  0.00  0.00    +0.000 C 
ENDROOT
BRANCH   1   2
ATOM      2  C   UNL     1      48.611   3.635  17.119  0.00  0.00    +0.000 A 
ATOM      3  C   UNL     1      49.234   4.877  17.286  0.00  0.00    +0.000 A 
ATOM      4  C   UNL     1      50.605   4.956  17.537  0.00  0.00    +0.000 A 
ATOM      5  C   UNL     1      51.379   3.790  17.612  0.00  0.00    +0.000 A 
ATOM      6  C   UNL     1      50.762   2.550  17.428  0.00  0.00    +0.000 A 
ATOM      7  C   UNL     1      49.388   2.471  17.181  0.00  0.00    +0.000 A 
BRANCH   5   8
ATOM      8  C   UNL     1      52.860   3.867  17.893  0.00  0.00    +0.000 C 
BRANCH   8   9
ATOM      9  C   UNL     1      53.379   2.723  18.764  0.00  0.00    +0.000 C 
BRANCH   9  10
ATOM     10  C   UNL     1      54.788   2.224  18.399  0.00  0.00    +0.000 C 
BRANCH  10  11
ATOM     11  N   UNL     1      54.792   0.767  18.244  0.00  0.00    +0.000 NA
ATOM     12  C   UNL     1      55.236   0.054  19.440  0.00  0.00    +0.000 C 
ATOM     13  C   UNL     1      54.663  -1.323  19.198  0.00  0.00    +0.000 C 
ATOM     14  N   UNL     1      53.327  -1.032  18.665  0.00  0.00    +0.000 NA
ATOM     15  C   UNL     1      53.494   0.203  17.893  0.00  0.00    +0.000 C 
ATOM     16  H   UNL     1      52.721  -0.810  19.452  0.00  0.00    +0.000 HD
ENDBRANCH  10  11
ENDBRANCH   9  10
ENDBRANCH   8   9
ENDBRANCH   5   8
ENDBRANCH   1   2
BRANCH   1  19
ATOM     17  O   UNL     1      47.257   3.123  14.038  0.00  0.00    +0.000 OA
ATOM     18  C   UNL     1      46.804   4.184  14.456  0.00  0.00    +0.000 C 
ATOM     19  N   UNL     1      46.774   4.500  15.791  0.00  0.00    +0.000 N 
ATOM     20  H   UNL     1      46.213   5.287  16.094  0.00  0.00    +0.000 HD
BRANCH  18  21
ATOM     21  C   UNL     1      46.320   5.225  13.540  0.00  0.00    +0.000 A 
ATOM     22  C   UNL     1      47.141   6.297  13.219  0.00  0.00    +0.000 A 
ATOM     23  S   UNL     1      46.407   7.434  12.179  0.00  0.00    +0.000 S 
ATOM     24  C   UNL     1      44.984   6.507  12.080  0.00  0.00    +0.000 A 
ATOM     25  N   UNL     1      43.936   6.912  11.310  0.00  0.00    +0.000 NA
ATOM     26  C   UNL     1      42.941   6.090  11.290  0.00  0.00    +0.000 A 
ATOM     27  N   UNL     1      42.894   4.904  11.970  0.00  0.00    +0.000 N 
ATOM     28  C   UNL     1      43.895   4.489  12.815  0.00  0.00    +0.000 A 
ATOM     29  O   UNL     1      43.764   3.485  13.508  0.00  0.00    +0.000 OA
ATOM     30  C   UNL     1      45.059   5.356  12.845  0.00  0.00    +0.000 A 
ATOM     31  H   UNL     1      42.074   4.316  11.932  0.00  0.00    +0.000 HD
ENDBRANCH  18  21
ENDBRANCH   1  19
TORSDOF 7
ENDMDL
MODEL 5
REMARK VINA RESULT:    -6.982      1.971      3.657
REMARK INTER + INTRA:         -10.748
REMARK INTER:                  -9.559
REMARK INTRA:                  -1.189
REMARK UNBOUND:                -0.909
REMARK  Name = 
REMARK  7 active torsions:
REMARK  status: ('A' for Active; 'I' for Inactive)
REMARK    1  A    between atoms: C_2  and  C_19
REMARK    2  A    between atoms: N_3  and  C_4
REMARK    3  A    between atoms: C_4  and  C_5
REMARK    4  A    between atoms: C_8  and  C_9
REMARK    5  A    between atoms: C_9  and  C_10
REMARK    6  A    between atoms: C_10  and  C_11
REMARK    7  A    between atoms: C_11  and  N_12
REMARK                            x       y       z     vdW  Elec       q    Type
REMARK                         _______ _______ _______ _____ _____    ______ ____
ROOT
ATOM      1  C   UNL     1      47.000   4.373  14.619  0.00  0.00    +0.000 C 
ENDROOT
BRANCH   1   2
ATOM      2  C   UNL     1      46.275   4.440  13.300  0.00  0.00    +0.000 A 
ATOM      3  C   UNL     1      46.157   5.658  12.621  0.00  0.00    +0.000 A 
ATOM      4  C   UNL     1      45.462   5.733  11.413  0.00  0.00    +0.000 A 
ATOM      5  C   UNL     1      44.860   4.590  10.870  0.00  0.00    +0.000 A 
ATOM      6  C   UNL     1      44.962   3.376  11.555  0.00  0.00    +0.000 A 
ATOM      7  C   UNL     1      45.662   3.300  12.763  0.00  0.00    +0.000 A 
BRANCH   5   8
ATOM      8  C   UNL     1      44.116   4.661   9.559  0.00  0.00    +0.000 C 
BRANCH   8   9
ATOM      9  C   UNL     1      44.593   3.640   8.526  0.00  0.00    +0.000 C 
BRANCH   9  10
ATOM     10  C   UNL     1      45.958   3.955   7.891  0.00  0.00    +0.000 C 
BRANCH  10  11
ATOM     11  N   UNL     1      46.828   2.777   7.931  0.00  0.00    +0.000 NA
ATOM     12  C   UNL     1      46.097   1.517   8.057  0.00  0.00    +0.000 C 
ATOM     13  C   UNL     1      47.123   0.525   7.560  0.00  0.00    +0.000 C 
ATOM     14  N   UNL     1      47.708   1.212   6.402  0.00  0.00    +0.000 NA
ATOM     15  C   UNL     1      47.686   2.633   6.761  0.00  0.00    +0.000 C 
ATOM     16  H   UNL     1      47.069   1.095   5.618  0.00  0.00    +0.000 HD
ENDBRANCH  10  11
ENDBRANCH   9  10
ENDBRANCH   8   9
ENDBRANCH   5   8
ENDBRANCH   1   2
BRANCH   1  19
ATOM     17  O   UNL     1      49.026   4.904  16.502  0.00  0.00    +0.000 OA
ATOM     18  C   UNL     1      48.526   5.839  15.885  0.00  0.00    +0.000 C 
ATOM     19  N   UNL     1      47.489   5.671  15.002  0.00  0.00    +0.000 N 
ATOM     20  H   UNL     1      47.252   6.432  14.377  0.00  0.00    +0.000 HD
BRANCH  18  21
ATOM     21  C   UNL     1      48.963   7.225  16.104  0.00  0.00    +0.000 A 
ATOM     22  C   UNL     1      48.933   7.763  17.382  0.00  0.00    +0.000 A 
ATOM     23  S   UNL     1      49.432   9.394  17.450  0.00  0.00    +0.000 S 
ATOM     24  C   UNL     1      49.756   9.421  15.780  0.00  0.00    +0.000 A 
ATOM     25  N   UNL     1      50.246  10.541  15.179  0.00  0.00    +0.000 NA
ATOM     26  C   UNL     1      50.489  10.406  13.919  0.00  0.00    +0.000 A 
ATOM     27  N   UNL     1      50.285   9.258  13.202  0.00  0.00    +0.000 N 
ATOM     28  C   UNL     1      49.724   8.129  13.748  0.00  0.00    +0.000 A 
ATOM     29  O   UNL     1      49.435   7.164  13.048  0.00  0.00    +0.000 OA
ATOM     30  C   UNL     1      49.468   8.210  15.175  0.00  0.00    +0.000 A 
ATOM     31  H   UNL     1      50.473   9.226  12.211  0.00  0.00    +0.000 HD
ENDBRANCH  18  21
ENDBRANCH   1  19
TORSDOF 7
ENDMDL
MODEL 6
REMARK VINA RESULT:    -6.836      2.930      8.432
REMARK INTER + INTRA:         -10.542
REMARK INTER:                  -9.167
REMARK INTRA:                  -1.374
REMARK UNBOUND:                -0.909
REMARK  Name = 
REMARK  7 active torsions:
REMARK  status: ('A' for Active; 'I' for Inactive)
REMARK    1  A    between atoms: C_2  and  C_19
REMARK    2  A    between atoms: N_3  and  C_4
REMARK    3  A    between atoms: C_4  and  C_5
REMARK    4  A    between atoms: C_8  and  C_9
REMARK    5  A    between atoms: C_9  and  C_10
REMARK    6  A    between atoms: C_10  and  C_11
REMARK    7  A    between atoms: C_11  and  N_12
REMARK                            x       y       z     vdW  Elec       q    Type
REMARK                         _______ _______ _______ _____ _____    ______ ____
ROOT
ATOM      1  C   UNL     1      47.684   7.859  11.695  0.00  0.00    +0.000 C 
ENDROOT
BRANCH   1   2
ATOM      2  C   UNL     1      48.284   7.992  13.070  0.00  0.00    +0.000 A 
ATOM      3  C   UNL     1      49.456   7.302  13.397  0.00  0.00    +0.000 A 
ATOM      4  C   UNL     1      50.002   7.397  14.678  0.00  0.00    +0.000 A 
ATOM      5  C   UNL     1      49.375   8.177  15.659  0.00  0.00    +0.000 A 
ATOM      6  C   UNL     1      48.194   8.854  15.339  0.00  0.00    +0.000 A 
ATOM      7  C   UNL     1      47.650   8.761  14.055  0.00  0.00    +0.000 A 
BRANCH   5   8
ATOM      8  C   UNL     1      49.965   8.294  17.043  0.00  0.00    +0.000 C 
BRANCH   8   9
ATOM      9  C   UNL     1      50.200   6.946  17.725  0.00  0.00    +0.000 C 
BRANCH   9  10
ATOM     10  C   UNL     1      48.921   6.221  18.178  0.00  0.00    +0.000 C 
BRANCH  10  11
ATOM     11  N   UNL     1      48.795   4.928  17.500  0.00  0.00    +0.000 NA
ATOM     12  C   UNL     1      48.365   3.846  18.384  0.00  0.00    +0.000 C 
ATOM     13  C   UNL     1      47.833   2.840  17.389  0.00  0.00    +0.000 C 
ATOM     14  N   UNL     1      47.101   3.681  16.434  0.00  0.00    +0.000 NA
ATOM     15  C   UNL     1      47.861   4.934  16.381  0.00  0.00    +0.000 C 
ATOM     16  H   UNL     1      46.196   3.901  16.845  0.00  0.00    +0.000 HD
ENDBRANCH  10  11
ENDBRANCH   9  10
ENDBRANCH   8   9
ENDBRANCH   5   8
ENDBRANCH   1   2
BRANCH   1  19
ATOM     17  O   UNL     1      44.902   7.575  12.031  0.00  0.00    +0.000 OA
ATOM     18  C   UNL     1      45.565   6.598  11.697  0.00  0.00    +0.000 C 
ATOM     19  N   UNL     1      46.932   6.638  11.578  0.00  0.00    +0.000 N 
ATOM     20  H   UNL     1      47.404   5.874  11.110  0.00  0.00    +0.000 HD
BRANCH  18  21
ATOM     21  C   UNL     1      44.940   5.289  11.464  0.00  0.00    +0.000 A 
ATOM     22  C   UNL     1      44.173   4.705  12.463  0.00  0.00    +0.000 A 
ATOM     23  S   UNL     1      43.559   3.169  12.043  0.00  0.00    +0.000 S 
ATOM     24  C   UNL     1      44.255   3.253  10.493  0.00  0.00    +0.000 A 
ATOM     25  N   UNL     1      44.086   2.245   9.592  0.00  0.00    +0.000 NA
ATOM     26  C   UNL     1      44.628   2.462   8.442  0.00  0.00    +0.000 A 
ATOM     27  N   UNL     1      45.326   3.591   8.108  0.00  0.00    +0.000 N 
ATOM     28  C   UNL     1      45.584   4.600   9.004  0.00  0.00    +0.000 A 
ATOM     29  O   UNL     1      46.322   5.535   8.709  0.00  0.00    +0.000 OA
ATOM     30  C   UNL     1      44.962   4.427  10.305  0.00  0.00    +0.000 A 
ATOM     31  H   UNL     1      45.748   3.688   7.196  0.00  0.00    +0.000 HD
ENDBRANCH  18  21
ENDBRANCH   1  19
TORSDOF 7
ENDMDL
MODEL 7
REMARK VINA RESULT:    -6.763      4.654      7.418
REMARK INTER + INTRA:         -10.439
REMARK INTER:                  -9.463
REMARK INTRA:                  -0.976
REMARK UNBOUND:                -0.909
REMARK  Name = 
REMARK  7 active torsions:
REMARK  status: ('A' for Active; 'I' for Inactive)
REMARK    1  A    between atoms: C_2  and  C_19
REMARK    2  A    between atoms: N_3  and  C_4
REMARK    3  A    between atoms: C_4  and  C_5
REMARK    4  A    between atoms: C_8  and  C_9
REMARK    5  A    between atoms: C_9  and  C_10
REMARK    6  A    between atoms: C_10  and  C_11
REMARK    7  A    between atoms: C_11  and  N_12
REMARK                            x       y       z     vdW  Elec       q    Type
REMARK                         _______ _______ _______ _____ _____    ______ ____
ROOT
ATOM      1  C   UNL     1      46.310   8.234  12.905  0.00  0.00    +0.000 C 
ENDROOT
BRANCH   1   2
ATOM      2  C   UNL     1      47.720   8.366  12.392  0.00  0.00    +0.000 A 
ATOM      3  C   UNL     1      48.184   9.597  11.913  0.00  0.00    +0.000 A 
ATOM      4  C   UNL     1      49.480   9.720  11.410  0.00  0.00    +0.000 A 
ATOM      5  C   UNL     1      50.331   8.607  11.366  0.00  0.00    +0.000 A 
ATOM      6  C   UNL     1      49.863   7.373  11.827  0.00  0.00    +0.000 A 
ATOM      7  C   UNL     1      48.567   7.251  12.334  0.00  0.00    +0.000 A 
BRANCH   5   8
ATOM      8  C   UNL     1      51.737   8.735  10.833  0.00  0.00    +0.000 C 
BRANCH   8   9
ATOM      9  C   UNL     1      52.185   7.540   9.991  0.00  0.00    +0.000 C 
BRANCH   9  10
ATOM     10  C   UNL     1      53.568   7.695   9.335  0.00  0.00    +0.000 C 
BRANCH  10  11
ATOM     11  N   UNL     1      53.655   6.882   8.119  0.00  0.00    +0.000 NA
ATOM     12  C   UNL     1      53.962   5.477   8.378  0.00  0.00    +0.000 C 
ATOM     13  C   UNL     1      53.486   4.826   7.100  0.00  0.00    +0.000 C 
ATOM     14  N   UNL     1      52.224   5.524   6.828  0.00  0.00    +0.000 NA
ATOM     15  C   UNL     1      52.442   6.892   7.312  0.00  0.00    +0.000 C 
ATOM     16  H   UNL     1      51.507   5.112   7.422  0.00  0.00    +0.000 HD
ENDBRANCH  10  11
ENDBRANCH   9  10
ENDBRANCH   8   9
ENDBRANCH   5   8
ENDBRANCH   1   2
BRANCH   1  19
ATOM     17  O   UNL     1      44.329   7.611  11.002  0.00  0.00    +0.000 OA
ATOM     18  C   UNL     1      44.858   6.701  11.631  0.00  0.00    +0.000 C 
ATOM     19  N   UNL     1      45.781   6.926  12.622  0.00  0.00    +0.000 N 
ATOM     20  H   UNL     1      46.330   6.147  12.965  0.00  0.00    +0.000 HD
BRANCH  18  21
ATOM     21  C   UNL     1      44.485   5.297  11.411  0.00  0.00    +0.000 A 
ATOM     22  C   UNL     1      43.693   4.640  12.342  0.00  0.00    +0.000 A 
ATOM     23  S   UNL     1      43.392   3.006  11.953  0.00  0.00    +0.000 S 
ATOM     24  C   UNL     1      44.267   3.134  10.500  0.00  0.00    +0.000 A 
ATOM     25  N   UNL     1      44.383   2.071   9.655  0.00  0.00    +0.000 NA
ATOM     26  C   UNL     1      45.034   2.322   8.569  0.00  0.00    +0.000 A 
ATOM     27  N   UNL     1      45.583   3.534   8.250  0.00  0.00    +0.000 N 
ATOM     28  C   UNL     1      45.555   4.613   9.102  0.00  0.00    +0.000 A 
ATOM     29  O   UNL     1      46.169   5.642   8.840  0.00  0.00    +0.000 OA
ATOM     30  C   UNL     1      44.799   4.399  10.323  0.00  0.00    +0.000 A 
ATOM     31  H   UNL     1      46.102   3.659   7.394  0.00  0.00    +0.000 HD
ENDBRANCH  18  21
ENDBRANCH   1  19
TORSDOF 7
ENDMDL
MODEL 8
REMARK VINA RESULT:    -6.634      2.960      4.660
REMARK INTER + INTRA:         -10.257
REMARK INTER:                  -9.213
REMARK INTRA:                  -1.044
REMARK UNBOUND:                -0.909
REMARK  Name = 
REMARK  7 active torsions:
REMARK  status: ('A' for Active; 'I' for Inactive)
REMARK    1  A    between atoms: C_2  and  C_19
REMARK    2  A    between atoms: N_3  and  C_4
REMARK    3  A    between atoms: C_4  and  C_5
REMARK    4  A    between atoms: C_8  and  C_9
REMARK    5  A    between atoms: C_9  and  C_10
REMARK    6  A    between atoms: C_10  and  C_11
REMARK    7  A    between atoms: C_11  and  N_12
REMARK                            x       y       z     vdW  Elec       q    Type
REMARK                         _______ _______ _______ _____ _____    ______ ____
ROOT
ATOM      1  C   UNL     1      47.541   5.865  14.215  0.00  0.00    +0.000 C 
ENDROOT
BRANCH   1   2
ATOM      2  C   UNL     1      46.605   5.483  13.099  0.00  0.00    +0.000 A 
ATOM      3  C   UNL     1      45.806   4.339  13.209  0.00  0.00    +0.000 A 
ATOM      4  C   UNL     1      44.957   3.963  12.167  0.00  0.00    +0.000 A 
ATOM      5  C   UNL     1      44.903   4.721  10.989  0.00  0.00    +0.000 A 
ATOM      6  C   UNL     1      45.712   5.854  10.870  0.00  0.00    +0.000 A 
ATOM      7  C   UNL     1      46.560   6.232  11.915  0.00  0.00    +0.000 A 
BRANCH   5   8
ATOM      8  C   UNL     1      43.979   4.326   9.862  0.00  0.00    +0.000 C 
BRANCH   8   9
ATOM      9  C   UNL     1      44.712   3.888   8.593  0.00  0.00    +0.000 C 
BRANCH   9  10
ATOM     10  C   UNL     1      45.386   2.508   8.682  0.00  0.00    +0.000 C 
BRANCH  10  11
ATOM     11  N   UNL     1      46.018   2.162   7.406  0.00  0.00    +0.000 NA
ATOM     12  C   UNL     1      46.712   3.283   6.776  0.00  0.00    +0.000 C 
ATOM     13  C   UNL     1      47.652   2.563   5.836  0.00  0.00    +0.000 C 
ATOM     14  N   UNL     1      48.132   1.441   6.650  0.00  0.00    +0.000 NA
ATOM     15  C   UNL     1      46.992   1.082   7.500  0.00  0.00    +0.000 C 
ATOM     16  H   UNL     1      48.861   1.794   7.267  0.00  0.00    +0.000 HD
ENDBRANCH  10  11
ENDBRANCH   9  10
ENDBRANCH   8   9
ENDBRANCH   5   8
ENDBRANCH   1   2
BRANCH   1  19
ATOM     17  O   UNL     1      49.107   7.603  15.784  0.00  0.00    +0.000 OA
ATOM     18  C   UNL     1      49.336   7.515  14.582  0.00  0.00    +0.000 C 
ATOM     19  N   UNL     1      48.575   6.744  13.739  0.00  0.00    +0.000 N 
ATOM     20  H   UNL     1      48.924   6.549  12.808  0.00  0.00    +0.000 HD
BRANCH  18  21
ATOM     21  C   UNL     1      50.409   8.292  13.947  0.00  0.00    +0.000 A 
ATOM     22  C   UNL     1      51.713   8.167  14.405  0.00  0.00    +0.000 A 
ATOM     23  S   UNL     1      52.825   9.171  13.586  0.00  0.00    +0.000 S 
ATOM     24  C   UNL     1      51.609   9.770  12.557  0.00  0.00    +0.000 A 
ATOM     25  N   UNL     1      51.901  10.673  11.579  0.00  0.00    +0.000 NA
ATOM     26  C   UNL     1      50.894  11.004  10.843  0.00  0.00    +0.000 A 
ATOM     27  N   UNL     1      49.622  10.521  10.995  0.00  0.00    +0.000 N 
ATOM     28  C   UNL     1      49.266   9.666  12.011  0.00  0.00    +0.000 A 
ATOM     29  O   UNL     1      48.094   9.356  12.195  0.00  0.00    +0.000 OA
ATOM     30  C   UNL     1      50.370   9.227  12.846  0.00  0.00    +0.000 A 
ATOM     31  H   UNL     1      48.872  10.840  10.400  0.00  0.00    +0.000 HD
ENDBRANCH  18  21
ENDBRANCH   1  19
TORSDOF 7
ENDMDL
MODEL 9
REMARK VINA RESULT:    -6.523      3.566      5.916
REMARK INTER + INTRA:         -10.102
REMARK INTER:                  -9.039
REMARK INTRA:                  -1.063
REMARK UNBOUND:                -0.909
REMARK  Name = 
REMARK  7 active torsions:
REMARK  status: ('A' for Active; 'I' for Inactive)
REMARK    1  A    between atoms: C_2  and  C_19
REMARK    2  A    between atoms: N_3  and  C_4
REMARK    3  A    between atoms: C_4  and  C_5
REMARK    4  A    between atoms: C_8  and  C_9
REMARK    5  A    between atoms: C_9  and  C_10
REMARK    6  A    between atoms: C_10  and  C_11
REMARK    7  A    between atoms: C_11  and  N_12
REMARK                            x       y       z     vdW  Elec       q    Type
REMARK                         _______ _______ _______ _____ _____    ______ ____
ROOT
ATOM      1  C   UNL     1      48.035   3.351  17.776  0.00  0.00    +0.000 C 
ENDROOT
BRANCH   1   2
ATOM      2  C   UNL     1      47.850   4.217  16.557  0.00  0.00    +0.000 A 
ATOM      3  C   UNL     1      47.133   3.739  15.455  0.00  0.00    +0.000 A 
ATOM      4  C   UNL     1      46.981   4.525  14.311  0.00  0.00    +0.000 A 
ATOM      5  C   UNL     1      47.557   5.801  14.248  0.00  0.00    +0.000 A 
ATOM      6  C   UNL     1      48.288   6.273  15.342  0.00  0.00    +0.000 A 
ATOM      7  C   UNL     1      48.437   5.488  16.488  0.00  0.00    +0.000 A 
BRANCH   5   8
ATOM      8  C   UNL     1      47.389   6.660  13.019  0.00  0.00    +0.000 C 
BRANCH   8   9
ATOM      9  C   UNL     1      46.567   5.996  11.914  0.00  0.00    +0.000 C 
BRANCH   9  10
ATOM     10  C   UNL     1      45.197   6.644  11.651  0.00  0.00    +0.000 C 
BRANCH  10  11
ATOM     11  N   UNL     1      44.135   5.636  11.698  0.00  0.00    +0.000 NA
ATOM     12  C   UNL     1      44.475   4.398  11.000  0.00  0.00    +0.000 C 
ATOM     13  C   UNL     1      43.504   3.424  11.628  0.00  0.00    +0.000 C 
ATOM     14  N   UNL     1      43.541   3.795  13.047  0.00  0.00    +0.000 NA
ATOM     15  C   UNL     1      43.744   5.248  13.048  0.00  0.00    +0.000 C 
ATOM     16  H   UNL     1      44.376   3.380  13.455  0.00  0.00    +0.000 HD
ENDBRANCH  10  11
ENDBRANCH   9  10
ENDBRANCH   8   9
ENDBRANCH   5   8
ENDBRANCH   1   2
BRANCH   1  19
ATOM     17  O   UNL     1      49.673   1.650  16.240  0.00  0.00    +0.000 OA
ATOM     18  C   UNL     1      50.172   2.280  17.167  0.00  0.00    +0.000 C 
ATOM     19  N   UNL     1      49.429   3.076  18.003  0.00  0.00    +0.000 N 
ATOM     20  H   UNL     1      49.911   3.724  18.615  0.00  0.00    +0.000 HD
BRANCH  18  21
ATOM     21  C   UNL     1      51.601   2.171  17.488  0.00  0.00    +0.000 A 
ATOM     22  C   UNL     1      52.184   0.918  17.618  0.00  0.00    +0.000 A 
ATOM     23  S   UNL     1      53.838   0.973  18.036  0.00  0.00    +0.000 S 
ATOM     24  C   UNL     1      53.845   2.674  18.006  0.00  0.00    +0.000 A 
ATOM     25  N   UNL     1      54.986   3.375  18.257  0.00  0.00    +0.000 NA
ATOM     26  C   UNL     1      54.858   4.655  18.155  0.00  0.00    +0.000 A 
ATOM     27  N   UNL     1      53.696   5.301  17.829  0.00  0.00    +0.000 N 
ATOM     28  C   UNL     1      52.505   4.642  17.640  0.00  0.00    +0.000 A 
ATOM     29  O   UNL     1      51.458   5.260  17.478  0.00  0.00    +0.000 OA
ATOM     30  C   UNL     1      52.599   3.194  17.702  0.00  0.00    +0.000 A 
ATOM     31  H   UNL     1      53.656   6.309  17.790  0.00  0.00    +0.000 HD
ENDBRANCH  18  21
ENDBRANCH   1  19
TORSDOF 7
ENDMDL
