MODEL 1
REMARK VINA RESULT:    -8.961      0.000      0.000
REMARK INTER + INTRA:         -11.662
REMARK INTER:                 -11.056
REMARK INTRA:                  -0.606
REMARK UNBOUND:                -0.606
REMARK  Name = 
REMARK  4 active torsions:
REMARK  status: ('A' for Active; 'I' for Inactive)
REMARK    1  A    between atoms: C_2  and  C_4
REMARK    2  A    between atoms: N_8  and  C_9
REMARK    3  A    between atoms: C_9  and  C_10
REMARK    4  A    between atoms: C_14  and  C_15
REMARK                            x       y       z     vdW  Elec       q    Type
REMARK                         _______ _______ _______ _____ _____    ______ ____
ROOT
ATOM      1  C   UNL     1      43.571   3.867  11.113  0.00  0.00    +0.000 C 
ENDROOT
BRANCH   1   6
ATOM      2  C   UNL     1      46.624   2.521   7.224  0.00  0.00    +0.000 A 
ATOM      3  C   UNL     1      46.047   3.742   7.560  0.00  0.00    +0.000 A 
ATOM      4  C   UNL     1      45.221   3.815   8.679  0.00  0.00    +0.000 A 
ATOM      5  C   UNL     1      44.974   2.679   9.448  0.00  0.00    +0.000 A 
ATOM      6  N   UNL     1      44.171   2.685  10.553  0.00  0.00    +0.000 N 
ATOM      7  N   UNL     1      45.515   1.488   9.117  0.00  0.00    +0.000 NA
ATOM      8  C   UNL     1      46.315   1.427   8.017  0.00  0.00    +0.000 A 
ATOM      9  H   UNL     1      44.099   1.797  11.034  0.00  0.00    +0.000 HD
BRANCH   2  11
ATOM     10  N   UNL     1      47.443   3.295   5.075  0.00  0.00    +0.000 N 
ATOM     11  C   UNL     1      47.520   2.353   6.065  0.00  0.00    +0.000 C 
ATOM     12  O   UNL     1      48.321   1.430   5.999  0.00  0.00    +0.000 OA
ATOM     13  H   UNL     1      48.130   3.229   4.336  0.00  0.00    +0.000 HD
ATOM     14  H   UNL     1      46.984   4.186   5.206  0.00  0.00    +0.000 HD
ENDBRANCH   2  11
ENDBRANCH   1   6
BRANCH   1  15
ATOM     15  C   UNL     1      44.615   4.750  11.748  0.00  0.00    +0.000 A 
ATOM     16  C   UNL     1      44.771   6.072  11.317  0.00  0.00    +0.000 A 
ATOM     17  C   UNL     1      45.755   6.879  11.879  0.00  0.00    +0.000 A 
ATOM     18  C   UNL     1      46.563   6.384  12.904  0.00  0.00    +0.000 A 
ATOM     19  C   UNL     1      46.393   5.081  13.410  0.00  0.00    +0.000 A 
ATOM     20  C   UNL     1      45.426   4.267  12.792  0.00  0.00    +0.000 A 
BRANCH  19  21
ATOM     21  C   UNL     1      47.156   4.607  14.583  0.00  0.00    +0.000 A 
ATOM     22  C   UNL     1      47.678   5.497  15.527  0.00  0.00    +0.000 A 
ATOM     23  C   UNL     1      48.351   5.007  16.646  0.00  0.00    +0.000 A 
ATOM     24  C   UNL     1      48.486   3.637  16.803  0.00  0.00    +0.000 A 
ATOM     25 CL   UNL     1      49.292   2.993  18.172  0.00  0.00    +0.000 Cl
ATOM     26  C   UNL     1      47.944   2.812  15.830  0.00  0.00    +0.000 A 
ATOM     27  N   UNL     1      47.283   3.261  14.731  0.00  0.00    +0.000 NA
ENDBRANCH  19  21
ENDBRANCH   1  15
TORSDOF 4
ENDMDL
MODEL 2
REMARK VINA RESULT:    -8.313      3.203      4.213
REMARK INTER + INTRA:         -10.863
REMARK INTER:                 -10.148
REMARK INTRA:                  -0.715
REMARK UNBOUND:                -0.606
REMARK  Name = 
REMARK  4 active torsions:
REMARK  status: ('A' for Active; 'I' for Inactive)
REMARK    1  A    between atoms: C_2  and  C_4
REMARK    2  A    between atoms: N_8  and  C_9
REMARK    3  A    between atoms: C_9  and  C_10
REMARK    4  A    between atoms: C_14  and  C_15
REMARK                            x       y       z     vdW  Elec       q    Type
REMARK                         _______ _______ _______ _____ _____    ______ ____
ROOT
ATOM      1  C   UNL     1      43.868   4.845  11.124  0.00  0.00    +0.000 C 
ENDROOT
BRANCH   1   6
ATOM      2  C   UNL     1      46.569   2.694   7.337  0.00  0.00    +0.000 A 
ATOM      3  C   UNL     1      46.385   4.026   7.693  0.00  0.00    +0.000 A 
ATOM      4  C   UNL     1      45.558   4.330   8.773  0.00  0.00    +0.000 A 
ATOM      5  C   UNL     1      44.923   3.313   9.483  0.00  0.00    +0.000 A 
ATOM      6  N   UNL     1      44.099   3.547  10.547  0.00  0.00    +0.000 N 
ATOM      7  N   UNL     1      45.083   2.020   9.131  0.00  0.00    +0.000 NA
ATOM      8  C   UNL     1      45.886   1.735   8.070  0.00  0.00    +0.000 A 
ATOM      9  H   UNL     1      43.724   2.716  10.988  0.00  0.00    +0.000 HD
BRANCH   2  11
ATOM     10  N   UNL     1      47.341   2.998   5.058  0.00  0.00    +0.000 N 
ATOM     11  C   UNL     1      47.434   2.278   6.218  0.00  0.00    +0.000 C 
ATOM     12  O   UNL     1      48.225   1.350   6.326  0.00  0.00    +0.000 OA
ATOM     13  H   UNL     1      48.009   2.772   4.333  0.00  0.00    +0.000 HD
ATOM     14  H   UNL     1      46.894   3.903   5.013  0.00  0.00    +0.000 HD
ENDBRANCH   2  11
ENDBRANCH   1   6
BRANCH   1  15
ATOM     15  C   UNL     1      45.021   5.254  12.004  0.00  0.00    +0.000 A 
ATOM     16  C   UNL     1      45.374   4.469  13.108  0.00  0.00    +0.000 A 
ATOM     17  C   UNL     1      46.416   4.861  13.941  0.00  0.00    +0.000 A 
ATOM     18  C   UNL     1      47.140   6.019  13.653  0.00  0.00    +0.000 A 
ATOM     19  C   UNL     1      46.860   6.800  12.516  0.00  0.00    +0.000 A 
ATOM     20  C   UNL     1      45.768   6.412  11.718  0.00  0.00    +0.000 A 
BRANCH  19  21
ATOM     21  C   UNL     1      47.712   7.947  12.141  0.00  0.00    +0.000 A 
ATOM     22  C   UNL     1      49.054   7.776  11.784  0.00  0.00    +0.000 A 
ATOM     23  C   UNL     1      49.813   8.878  11.389  0.00  0.00    +0.000 A 
ATOM     24  C   UNL     1      49.216  10.128  11.355  0.00  0.00    +0.000 A 
ATOM     25 CL   UNL     1      50.109  11.506  10.861  0.00  0.00    +0.000 Cl
ATOM     26  C   UNL     1      47.883  10.225  11.721  0.00  0.00    +0.000 A 
ATOM     27  N   UNL     1      47.120   9.170  12.108  0.00  0.00    +0.000 NA
ENDBRANCH  19  21
ENDBRANCH   1  15
TORSDOF 4
ENDMDL
MODEL 3
REMARK VINA RESULT:    -7.762      4.219      7.292
REMARK INTER + INTRA:         -10.184
REMARK INTER:                  -9.415
REMARK INTRA:                  -0.768
REMARK UNBOUND:                -0.606
REMARK  Name = 
REMARK  4 active torsions:
REMARK  status: ('A' for Active; 'I' for Inactive)
REMARK    1  A    between atoms: C_2  and  C_4
REMARK    2  A    between atoms: N_8  and  C_9
REMARK    3  A    between atoms: C_9  and  C_10
REMARK    4  A    between atoms: C_14  and  C_15
REMARK                            x       y       z     vdW  Elec       q    Type
REMARK                         _______ _______ _______ _____ _____    ______ ____
ROOT
ATOM      1  C   UNL     1      44.770   6.103  12.910  0.00  0.00    +0.000 C 
ENDROOT
BRANCH   1   6
ATOM      2  C   UNL     1      49.590   7.792  12.496  0.00  0.00    +0.000 A 
ATOM      3  C   UNL     1      48.500   7.906  11.640  0.00  0.00    +0.000 A 
ATOM      4  C   UNL     1      47.291   7.314  12.001  0.00  0.00    +0.000 A 
ATOM      5  C   UNL     1      47.179   6.614  13.201  0.00  0.00    +0.000 A 
ATOM      6  N   UNL     1      46.025   6.009  13.609  0.00  0.00    +0.000 N 
ATOM      7  N   UNL     1      48.239   6.483  14.027  0.00  0.00    +0.000 NA
ATOM      8  C   UNL     1      49.416   7.060  13.661  0.00  0.00    +0.000 A 
ATOM      9  H   UNL     1      46.075   5.558  14.514  0.00  0.00    +0.000 HD
BRANCH   2  11
ATOM     10  N   UNL     1      51.839   7.593  11.609  0.00  0.00    +0.000 N 
ATOM     11  C   UNL     1      50.903   8.396  12.203  0.00  0.00    +0.000 C 
ATOM     12  O   UNL     1      51.141   9.570  12.449  0.00  0.00    +0.000 OA
ATOM     13  H   UNL     1      52.698   8.042  11.319  0.00  0.00    +0.000 HD
ATOM     14  H   UNL     1      51.604   6.713  11.172  0.00  0.00    +0.000 HD
ENDBRANCH   2  11
ENDBRANCH   1   6
BRANCH   1  15
ATOM     15  C   UNL     1      44.480   4.833  12.152  0.00  0.00    +0.000 A 
ATOM     16  C   UNL     1      43.474   3.967  12.594  0.00  0.00    +0.000 A 
ATOM     17  C   UNL     1      43.226   2.778  11.916  0.00  0.00    +0.000 A 
ATOM     18  C   UNL     1      43.954   2.466  10.767  0.00  0.00    +0.000 A 
ATOM     19  C   UNL     1      44.928   3.342  10.252  0.00  0.00    +0.000 A 
ATOM     20  C   UNL     1      45.197   4.513  10.985  0.00  0.00    +0.000 A 
BRANCH  19  21
ATOM     21  C   UNL     1      45.600   3.074   8.964  0.00  0.00    +0.000 A 
ATOM     22  C   UNL     1      45.833   4.092   8.033  0.00  0.00    +0.000 A 
ATOM     23  C   UNL     1      46.515   3.807   6.850  0.00  0.00    +0.000 A 
ATOM     24  C   UNL     1      46.953   2.514   6.621  0.00  0.00    +0.000 A 
ATOM     25 CL   UNL     1      47.808   2.125   5.186  0.00  0.00    +0.000 Cl
ATOM     26  C   UNL     1      46.689   1.554   7.585  0.00  0.00    +0.000 A 
ATOM     27  N   UNL     1      46.029   1.802   8.747  0.00  0.00    +0.000 NA
ENDBRANCH  19  21
ENDBRANCH   1  15
TORSDOF 4
ENDMDL
MODEL 4
REMARK VINA RESULT:    -7.473      4.137      7.356
REMARK INTER + INTRA:          -9.827
REMARK INTER:                  -9.859
REMARK INTRA:                   0.031
REMARK UNBOUND:                -0.606
REMARK  Name = 
REMARK  4 active torsions:
REMARK  status: ('A' for Active; 'I' for Inactive)
REMARK    1  A    between atoms: C_2  and  C_4
REMARK    2  A    between atoms: N_8  and  C_9
REMARK    3  A    between atoms: C_9  and  C_10
REMARK    4  A    between atoms: C_14  and  C_15
REMARK                            x       y       z     vdW  Elec       q    Type
REMARK                         _______ _______ _______ _____ _____    ______ ____
ROOT
ATOM      1  C   UNL     1      42.857   6.358  11.366  0.00  0.00    +0.000 C 
ENDROOT
BRANCH   1   6
ATOM      2  C   UNL     1      47.557   6.884  13.338  0.00  0.00    +0.000 A 
ATOM      3  C   UNL     1      46.565   5.936  13.567  0.00  0.00    +0.000 A 
ATOM      4  C   UNL     1      45.348   6.056  12.900  0.00  0.00    +0.000 A 
ATOM      5  C   UNL     1      45.128   7.112  12.018  0.00  0.00    +0.000 A 
ATOM      6  N   UNL     1      43.956   7.286  11.337  0.00  0.00    +0.000 N 
ATOM      7  N   UNL     1      46.079   8.045  11.805  0.00  0.00    +0.000 NA
ATOM      8  C   UNL     1      47.262   7.922  12.468  0.00  0.00    +0.000 A 
ATOM      9  H   UNL     1      43.941   8.080  10.709  0.00  0.00    +0.000 HD
BRANCH   2  11
ATOM     10  N   UNL     1      49.946   7.298  13.272  0.00  0.00    +0.000 N 
ATOM     11  C   UNL     1      48.879   6.831  13.989  0.00  0.00    +0.000 C 
ATOM     12  O   UNL     1      49.017   6.416  15.132  0.00  0.00    +0.000 OA
ATOM     13  H   UNL     1      50.829   7.353  13.763  0.00  0.00    +0.000 HD
ATOM     14  H   UNL     1      49.839   7.865  12.443  0.00  0.00    +0.000 HD
ENDBRANCH   2  11
ENDBRANCH   1   6
BRANCH   1  15
ATOM     15  C   UNL     1      43.334   4.951  11.114  0.00  0.00    +0.000 A 
ATOM     16  C   UNL     1      42.861   3.897  11.904  0.00  0.00    +0.000 A 
ATOM     17  C   UNL     1      43.324   2.603  11.695  0.00  0.00    +0.000 A 
ATOM     18  C   UNL     1      44.234   2.345  10.668  0.00  0.00    +0.000 A 
ATOM     19  C   UNL     1      44.683   3.366   9.810  0.00  0.00    +0.000 A 
ATOM     20  C   UNL     1      44.240   4.675  10.074  0.00  0.00    +0.000 A 
BRANCH  19  21
ATOM     21  C   UNL     1      45.538   3.068   8.643  0.00  0.00    +0.000 A 
ATOM     22  C   UNL     1      46.012   1.776   8.392  0.00  0.00    +0.000 A 
ATOM     23  C   UNL     1      46.777   1.525   7.253  0.00  0.00    +0.000 A 
ATOM     24  C   UNL     1      47.050   2.569   6.384  0.00  0.00    +0.000 A 
ATOM     25 CL   UNL     1      47.974   2.301   4.964  0.00  0.00    +0.000 Cl
ATOM     26  C   UNL     1      46.549   3.824   6.692  0.00  0.00    +0.000 A 
ATOM     27  N   UNL     1      45.802   4.096   7.793  0.00  0.00    +0.000 NA
ENDBRANCH  19  21
ENDBRANCH   1  15
TORSDOF 4
ENDMDL
MODEL 5
REMARK VINA RESULT:    -7.221      3.036      3.735
REMARK INTER + INTRA:          -9.516
REMARK INTER:                  -8.840
REMARK INTRA:                  -0.676
REMARK UNBOUND:                -0.606
REMARK  Name = 
REMARK  4 active torsions:
REMARK  status: ('A' for Active; 'I' for Inactive)
REMARK    1  A    between atoms: C_2  and  C_4
REMARK    2  A    between atoms: N_8  and  C_9
REMARK    3  A    between atoms: C_9  and  C_10
REMARK    4  A    between atoms: C_14  and  C_15
REMARK                            x       y       z     vdW  Elec       q    Type
REMARK                         _______ _______ _______ _____ _____    ______ ____
ROOT
ATOM      1  C   UNL     1      44.522   5.814  10.902  0.00  0.00    +0.000 C 
ENDROOT
BRANCH   1   6
ATOM      2  C   UNL     1      46.370   2.162   7.817  0.00  0.00    +0.000 A 
ATOM      3  C   UNL     1      45.801   2.094   9.085  0.00  0.00    +0.000 A 
ATOM      4  C   UNL     1      45.404   3.272   9.714  0.00  0.00    +0.000 A 
ATOM      5  C   UNL     1      45.579   4.502   9.081  0.00  0.00    +0.000 A 
ATOM      6  N   UNL     1      45.215   5.691   9.646  0.00  0.00    +0.000 N 
ATOM      7  N   UNL     1      46.148   4.577   7.860  0.00  0.00    +0.000 NA
ATOM      8  C   UNL     1      46.538   3.420   7.258  0.00  0.00    +0.000 A 
ATOM      9  H   UNL     1      45.373   6.506   9.067  0.00  0.00    +0.000 HD
BRANCH   2  11
ATOM     10  N   UNL     1      46.704  -0.238   7.711  0.00  0.00    +0.000 N 
ATOM     11  C   UNL     1      46.808   0.968   7.072  0.00  0.00    +0.000 C 
ATOM     12  O   UNL     1      47.219   1.041   5.922  0.00  0.00    +0.000 OA
ATOM     13  H   UNL     1      46.909  -1.060   7.158  0.00  0.00    +0.000 HD
ATOM     14  H   UNL     1      46.150  -0.366   8.546  0.00  0.00    +0.000 HD
ENDBRANCH   2  11
ENDBRANCH   1   6
BRANCH   1  15
ATOM     15  C   UNL     1      45.477   5.667  12.058  0.00  0.00    +0.000 A 
ATOM     16  C   UNL     1      45.252   4.688  13.034  0.00  0.00    +0.000 A 
ATOM     17  C   UNL     1      46.113   4.572  14.120  0.00  0.00    +0.000 A 
ATOM     18  C   UNL     1      47.228   5.405  14.218  0.00  0.00    +0.000 A 
ATOM     19  C   UNL     1      47.526   6.357  13.224  0.00  0.00    +0.000 A 
ATOM     20  C   UNL     1      46.613   6.491  12.162  0.00  0.00    +0.000 A 
BRANCH  19  21
ATOM     21  C   UNL     1      48.777   7.142  13.261  0.00  0.00    +0.000 A 
ATOM     22  C   UNL     1      49.384   7.497  14.471  0.00  0.00    +0.000 A 
ATOM     23  C   UNL     1      50.590   8.197  14.463  0.00  0.00    +0.000 A 
ATOM     24  C   UNL     1      51.169   8.527  13.249  0.00  0.00    +0.000 A 
ATOM     25 CL   UNL     1      52.658   9.373  13.195  0.00  0.00    +0.000 Cl
ATOM     26  C   UNL     1      50.514   8.144  12.088  0.00  0.00    +0.000 A 
ATOM     27  N   UNL     1      49.339   7.461  12.066  0.00  0.00    +0.000 NA
ENDBRANCH  19  21
ENDBRANCH   1  15
TORSDOF 4
ENDMDL
MODEL 6
REMARK VINA RESULT:    -7.178      4.203      7.151
REMARK INTER + INTRA:          -9.463
REMARK INTER:                  -8.908
REMARK INTRA:                  -0.555
REMARK UNBOUND:                -0.606
REMARK  Name = 
REMARK  4 active torsions:
REMARK  status: ('A' for Active; 'I' for Inactive)
REMARK    1  A    between atoms: C_2  and  C_4
REMARK    2  A    between atoms: N_8  and  C_9
REMARK    3  A    between atoms: C_9  and  C_10
REMARK    4  A    between atoms: C_14  and  C_15
REMARK                            x       y       z     vdW  Elec       q    Type
REMARK                         _______ _______ _______ _____ _____    ______ ____
ROOT
ATOM      1  C   UNL     1      45.822   4.915  14.101  0.00  0.00    +0.000 C 
ENDROOT
BRANCH   1   6
ATOM      2  C   UNL     1      48.742   8.611  12.085  0.00  0.00    +0.000 A 
ATOM      3  C   UNL     1      47.367   8.529  12.278  0.00  0.00    +0.000 A 
ATOM      4  C   UNL     1      46.830   7.370  12.834  0.00  0.00    +0.000 A 
ATOM      5  C   UNL     1      47.660   6.308  13.189  0.00  0.00    +0.000 A 
ATOM      6  N   UNL     1      47.194   5.145  13.734  0.00  0.00    +0.000 N 
ATOM      7  N   UNL     1      48.993   6.374  12.987  0.00  0.00    +0.000 NA
ATOM      8  C   UNL     1      49.505   7.508  12.436  0.00  0.00    +0.000 A 
ATOM      9  H   UNL     1      47.908   4.467  13.969  0.00  0.00    +0.000 HD
BRANCH   2  11
ATOM     10  N   UNL     1      48.588  10.769  10.987  0.00  0.00    +0.000 N 
ATOM     11  C   UNL     1      49.399   9.802  11.515  0.00  0.00    +0.000 C 
ATOM     12  O   UNL     1      50.615   9.938  11.536  0.00  0.00    +0.000 OA
ATOM     13  H   UNL     1      49.039  11.625  10.692  0.00  0.00    +0.000 HD
ATOM     14  H   UNL     1      47.595  10.807  11.172  0.00  0.00    +0.000 HD
ENDBRANCH   2  11
ENDBRANCH   1   6
BRANCH   1  15
ATOM     15  C   UNL     1      44.970   4.688  12.878  0.00  0.00    +0.000 A 
ATOM     16  C   UNL     1      43.619   5.053  12.886  0.00  0.00    +0.000 A 
ATOM     17  C   UNL     1      42.823   4.815  11.771  0.00  0.00    +0.000 A 
ATOM     18  C   UNL     1      43.381   4.249  10.624  0.00  0.00    +0.000 A 
ATOM     19  C   UNL     1      44.750   3.929  10.552  0.00  0.00    +0.000 A 
ATOM     20  C   UNL     1      45.523   4.131  11.710  0.00  0.00    +0.000 A 
BRANCH  19  21
ATOM     21  C   UNL     1      45.364   3.457   9.294  0.00  0.00    +0.000 A 
ATOM     22  C   UNL     1      45.773   4.349   8.298  0.00  0.00    +0.000 A 
ATOM     23  C   UNL     1      46.393   3.867   7.145  0.00  0.00    +0.000 A 
ATOM     24  C   UNL     1      46.597   2.504   7.012  0.00  0.00    +0.000 A 
ATOM     25 CL   UNL     1      47.370   1.871   5.618  0.00  0.00    +0.000 Cl
ATOM     26  C   UNL     1      46.168   1.676   8.037  0.00  0.00    +0.000 A 
ATOM     27  N   UNL     1      45.562   2.118   9.171  0.00  0.00    +0.000 NA
ENDBRANCH  19  21
ENDBRANCH   1  15
TORSDOF 4
ENDMDL
MODEL 7
REMARK VINA RESULT:    -6.873      4.656      8.761
REMARK INTER + INTRA:          -9.087
REMARK INTER:                  -8.374
REMARK INTRA:                  -0.713
REMARK UNBOUND:                -0.606
REMARK  Name = 
REMARK  4 active torsions:
REMARK  status: ('A' for Active; 'I' for Inactive)
REMARK    1  A    between atoms: C_2  and  C_4
REMARK    2  A    between atoms: N_8  and  C_9
REMARK    3  A    between atoms: C_9  and  C_10
REMARK    4  A    between atoms: C_14  and  C_15
REMARK                            x       y       z     vdW  Elec       q    Type
REMARK                         _______ _______ _______ _____ _____    ______ ____
ROOT
ATOM      1  C   UNL     1      48.009   3.881  17.410  0.00  0.00    +0.000 C 
ENDROOT
BRANCH   1   6
ATOM      2  C   UNL     1      52.764   2.055  17.973  0.00  0.00    +0.000 A 
ATOM      3  C   UNL     1      52.210   3.291  18.290  0.00  0.00    +0.000 A 
ATOM      4  C   UNL     1      50.870   3.528  17.994  0.00  0.00    +0.000 A 
ATOM      5  C   UNL     1      50.096   2.541  17.387  0.00  0.00    +0.000 A 
ATOM      6  N   UNL     1      48.779   2.713  17.069  0.00  0.00    +0.000 N 
ATOM      7  N   UNL     1      50.632   1.346  17.060  0.00  0.00    +0.000 NA
ATOM      8  C   UNL     1      51.945   1.128  17.346  0.00  0.00    +0.000 A 
ATOM      9  H   UNL     1      48.329   1.906  16.656  0.00  0.00    +0.000 HD
BRANCH   2  11
ATOM     10  N   UNL     1      54.466   1.313  19.534  0.00  0.00    +0.000 N 
ATOM     11  C   UNL     1      54.169   1.711  18.259  0.00  0.00    +0.000 C 
ATOM     12  O   UNL     1      55.030   1.749  17.391  0.00  0.00    +0.000 OA
ATOM     13  H   UNL     1      55.408   0.982  19.695  0.00  0.00    +0.000 HD
ATOM     14  H   UNL     1      53.756   1.035  20.197  0.00  0.00    +0.000 HD
ENDBRANCH   2  11
ENDBRANCH   1   6
BRANCH   1  15
ATOM     15  C   UNL     1      47.975   4.855  16.260  0.00  0.00    +0.000 A 
ATOM     16  C   UNL     1      48.773   6.005  16.291  0.00  0.00    +0.000 A 
ATOM     17  C   UNL     1      48.719   6.922  15.247  0.00  0.00    +0.000 A 
ATOM     18  C   UNL     1      47.899   6.677  14.144  0.00  0.00    +0.000 A 
ATOM     19  C   UNL     1      47.132   5.500  14.045  0.00  0.00    +0.000 A 
ATOM     20  C   UNL     1      47.163   4.613  15.136  0.00  0.00    +0.000 A 
BRANCH  19  21
ATOM     21  C   UNL     1      46.371   5.180  12.820  0.00  0.00    +0.000 A 
ATOM     22  C   UNL     1      46.359   6.042  11.718  0.00  0.00    +0.000 A 
ATOM     23  C   UNL     1      45.668   5.680  10.561  0.00  0.00    +0.000 A 
ATOM     24  C   UNL     1      45.005   4.465  10.526  0.00  0.00    +0.000 A 
ATOM     25 CL   UNL     1      44.157   3.976   9.119  0.00  0.00    +0.000 Cl
ATOM     26  C   UNL     1      45.058   3.659  11.653  0.00  0.00    +0.000 A 
ATOM     27  N   UNL     1      45.724   3.985  12.792  0.00  0.00    +0.000 NA
ENDBRANCH  19  21
ENDBRANCH   1  15
TORSDOF 4
ENDMDL
MODEL 8
REMARK VINA RESULT:    -6.862      3.201      4.705
REMARK INTER + INTRA:          -9.072
REMARK INTER:                  -8.394
REMARK INTRA:                  -0.679
REMARK UNBOUND:                -0.606
REMARK  Name = 
REMARK  4 active torsions:
REMARK  status: ('A' for Active; 'I' for Inactive)
REMARK    1  A    between atoms: C_2  and  C_4
REMARK    2  A    between atoms: N_8  and  C_9
REMARK    3  A    between atoms: C_9  and  C_10
REMARK    4  A    between atoms: C_14  and  C_15
REMARK                            x       y       z     vdW  Elec       q    Type
REMARK                         _______ _______ _______ _____ _____    ______ ____
ROOT
ATOM      1  C   UNL     1      46.015   8.878  12.310  0.00  0.00    +0.000 C 
ENDROOT
BRANCH   1   6
ATOM      2  C   UNL     1      44.204   4.165  11.435  0.00  0.00    +0.000 A 
ATOM      3  C   UNL     1      44.945   5.028  10.635  0.00  0.00    +0.000 A 
ATOM      4  C   UNL     1      45.283   6.287  11.128  0.00  0.00    +0.000 A 
ATOM      5  C   UNL     1      44.879   6.675  12.404  0.00  0.00    +0.000 A 
ATOM      6  N   UNL     1      45.175   7.895  12.943  0.00  0.00    +0.000 N 
ATOM      7  N   UNL     1      44.143   5.850  13.178  0.00  0.00    +0.000 NA
ATOM      8  C   UNL     1      43.813   4.626  12.683  0.00  0.00    +0.000 A 
ATOM      9  H   UNL     1      44.843   8.037  13.888  0.00  0.00    +0.000 HD
BRANCH   2  11
ATOM     10  N   UNL     1      44.485   2.280   9.935  0.00  0.00    +0.000 N 
ATOM     11  C   UNL     1      43.811   2.812  11.001  0.00  0.00    +0.000 C 
ATOM     12  O   UNL     1      42.944   2.175  11.582  0.00  0.00    +0.000 OA
ATOM     13  H   UNL     1      44.281   1.315   9.709  0.00  0.00    +0.000 HD
ATOM     14  H   UNL     1      45.356   2.663   9.594  0.00  0.00    +0.000 HD
ENDBRANCH   2  11
ENDBRANCH   1   6
BRANCH   1  15
ATOM     15  C   UNL     1      47.469   8.606  12.597  0.00  0.00    +0.000 A 
ATOM     16  C   UNL     1      48.461   9.165  11.783  0.00  0.00    +0.000 A 
ATOM     17  C   UNL     1      49.802   8.890  12.025  0.00  0.00    +0.000 A 
ATOM     18  C   UNL     1      50.165   8.086  13.107  0.00  0.00    +0.000 A 
ATOM     19  C   UNL     1      49.202   7.559  13.988  0.00  0.00    +0.000 A 
ATOM     20  C   UNL     1      47.849   7.809  13.693  0.00  0.00    +0.000 A 
BRANCH  19  21
ATOM     21  C   UNL     1      49.596   6.823  15.207  0.00  0.00    +0.000 A 
ATOM     22  C   UNL     1      50.836   7.030  15.819  0.00  0.00    +0.000 A 
ATOM     23  C   UNL     1      51.151   6.351  16.996  0.00  0.00    +0.000 A 
ATOM     24  C   UNL     1      50.220   5.483  17.542  0.00  0.00    +0.000 A 
ATOM     25 CL   UNL     1      50.561   4.640  18.996  0.00  0.00    +0.000 Cl
ATOM     26  C   UNL     1      49.010   5.325  16.884  0.00  0.00    +0.000 A 
ATOM     27  N   UNL     1      48.677   5.973  15.737  0.00  0.00    +0.000 NA
ENDBRANCH  19  21
ENDBRANCH   1  15
TORSDOF 4
ENDMDL
MODEL 9
REMARK VINA RESULT:    -6.419      4.383      8.392
REMARK INTER + INTRA:          -8.526
REMARK INTER:                  -7.955
REMARK INTRA:                  -0.571
REMARK UNBOUND:                -0.606
REMARK  Name = 
REMARK  4 active torsions:
REMARK  status: ('A' for Active; 'I' for Inactive)
REMARK    1  A    between atoms: C_2  and  C_4
REMARK    2  A    between atoms: N_8  and  C_9
REMARK    3  A    between atoms: C_9  and  C_10
REMARK    4  A    between atoms: C_14  and  C_15
REMARK                            x       y       z     vdW  Elec       q    Type
REMARK                         _______ _______ _______ _____ _____    ______ ____
ROOT
ATOM      1  C   UNL     1      48.031   7.898  14.322  0.00  0.00    +0.000 C 
ENDROOT
BRANCH   1   6
ATOM      2  C   UNL     1      51.126   5.231  17.416  0.00  0.00    +0.000 A 
ATOM      3  C   UNL     1      51.367   6.331  16.599  0.00  0.00    +0.000 A 
ATOM      4  C   UNL     1      50.326   6.845  15.830  0.00  0.00    +0.000 A 
ATOM      5  C   UNL     1      49.061   6.262  15.876  0.00  0.00    +0.000 A 
ATOM      6  N   UNL     1      48.002   6.716  15.142  0.00  0.00    +0.000 N 
ATOM      7  N   UNL     1      48.825   5.182  16.651  0.00  0.00    +0.000 NA
ATOM      8  C   UNL     1      49.851   4.685  17.393  0.00  0.00    +0.000 A 
ATOM      9  H   UNL     1      47.134   6.216  15.291  0.00  0.00    +0.000 HD
BRANCH   2  11
ATOM     10  N   UNL     1      52.049   3.292  18.543  0.00  0.00    +0.000 N 
ATOM     11  C   UNL     1      52.163   4.628  18.273  0.00  0.00    +0.000 C 
ATOM     12  O   UNL     1      53.103   5.283  18.703  0.00  0.00    +0.000 OA
ATOM     13  H   UNL     1      52.818   2.866  19.044  0.00  0.00    +0.000 HD
ATOM     14  H   UNL     1      51.443   2.679  18.015  0.00  0.00    +0.000 HD
ENDBRANCH   2  11
ENDBRANCH   1   6
BRANCH   1  15
ATOM     15  C   UNL     1      46.927   7.867  13.296  0.00  0.00    +0.000 A 
ATOM     16  C   UNL     1      46.242   9.042  12.968  0.00  0.00    +0.000 A 
ATOM     17  C   UNL     1      45.201   9.011  12.046  0.00  0.00    +0.000 A 
ATOM     18  C   UNL     1      44.866   7.813  11.413  0.00  0.00    +0.000 A 
ATOM     19  C   UNL     1      45.575   6.624  11.666  0.00  0.00    +0.000 A 
ATOM     20  C   UNL     1      46.588   6.669  12.641  0.00  0.00    +0.000 A 
BRANCH  19  21
ATOM     21  C   UNL     1      45.306   5.391  10.898  0.00  0.00    +0.000 A 
ATOM     22  C   UNL     1      45.638   5.285   9.543  0.00  0.00    +0.000 A 
ATOM     23  C   UNL     1      45.413   4.087   8.865  0.00  0.00    +0.000 A 
ATOM     24  C   UNL     1      44.866   3.017   9.553  0.00  0.00    +0.000 A 
ATOM     25 CL   UNL     1      44.588   1.522   8.761  0.00  0.00    +0.000 Cl
ATOM     26  C   UNL     1      44.562   3.190  10.894  0.00  0.00    +0.000 A 
ATOM     27  N   UNL     1      44.771   4.344  11.580  0.00  0.00    +0.000 NA
ENDBRANCH  19  21
ENDBRANCH   1  15
TORSDOF 4
ENDMDL
