MODEL 1
REMARK VINA RESULT:    -8.974      0.000      0.000
REMARK INTER + INTRA:         -13.044
REMARK INTER:                 -12.122
REMARK INTRA:                  -0.922
REMARK UNBOUND:                -0.922
REMARK  Name = 
REMARK  6 active torsions:
REMARK  status: ('A' for Active; 'I' for Inactive)
REMARK    1  A    between atoms: C_2  and  C_4
REMARK    2  A    between atoms: C_7  and  O_8
REMARK    3  A    between atoms: O_8  and  C_9
REMARK    4  A    between atoms: C_9  and  C_10
REMARK    5  A    between atoms: C_10  and  C_13
REMARK    6  A    between atoms: C_17  and  C_18
REMARK                            x       y       z     vdW  Elec       q    Type
REMARK                         _______ _______ _______ _____ _____    ______ ____
ROOT
ATOM      1  C   UNL     1      43.586   4.623  12.534  0.00  0.00    +0.000 C 
ATOM      2  F   UNL     1      42.682   5.405  13.198  0.00  0.00    +0.000 F 
ATOM      3  F   UNL     1      43.370   3.352  12.987  0.00  0.00    +0.000 F 
ENDROOT
BRANCH   1   4
ATOM      4  C   UNL     1      45.009   5.082  12.794  0.00  0.00    +0.000 A 
ATOM      5  C   UNL     1      45.848   4.294  13.592  0.00  0.00    +0.000 A 
ATOM      6  C   UNL     1      47.150   4.696  13.855  0.00  0.00    +0.000 A 
ATOM      7  C   UNL     1      47.634   5.881  13.302  0.00  0.00    +0.000 A 
ATOM      8  C   UNL     1      46.843   6.682  12.468  0.00  0.00    +0.000 A 
ATOM      9  C   UNL     1      45.513   6.277  12.239  0.00  0.00    +0.000 A 
BRANCH   8  10
ATOM     10  C   UNL     1      47.403   7.909  11.745  0.00  0.00    +0.000 C 
ATOM     11  C   UNL     1      48.943   7.889  11.719  0.00  0.00    +0.000 C 
ATOM     12  C   UNL     1      49.544   8.301  13.064  0.00  0.00    +0.000 C 
ATOM     13  C   UNL     1      48.959   9.613  13.591  0.00  0.00    +0.000 C 
ATOM     14  N   UNL     1      47.500   9.649  13.580  0.00  0.00    +0.000 NA
ATOM     15  C   UNL     1      46.932   9.286  12.277  0.00  0.00    +0.000 C 
ATOM     16  H   UNL     1      47.169  10.572  13.861  0.00  0.00    +0.000 HD
ENDBRANCH   8  10
ENDBRANCH   1   4
BRANCH   1  17
ATOM     17  C   UNL     1      43.264   4.677  11.031  0.00  0.00    +0.000 C 
BRANCH  17  18
ATOM     18  O   UNL     1      43.426   3.376  10.444  0.00  0.00    +0.000 OA
BRANCH  18  22
ATOM     19  C   UNL     1      46.415   2.684   7.622  0.00  0.00    +0.000 A 
ATOM     20  C   UNL     1      45.958   3.991   7.798  0.00  0.00    +0.000 A 
ATOM     21  C   UNL     1      44.954   4.267   8.736  0.00  0.00    +0.000 A 
ATOM     22  C   UNL     1      44.403   3.237   9.499  0.00  0.00    +0.000 A 
ATOM     23  C   UNL     1      44.854   1.927   9.309  0.00  0.00    +0.000 A 
ATOM     24  C   UNL     1      45.852   1.647   8.369  0.00  0.00    +0.000 A 
BRANCH  19  26
ATOM     25  N   UNL     1      47.523   3.111   5.494  0.00  0.00    +0.000 N 
ATOM     26  C   UNL     1      47.478   2.358   6.634  0.00  0.00    +0.000 C 
ATOM     27  O   UNL     1      48.304   1.476   6.844  0.00  0.00    +0.000 OA
ATOM     28  H   UNL     1      48.314   2.950   4.884  0.00  0.00    +0.000 HD
ATOM     29  H   UNL     1      47.040   3.995   5.413  0.00  0.00    +0.000 HD
ENDBRANCH  19  26
ENDBRANCH  18  22
ENDBRANCH  17  18
ENDBRANCH   1  17
TORSDOF 6
ENDMDL
MODEL 2
REMARK VINA RESULT:    -8.701      1.439      2.098
REMARK INTER + INTRA:         -12.675
REMARK INTER:                 -11.484
REMARK INTRA:                  -1.190
REMARK UNBOUND:                -0.922
REMARK  Name = 
REMARK  6 active torsions:
REMARK  status: ('A' for Active; 'I' for Inactive)
REMARK    1  A    between atoms: C_2  and  C_4
REMARK    2  A    between atoms: C_7  and  O_8
REMARK    3  A    between atoms: O_8  and  C_9
REMARK    4  A    between atoms: C_9  and  C_10
REMARK    5  A    between atoms: C_10  and  C_13
REMARK    6  A    between atoms: C_17  and  C_18
REMARK                            x       y       z     vdW  Elec       q    Type
REMARK                         _______ _______ _______ _____ _____    ______ ____
ROOT
ATOM      1  C   UNL     1      44.165   4.510  12.302  0.00  0.00    +0.000 C 
ATOM      2  F   UNL     1      43.364   4.355  13.400  0.00  0.00    +0.000 F 
ATOM      3  F   UNL     1      45.168   3.595  12.452  0.00  0.00    +0.000 F 
ENDROOT
BRANCH   1   4
ATOM      4  C   UNL     1      44.698   5.926  12.203  0.00  0.00    +0.000 A 
ATOM      5  C   UNL     1      44.002   6.868  11.434  0.00  0.00    +0.000 A 
ATOM      6  C   UNL     1      44.474   8.167  11.317  0.00  0.00    +0.000 A 
ATOM      7  C   UNL     1      45.637   8.546  11.987  0.00  0.00    +0.000 A 
ATOM      8  C   UNL     1      46.346   7.647  12.796  0.00  0.00    +0.000 A 
ATOM      9  C   UNL     1      45.872   6.323  12.877  0.00  0.00    +0.000 A 
BRANCH   8  10
ATOM     10  C   UNL     1      47.543   8.084  13.644  0.00  0.00    +0.000 C 
ATOM     11  C   UNL     1      48.248   9.308  13.030  0.00  0.00    +0.000 C 
ATOM     12  C   UNL     1      49.126   8.924  11.838  0.00  0.00    +0.000 C 
ATOM     13  C   UNL     1      50.075   7.767  12.155  0.00  0.00    +0.000 C 
ATOM     14  N   UNL     1      49.416   6.621  12.774  0.00  0.00    +0.000 NA
ATOM     15  C   UNL     1      48.603   6.993  13.938  0.00  0.00    +0.000 C 
ATOM     16  H   UNL     1      50.105   5.919  13.039  0.00  0.00    +0.000 HD
ENDBRANCH   8  10
ENDBRANCH   1   4
BRANCH   1  17
ATOM     17  C   UNL     1      43.347   4.149  11.050  0.00  0.00    +0.000 C 
BRANCH  17  18
ATOM     18  O   UNL     1      43.805   2.903  10.502  0.00  0.00    +0.000 OA
BRANCH  18  22
ATOM     19  C   UNL     1      46.455   2.834   7.285  0.00  0.00    +0.000 A 
ATOM     20  C   UNL     1      45.854   4.048   7.623  0.00  0.00    +0.000 A 
ATOM     21  C   UNL     1      44.956   4.114   8.698  0.00  0.00    +0.000 A 
ATOM     22  C   UNL     1      44.657   2.968   9.435  0.00  0.00    +0.000 A 
ATOM     23  C   UNL     1      45.251   1.752   9.084  0.00  0.00    +0.000 A 
ATOM     24  C   UNL     1      46.143   1.681   8.007  0.00  0.00    +0.000 A 
BRANCH  19  26
ATOM     25  N   UNL     1      48.689   2.343   6.445  0.00  0.00    +0.000 N 
ATOM     26  C   UNL     1      47.411   2.730   6.150  0.00  0.00    +0.000 C 
ATOM     27  O   UNL     1      47.065   2.944   4.993  0.00  0.00    +0.000 OA
ATOM     28  H   UNL     1      49.297   2.173   5.654  0.00  0.00    +0.000 HD
ATOM     29  H   UNL     1      48.932   1.911   7.326  0.00  0.00    +0.000 HD
ENDBRANCH  19  26
ENDBRANCH  18  22
ENDBRANCH  17  18
ENDBRANCH   1  17
TORSDOF 6
ENDMDL
MODEL 3
REMARK VINA RESULT:    -8.306      1.874      3.206
REMARK INTER + INTRA:         -12.141
REMARK INTER:                 -11.208
REMARK INTRA:                  -0.933
REMARK UNBOUND:                -0.922
REMARK  Name = 
REMARK  6 active torsions:
REMARK  status: ('A' for Active; 'I' for Inactive)
REMARK    1  A    between atoms: C_2  and  C_4
REMARK    2  A    between atoms: C_7  and  O_8
REMARK    3  A    between atoms: O_8  and  C_9
REMARK    4  A    between atoms: C_9  and  C_10
REMARK    5  A    between atoms: C_10  and  C_13
REMARK    6  A    between atoms: C_17  and  C_18
REMARK                            x       y       z     vdW  Elec       q    Type
REMARK                         _______ _______ _______ _____ _____    ______ ____
ROOT
ATOM      1  C   UNL     1      44.338   4.342  12.611  0.00  0.00    +0.000 C 
ATOM      2  F   UNL     1      43.251   4.495  13.427  0.00  0.00    +0.000 F 
ATOM      3  F   UNL     1      44.617   3.005  12.623  0.00  0.00    +0.000 F 
ENDROOT
BRANCH   1   4
ATOM      4  C   UNL     1      45.513   5.171  13.096  0.00  0.00    +0.000 A 
ATOM      5  C   UNL     1      45.652   6.490  12.647  0.00  0.00    +0.000 A 
ATOM      6  C   UNL     1      46.724   7.266  13.065  0.00  0.00    +0.000 A 
ATOM      7  C   UNL     1      47.657   6.738  13.955  0.00  0.00    +0.000 A 
ATOM      8  C   UNL     1      47.538   5.435  14.459  0.00  0.00    +0.000 A 
ATOM      9  C   UNL     1      46.463   4.649  13.998  0.00  0.00    +0.000 A 
BRANCH   8  10
ATOM     10  C   UNL     1      48.475   4.890  15.540  0.00  0.00    +0.000 C 
ATOM     11  C   UNL     1      47.852   3.682  16.264  0.00  0.00    +0.000 C 
ATOM     12  C   UNL     1      46.790   4.108  17.280  0.00  0.00    +0.000 C 
ATOM     13  C   UNL     1      47.290   5.199  18.229  0.00  0.00    +0.000 C 
ATOM     14  N   UNL     1      47.916   6.327  17.547  0.00  0.00    +0.000 NA
ATOM     15  C   UNL     1      48.957   5.912  16.600  0.00  0.00    +0.000 C 
ATOM     16  H   UNL     1      48.303   6.979  18.228  0.00  0.00    +0.000 HD
ENDBRANCH   8  10
ENDBRANCH   1   4
BRANCH   1  17
ATOM     17  C   UNL     1      43.936   4.754  11.185  0.00  0.00    +0.000 C 
BRANCH  17  18
ATOM     18  O   UNL     1      43.639   3.589  10.399  0.00  0.00    +0.000 OA
BRANCH  18  22
ATOM     19  C   UNL     1      46.524   2.645   7.542  0.00  0.00    +0.000 A 
ATOM     20  C   UNL     1      46.011   1.615   8.333  0.00  0.00    +0.000 A 
ATOM     21  C   UNL     1      45.041   1.889   9.306  0.00  0.00    +0.000 A 
ATOM     22  C   UNL     1      44.581   3.194   9.491  0.00  0.00    +0.000 A 
ATOM     23  C   UNL     1      45.107   4.224   8.706  0.00  0.00    +0.000 A 
ATOM     24  C   UNL     1      46.082   3.955   7.738  0.00  0.00    +0.000 A 
BRANCH  19  26
ATOM     25  N   UNL     1      47.463   3.102   5.341  0.00  0.00    +0.000 N 
ATOM     26  C   UNL     1      47.556   2.387   6.503  0.00  0.00    +0.000 C 
ATOM     27  O   UNL     1      48.475   1.595   6.687  0.00  0.00    +0.000 OA
ATOM     28  H   UNL     1      48.229   2.996   4.689  0.00  0.00    +0.000 HD
ATOM     29  H   UNL     1      46.892   3.933   5.264  0.00  0.00    +0.000 HD
ENDBRANCH  19  26
ENDBRANCH  18  22
ENDBRANCH  17  18
ENDBRANCH   1  17
TORSDOF 6
ENDMDL
MODEL 4
REMARK VINA RESULT:    -7.852      2.018      2.861
REMARK INTER + INTRA:         -11.529
REMARK INTER:                 -10.539
REMARK INTRA:                  -0.990
REMARK UNBOUND:                -0.922
REMARK  Name = 
REMARK  6 active torsions:
REMARK  status: ('A' for Active; 'I' for Inactive)
REMARK    1  A    between atoms: C_2  and  C_4
REMARK    2  A    between atoms: C_7  and  O_8
REMARK    3  A    between atoms: O_8  and  C_9
REMARK    4  A    between atoms: C_9  and  C_10
REMARK    5  A    between atoms: C_10  and  C_13
REMARK    6  A    between atoms: C_17  and  C_18
REMARK                            x       y       z     vdW  Elec       q    Type
REMARK                         _______ _______ _______ _____ _____    ______ ____
ROOT
ATOM      1  C   UNL     1      45.467   5.152  12.519  0.00  0.00    +0.000 C 
ATOM      2  F   UNL     1      44.544   5.290  13.519  0.00  0.00    +0.000 F 
ATOM      3  F   UNL     1      45.855   3.843  12.561  0.00  0.00    +0.000 F 
ENDROOT
BRANCH   1   4
ATOM      4  C   UNL     1      46.637   6.097  12.714  0.00  0.00    +0.000 A 
ATOM      5  C   UNL     1      47.228   6.695  11.593  0.00  0.00    +0.000 A 
ATOM      6  C   UNL     1      48.307   7.554  11.741  0.00  0.00    +0.000 A 
ATOM      7  C   UNL     1      48.794   7.843  13.015  0.00  0.00    +0.000 A 
ATOM      8  C   UNL     1      48.211   7.297  14.167  0.00  0.00    +0.000 A 
ATOM      9  C   UNL     1      47.138   6.400  13.997  0.00  0.00    +0.000 A 
BRANCH   8  10
ATOM     10  C   UNL     1      48.645   7.711  15.575  0.00  0.00    +0.000 C 
ATOM     11  C   UNL     1      50.012   8.422  15.553  0.00  0.00    +0.000 C 
ATOM     12  C   UNL     1      51.169   7.434  15.396  0.00  0.00    +0.000 C 
ATOM     13  C   UNL     1      51.096   6.280  16.398  0.00  0.00    +0.000 C 
ATOM     14  N   UNL     1      49.790   5.630  16.448  0.00  0.00    +0.000 NA
ATOM     15  C   UNL     1      48.689   6.581  16.634  0.00  0.00    +0.000 C 
ATOM     16  H   UNL     1      49.775   4.928  17.187  0.00  0.00    +0.000 HD
ENDBRANCH   8  10
ENDBRANCH   1   4
BRANCH   1  17
ATOM     17  C   UNL     1      44.769   5.421  11.175  0.00  0.00    +0.000 C 
BRANCH  17  18
ATOM     18  O   UNL     1      44.281   4.191  10.616  0.00  0.00    +0.000 OA
BRANCH  18  22
ATOM     19  C   UNL     1      46.565   2.744   7.444  0.00  0.00    +0.000 A 
ATOM     20  C   UNL     1      45.940   1.822   8.286  0.00  0.00    +0.000 A 
ATOM     21  C   UNL     1      45.163   2.267   9.365  0.00  0.00    +0.000 A 
ATOM     22  C   UNL     1      45.011   3.633   9.605  0.00  0.00    +0.000 A 
ATOM     23  C   UNL     1      45.650   4.552   8.766  0.00  0.00    +0.000 A 
ATOM     24  C   UNL     1      46.432   4.111   7.692  0.00  0.00    +0.000 A 
BRANCH  19  26
ATOM     25  N   UNL     1      47.254   2.996   5.120  0.00  0.00    +0.000 N 
ATOM     26  C   UNL     1      47.396   2.305   6.292  0.00  0.00    +0.000 C 
ATOM     27  O   UNL     1      48.204   1.386   6.391  0.00  0.00    +0.000 OA
ATOM     28  H   UNL     1      47.900   2.757   4.380  0.00  0.00    +0.000 HD
ATOM     29  H   UNL     1      46.808   3.902   5.080  0.00  0.00    +0.000 HD
ENDBRANCH  19  26
ENDBRANCH  18  22
ENDBRANCH  17  18
ENDBRANCH   1  17
TORSDOF 6
ENDMDL
MODEL 5
REMARK VINA RESULT:    -7.051      4.455      7.585
REMARK INTER + INTRA:         -10.446
REMARK INTER:                  -9.228
REMARK INTRA:                  -1.218
REMARK UNBOUND:                -0.922
REMARK  Name = 
REMARK  6 active torsions:
REMARK  status: ('A' for Active; 'I' for Inactive)
REMARK    1  A    between atoms: C_2  and  C_4
REMARK    2  A    between atoms: C_7  and  O_8
REMARK    3  A    between atoms: O_8  and  C_9
REMARK    4  A    between atoms: C_9  and  C_10
REMARK    5  A    between atoms: C_10  and  C_13
REMARK    6  A    between atoms: C_17  and  C_18
REMARK                            x       y       z     vdW  Elec       q    Type
REMARK                         _______ _______ _______ _____ _____    ______ ____
ROOT
ATOM      1  C   UNL     1      49.058   8.156  12.095  0.00  0.00    +0.000 C 
ATOM      2  F   UNL     1      49.395   9.465  12.307  0.00  0.00    +0.000 F 
ATOM      3  F   UNL     1      49.710   7.794  10.950  0.00  0.00    +0.000 F 
ENDROOT
BRANCH   1   4
ATOM      4  C   UNL     1      47.555   7.986  11.969  0.00  0.00    +0.000 A 
ATOM      5  C   UNL     1      46.721   9.092  12.181  0.00  0.00    +0.000 A 
ATOM      6  C   UNL     1      45.344   8.962  12.084  0.00  0.00    +0.000 A 
ATOM      7  C   UNL     1      44.785   7.729  11.752  0.00  0.00    +0.000 A 
ATOM      8  C   UNL     1      45.582   6.604  11.496  0.00  0.00    +0.000 A 
ATOM      9  C   UNL     1      46.978   6.745  11.632  0.00  0.00    +0.000 A 
BRANCH   8  10
ATOM     10  C   UNL     1      44.992   5.283  10.997  0.00  0.00    +0.000 C 
ATOM     11  C   UNL     1      43.456   5.355  10.906  0.00  0.00    +0.000 C 
ATOM     12  C   UNL     1      42.795   5.229  12.279  0.00  0.00    +0.000 C 
ATOM     13  C   UNL     1      43.305   4.022  13.069  0.00  0.00    +0.000 C 
ATOM     14  N   UNL     1      44.760   3.930  13.123  0.00  0.00    +0.000 NA
ATOM     15  C   UNL     1      45.385   4.017  11.798  0.00  0.00    +0.000 C 
ATOM     16  H   UNL     1      45.041   3.067  13.587  0.00  0.00    +0.000 HD
ENDBRANCH   8  10
ENDBRANCH   1   4
BRANCH   1  17
ATOM     17  C   UNL     1      49.603   7.319  13.264  0.00  0.00    +0.000 C 
BRANCH  17  18
ATOM     18  O   UNL     1      48.843   7.579  14.455  0.00  0.00    +0.000 OA
BRANCH  18  22
ATOM     19  C   UNL     1      47.876   4.376  16.942  0.00  0.00    +0.000 A 
ATOM     20  C   UNL     1      47.318   4.415  15.663  0.00  0.00    +0.000 A 
ATOM     21  C   UNL     1      47.617   5.474  14.795  0.00  0.00    +0.000 A 
ATOM     22  C   UNL     1      48.472   6.498  15.205  0.00  0.00    +0.000 A 
ATOM     23  C   UNL     1      49.018   6.462  16.492  0.00  0.00    +0.000 A 
ATOM     24  C   UNL     1      48.716   5.409  17.363  0.00  0.00    +0.000 A 
BRANCH  19  26
ATOM     25  N   UNL     1      48.314   3.215  19.039  0.00  0.00    +0.000 N 
ATOM     26  C   UNL     1      47.578   3.267  17.887  0.00  0.00    +0.000 C 
ATOM     27  O   UNL     1      46.688   2.452  17.667  0.00  0.00    +0.000 OA
ATOM     28  H   UNL     1      48.029   2.522  19.719  0.00  0.00    +0.000 HD
ATOM     29  H   UNL     1      48.855   4.002  19.369  0.00  0.00    +0.000 HD
ENDBRANCH  19  26
ENDBRANCH  18  22
ENDBRANCH  17  18
ENDBRANCH   1  17
TORSDOF 6
ENDMDL
MODEL 6
REMARK VINA RESULT:    -6.925      3.789      5.939
REMARK INTER + INTRA:         -10.276
REMARK INTER:                  -9.050
REMARK INTRA:                  -1.226
REMARK UNBOUND:                -0.922
REMARK  Name = 
REMARK  6 active torsions:
REMARK  status: ('A' for Active; 'I' for Inactive)
REMARK    1  A    between atoms: C_2  and  C_4
REMARK    2  A    between atoms: C_7  and  O_8
REMARK    3  A    between atoms: O_8  and  C_9
REMARK    4  A    between atoms: C_9  and  C_10
REMARK    5  A    between atoms: C_10  and  C_13
REMARK    6  A    between atoms: C_17  and  C_18
REMARK                            x       y       z     vdW  Elec       q    Type
REMARK                         _______ _______ _______ _____ _____    ______ ____
ROOT
ATOM      1  C   UNL     1      48.974   8.376  13.427  0.00  0.00    +0.000 C 
ATOM      2  F   UNL     1      49.954   9.172  12.899  0.00  0.00    +0.000 F 
ATOM      3  F   UNL     1      47.975   9.229  13.800  0.00  0.00    +0.000 F 
ENDROOT
BRANCH   1   4
ATOM      4  C   UNL     1      49.493   7.564  14.598  0.00  0.00    +0.000 A 
ATOM      5  C   UNL     1      50.805   7.769  15.046  0.00  0.00    +0.000 A 
ATOM      6  C   UNL     1      51.309   7.032  16.107  0.00  0.00    +0.000 A 
ATOM      7  C   UNL     1      50.498   6.096  16.749  0.00  0.00    +0.000 A 
ATOM      8  C   UNL     1      49.169   5.884  16.358  0.00  0.00    +0.000 A 
ATOM      9  C   UNL     1      48.683   6.616  15.257  0.00  0.00    +0.000 A 
BRANCH   8  10
ATOM     10  C   UNL     1      48.228   4.963  17.139  0.00  0.00    +0.000 C 
ATOM     11  C   UNL     1      49.011   4.033  18.085  0.00  0.00    +0.000 C 
ATOM     12  C   UNL     1      49.664   2.871  17.335  0.00  0.00    +0.000 C 
ATOM     13  C   UNL     1      48.680   2.130  16.428  0.00  0.00    +0.000 C 
ATOM     14  N   UNL     1      47.908   3.012  15.558  0.00  0.00    +0.000 NA
ATOM     15  C   UNL     1      47.257   4.104  16.289  0.00  0.00    +0.000 C 
ATOM     16  H   UNL     1      47.214   2.475  15.039  0.00  0.00    +0.000 HD
ENDBRANCH   8  10
ENDBRANCH   1   4
BRANCH   1  17
ATOM     17  C   UNL     1      48.450   7.451  12.315  0.00  0.00    +0.000 C 
BRANCH  17  18
ATOM     18  O   UNL     1      47.019   7.547  12.227  0.00  0.00    +0.000 OA
BRANCH  18  22
ATOM     19  C   UNL     1      44.872   4.104  11.272  0.00  0.00    +0.000 A 
ATOM     20  C   UNL     1      45.377   4.234  12.567  0.00  0.00    +0.000 A 
ATOM     21  C   UNL     1      46.105   5.375  12.929  0.00  0.00    +0.000 A 
ATOM     22  C   UNL     1      46.331   6.389  11.997  0.00  0.00    +0.000 A 
ATOM     23  C   UNL     1      45.835   6.249  10.697  0.00  0.00    +0.000 A 
ATOM     24  C   UNL     1      45.113   5.107  10.331  0.00  0.00    +0.000 A 
BRANCH  19  26
ATOM     25  N   UNL     1      44.615   2.147   9.843  0.00  0.00    +0.000 N 
ATOM     26  C   UNL     1      44.097   2.905  10.856  0.00  0.00    +0.000 C 
ATOM     27  O   UNL     1      43.054   2.584  11.417  0.00  0.00    +0.000 OA
ATOM     28  H   UNL     1      44.135   1.280   9.644  0.00  0.00    +0.000 HD
ATOM     29  H   UNL     1      45.579   2.229   9.547  0.00  0.00    +0.000 HD
ENDBRANCH  19  26
ENDBRANCH  18  22
ENDBRANCH  17  18
ENDBRANCH   1  17
TORSDOF 6
ENDMDL
MODEL 7
REMARK VINA RESULT:    -6.810      1.374      2.239
REMARK INTER + INTRA:         -10.120
REMARK INTER:                  -9.367
REMARK INTRA:                  -0.753
REMARK UNBOUND:                -0.922
REMARK  Name = 
REMARK  6 active torsions:
REMARK  status: ('A' for Active; 'I' for Inactive)
REMARK    1  A    between atoms: C_2  and  C_4
REMARK    2  A    between atoms: C_7  and  O_8
REMARK    3  A    between atoms: O_8  and  C_9
REMARK    4  A    between atoms: C_9  and  C_10
REMARK    5  A    between atoms: C_10  and  C_13
REMARK    6  A    between atoms: C_17  and  C_18
REMARK                            x       y       z     vdW  Elec       q    Type
REMARK                         _______ _______ _______ _____ _____    ______ ____
ROOT
ATOM      1  C   UNL     1      45.284   4.735  12.635  0.00  0.00    +0.000 C 
ATOM      2  F   UNL     1      45.151   4.491  13.974  0.00  0.00    +0.000 F 
ATOM      3  F   UNL     1      46.265   3.886  12.207  0.00  0.00    +0.000 F 
ENDROOT
BRANCH   1   4
ATOM      4  C   UNL     1      45.636   6.187  12.370  0.00  0.00    +0.000 A 
ATOM      5  C   UNL     1      44.609   7.104  12.111  0.00  0.00    +0.000 A 
ATOM      6  C   UNL     1      44.903   8.435  11.854  0.00  0.00    +0.000 A 
ATOM      7  C   UNL     1      46.228   8.869  11.876  0.00  0.00    +0.000 A 
ATOM      8  C   UNL     1      47.284   7.995  12.167  0.00  0.00    +0.000 A 
ATOM      9  C   UNL     1      46.971   6.639  12.392  0.00  0.00    +0.000 A 
BRANCH   8  10
ATOM     10  C   UNL     1      48.726   8.484  12.330  0.00  0.00    +0.000 C 
ATOM     11  C   UNL     1      49.458   7.708  13.441  0.00  0.00    +0.000 C 
ATOM     12  C   UNL     1      49.049   8.183  14.836  0.00  0.00    +0.000 C 
ATOM     13  C   UNL     1      49.141   9.702  14.990  0.00  0.00    +0.000 C 
ATOM     14  N   UNL     1      48.482  10.440  13.917  0.00  0.00    +0.000 NA
ATOM     15  C   UNL     1      48.905  10.002  12.583  0.00  0.00    +0.000 C 
ATOM     16  H   UNL     1      48.646  11.440  14.026  0.00  0.00    +0.000 HD
ENDBRANCH   8  10
ENDBRANCH   1   4
BRANCH   1  17
ATOM     17  C   UNL     1      43.964   4.361  11.940  0.00  0.00    +0.000 C 
BRANCH  17  18
ATOM     18  O   UNL     1      44.014   4.732  10.553  0.00  0.00    +0.000 OA
BRANCH  18  22
ATOM     19  C   UNL     1      46.268   2.467   7.875  0.00  0.00    +0.000 A 
ATOM     20  C   UNL     1      45.475   1.797   8.808  0.00  0.00    +0.000 A 
ATOM     21  C   UNL     1      44.702   2.520   9.727  0.00  0.00    +0.000 A 
ATOM     22  C   UNL     1      44.722   3.915   9.715  0.00  0.00    +0.000 A 
ATOM     23  C   UNL     1      45.528   4.583   8.788  0.00  0.00    +0.000 A 
ATOM     24  C   UNL     1      46.306   3.863   7.874  0.00  0.00    +0.000 A 
BRANCH  19  26
ATOM     25  N   UNL     1      47.024   0.364   6.904  0.00  0.00    +0.000 N 
ATOM     26  C   UNL     1      47.100   1.730   6.888  0.00  0.00    +0.000 C 
ATOM     27  O   UNL     1      47.798   2.315   6.066  0.00  0.00    +0.000 OA
ATOM     28  H   UNL     1      47.510  -0.119   6.160  0.00  0.00    +0.000 HD
ATOM     29  H   UNL     1      46.277  -0.129   7.374  0.00  0.00    +0.000 HD
ENDBRANCH  19  26
ENDBRANCH  18  22
ENDBRANCH  17  18
ENDBRANCH   1  17
TORSDOF 6
ENDMDL
MODEL 8
REMARK VINA RESULT:    -6.652      4.256      6.301
REMARK INTER + INTRA:          -9.907
REMARK INTER:                  -8.731
REMARK INTRA:                  -1.176
REMARK UNBOUND:                -0.922
REMARK  Name = 
REMARK  6 active torsions:
REMARK  status: ('A' for Active; 'I' for Inactive)
REMARK    1  A    between atoms: C_2  and  C_4
REMARK    2  A    between atoms: C_7  and  O_8
REMARK    3  A    between atoms: O_8  and  C_9
REMARK    4  A    between atoms: C_9  and  C_10
REMARK    5  A    between atoms: C_10  and  C_13
REMARK    6  A    between atoms: C_17  and  C_18
REMARK                            x       y       z     vdW  Elec       q    Type
REMARK                         _______ _______ _______ _____ _____    ______ ____
ROOT
ATOM      1  C   UNL     1      49.772   8.150  13.768  0.00  0.00    +0.000 C 
ATOM      2  F   UNL     1      51.118   7.910  13.738  0.00  0.00    +0.000 F 
ATOM      3  F   UNL     1      49.605   9.361  13.158  0.00  0.00    +0.000 F 
ENDROOT
BRANCH   1   4
ATOM      4  C   UNL     1      49.243   8.153  15.190  0.00  0.00    +0.000 A 
ATOM      5  C   UNL     1      48.524   9.264  15.650  0.00  0.00    +0.000 A 
ATOM      6  C   UNL     1      48.039   9.298  16.950  0.00  0.00    +0.000 A 
ATOM      7  C   UNL     1      48.248   8.211  17.797  0.00  0.00    +0.000 A 
ATOM      8  C   UNL     1      48.930   7.064  17.368  0.00  0.00    +0.000 A 
ATOM      9  C   UNL     1      49.445   7.059  16.057  0.00  0.00    +0.000 A 
BRANCH   8  10
ATOM     10  C   UNL     1      49.047   5.812  18.240  0.00  0.00    +0.000 C 
ATOM     11  C   UNL     1      49.432   4.579  17.400  0.00  0.00    +0.000 C 
ATOM     12  C   UNL     1      48.242   4.025  16.616  0.00  0.00    +0.000 C 
ATOM     13  C   UNL     1      47.010   3.804  17.496  0.00  0.00    +0.000 C 
ATOM     14  N   UNL     1      46.666   4.957  18.322  0.00  0.00    +0.000 NA
ATOM     15  C   UNL     1      47.805   5.461  19.097  0.00  0.00    +0.000 C 
ATOM     16  H   UNL     1      45.894   4.726  18.945  0.00  0.00    +0.000 HD
ENDBRANCH   8  10
ENDBRANCH   1   4
BRANCH   1  17
ATOM     17  C   UNL     1      49.067   7.070  12.930  0.00  0.00    +0.000 C 
BRANCH  17  18
ATOM     18  O   UNL     1      47.731   7.488  12.607  0.00  0.00    +0.000 OA
BRANCH  18  22
ATOM     19  C   UNL     1      45.044   4.403  11.805  0.00  0.00    +0.000 A 
ATOM     20  C   UNL     1      45.333   5.313  10.787  0.00  0.00    +0.000 A 
ATOM     21  C   UNL     1      46.230   6.365  11.015  0.00  0.00    +0.000 A 
ATOM     22  C   UNL     1      46.840   6.511  12.262  0.00  0.00    +0.000 A 
ATOM     23  C   UNL     1      46.537   5.605  13.283  0.00  0.00    +0.000 A 
ATOM     24  C   UNL     1      45.636   4.557  13.061  0.00  0.00    +0.000 A 
BRANCH  19  26
ATOM     25  N   UNL     1      43.862   2.452  12.661  0.00  0.00    +0.000 N 
ATOM     26  C   UNL     1      44.096   3.277  11.596  0.00  0.00    +0.000 C 
ATOM     27  O   UNL     1      43.517   3.110  10.527  0.00  0.00    +0.000 OA
ATOM     28  H   UNL     1      43.137   1.757  12.537  0.00  0.00    +0.000 HD
ATOM     29  H   UNL     1      44.109   2.710  13.607  0.00  0.00    +0.000 HD
ENDBRANCH  19  26
ENDBRANCH  18  22
ENDBRANCH  17  18
ENDBRANCH   1  17
TORSDOF 6
ENDMDL
MODEL 9
REMARK VINA RESULT:    -6.464      3.928      5.733
REMARK INTER + INTRA:          -9.653
REMARK INTER:                  -8.620
REMARK INTRA:                  -1.033
REMARK UNBOUND:                -0.922
REMARK  Name = 
REMARK  6 active torsions:
REMARK  status: ('A' for Active; 'I' for Inactive)
REMARK    1  A    between atoms: C_2  and  C_4
REMARK    2  A    between atoms: C_7  and  O_8
REMARK    3  A    between atoms: O_8  and  C_9
REMARK    4  A    between atoms: C_9  and  C_10
REMARK    5  A    between atoms: C_10  and  C_13
REMARK    6  A    between atoms: C_17  and  C_18
REMARK                            x       y       z     vdW  Elec       q    Type
REMARK                         _______ _______ _______ _____ _____    ______ ____
ROOT
ATOM      1  C   UNL     1      48.292   2.970  16.922  0.00  0.00    +0.000 C 
ATOM      2  F   UNL     1      47.756   2.597  18.124  0.00  0.00    +0.000 F 
ATOM      3  F   UNL     1      48.644   1.804  16.304  0.00  0.00    +0.000 F 
ENDROOT
BRANCH   1   4
ATOM      4  C   UNL     1      49.481   3.893  17.109  0.00  0.00    +0.000 A 
ATOM      5  C   UNL     1      50.715   3.352  17.492  0.00  0.00    +0.000 A 
ATOM      6  C   UNL     1      51.816   4.175  17.682  0.00  0.00    +0.000 A 
ATOM      7  C   UNL     1      51.700   5.548  17.469  0.00  0.00    +0.000 A 
ATOM      8  C   UNL     1      50.495   6.129  17.050  0.00  0.00    +0.000 A 
ATOM      9  C   UNL     1      49.378   5.283  16.894  0.00  0.00    +0.000 A 
BRANCH   8  10
ATOM     10  C   UNL     1      50.389   7.610  16.680  0.00  0.00    +0.000 C 
ATOM     11  C   UNL     1      49.162   7.879  15.788  0.00  0.00    +0.000 C 
ATOM     12  C   UNL     1      49.400   7.446  14.340  0.00  0.00    +0.000 C 
ATOM     13  C   UNL     1      50.705   8.004  13.768  0.00  0.00    +0.000 C 
ATOM     14  N   UNL     1      51.863   7.785  14.629  0.00  0.00    +0.000 NA
ATOM     15  C   UNL     1      51.638   8.234  16.008  0.00  0.00    +0.000 C 
ATOM     16  H   UNL     1      52.683   8.248  14.240  0.00  0.00    +0.000 HD
ENDBRANCH   8  10
ENDBRANCH   1   4
BRANCH   1  17
ATOM     17  C   UNL     1      47.195   3.660  16.094  0.00  0.00    +0.000 C 
BRANCH  17  18
ATOM     18  O   UNL     1      47.493   3.555  14.693  0.00  0.00    +0.000 OA
BRANCH  18  22
ATOM     19  C   UNL     1      44.727   5.020  11.939  0.00  0.00    +0.000 A 
ATOM     20  C   UNL     1      45.378   5.930  12.775  0.00  0.00    +0.000 A 
ATOM     21  C   UNL     1      46.314   5.479  13.715  0.00  0.00    +0.000 A 
ATOM     22  C   UNL     1      46.602   4.118  13.823  0.00  0.00    +0.000 A 
ATOM     23  C   UNL     1      45.938   3.209  12.993  0.00  0.00    +0.000 A 
ATOM     24  C   UNL     1      44.997   3.655  12.058  0.00  0.00    +0.000 A 
BRANCH  19  26
ATOM     25  N   UNL     1      43.106   6.663  11.158  0.00  0.00    +0.000 N 
ATOM     26  C   UNL     1      43.728   5.466  10.933  0.00  0.00    +0.000 C 
ATOM     27  O   UNL     1      43.493   4.811   9.922  0.00  0.00    +0.000 OA
ATOM     28  H   UNL     1      42.510   7.004  10.415  0.00  0.00    +0.000 HD
ATOM     29  H   UNL     1      43.460   7.338  11.823  0.00  0.00    +0.000 HD
ENDBRANCH  19  26
ENDBRANCH  18  22
ENDBRANCH  17  18
ENDBRANCH   1  17
TORSDOF 6
ENDMDL
