MODEL 1
REMARK VINA RESULT:    -8.046      0.000      0.000
REMARK INTER + INTRA:          -9.819
REMARK INTER:                  -9.457
REMARK INTRA:                  -0.362
REMARK UNBOUND:                -0.362
REMARK  Name = 
REMARK  3 active torsions:
REMARK  status: ('A' for Active; 'I' for Inactive)
REMARK    1  A    between atoms: C_2  and  C_4
REMARK    2  A    between atoms: N_8  and  C_9
REMARK    3  A    between atoms: C_9  and  C_10
REMARK                            x       y       z     vdW  Elec       q    Type
REMARK                         _______ _______ _______ _____ _____    ______ ____
ROOT
ATOM      1  C   UNL     1      46.507   2.522   7.632  0.00  0.00    +0.000 A 
ATOM      2  C   UNL     1      45.661   1.954   8.550  0.00  0.00    +0.000 A 
ATOM      3  N   UNL     1      44.759   2.647   9.265  0.00  0.00    +0.000 NA
ATOM      4  C   UNL     1      44.705   3.968   9.069  0.00  0.00    +0.000 A 
ATOM      5  N   UNL     1      43.769   4.678   9.786  0.00  0.00    +0.000 N 
ATOM      6  N   UNL     1      45.509   4.629   8.221  0.00  0.00    +0.000 NA
ATOM      7  C   UNL     1      46.412   3.893   7.520  0.00  0.00    +0.000 A 
ATOM      8  H   UNL     1      43.751   5.670   9.588  0.00  0.00    +0.000 HD
ENDROOT
BRANCH   1  10
ATOM      9  N   UNL     1      48.567   2.366   6.389  0.00  0.00    +0.000 N 
ATOM     10  C   UNL     1      47.444   1.734   6.832  0.00  0.00    +0.000 C 
ATOM     11  O   UNL     1      47.236   0.543   6.602  0.00  0.00    +0.000 OA
ATOM     12  H   UNL     1      49.267   1.794   5.923  0.00  0.00    +0.000 HD
ATOM     13  H   UNL     1      48.877   3.259   6.754  0.00  0.00    +0.000 HD
ENDBRANCH   1  10
BRANCH   5  14
ATOM     14  C   UNL     1      43.431   4.201  11.116  0.00  0.00    +0.000 C 
BRANCH  14  15
ATOM     15  C   UNL     1      44.306   4.761  12.263  0.00  0.00    +0.000 C 
ATOM     16  C   UNL     1      45.457   3.813  12.620  0.00  0.00    +0.000 C 
ATOM     17  C   UNL     1      46.405   4.452  13.630  0.00  0.00    +0.000 C 
ATOM     18  C   UNL     1      46.834   5.837  13.165  0.00  0.00    +0.000 C 
ATOM     19  C   UNL     1      45.614   6.680  12.829  0.00  0.00    +0.000 C 
ATOM     20  O   UNL     1      44.825   6.033  11.831  0.00  0.00    +0.000 OA
ENDBRANCH  14  15
ENDBRANCH   5  14
TORSDOF 3
ENDMDL
MODEL 2
REMARK VINA RESULT:    -7.088      2.556      6.090
REMARK INTER + INTRA:          -8.693
REMARK INTER:                  -8.516
REMARK INTRA:                  -0.177
REMARK UNBOUND:                -0.362
REMARK  Name = 
REMARK  3 active torsions:
REMARK  status: ('A' for Active; 'I' for Inactive)
REMARK    1  A    between atoms: C_2  and  C_4
REMARK    2  A    between atoms: N_8  and  C_9
REMARK    3  A    between atoms: C_9  and  C_10
REMARK                            x       y       z     vdW  Elec       q    Type
REMARK                         _______ _______ _______ _____ _____    ______ ____
ROOT
ATOM      1  C   UNL     1      46.778   5.276  13.328  0.00  0.00    +0.000 A 
ATOM      2  C   UNL     1      46.065   5.665  12.223  0.00  0.00    +0.000 A 
ATOM      3  N   UNL     1      45.295   4.834  11.500  0.00  0.00    +0.000 NA
ATOM      4  C   UNL     1      45.244   3.555  11.884  0.00  0.00    +0.000 A 
ATOM      5  N   UNL     1      44.442   2.705  11.156  0.00  0.00    +0.000 N 
ATOM      6  N   UNL     1      45.929   3.062  12.928  0.00  0.00    +0.000 NA
ATOM      7  C   UNL     1      46.700   3.933  13.632  0.00  0.00    +0.000 A 
ATOM      8  H   UNL     1      44.419   1.753  11.497  0.00  0.00    +0.000 HD
ENDROOT
BRANCH   1  10
ATOM      9  N   UNL     1      47.324   7.543  13.942  0.00  0.00    +0.000 N 
ATOM     10  C   UNL     1      47.567   6.215  14.126  0.00  0.00    +0.000 C 
ATOM     11  O   UNL     1      48.391   5.813  14.948  0.00  0.00    +0.000 OA
ATOM     12  H   UNL     1      47.796   8.191  14.568  0.00  0.00    +0.000 HD
ATOM     13  H   UNL     1      46.505   7.892  13.458  0.00  0.00    +0.000 HD
ENDBRANCH   1  10
BRANCH   5  14
ATOM     14  C   UNL     1      44.294   2.967   9.735  0.00  0.00    +0.000 C 
BRANCH  14  15
ATOM     15  C   UNL     1      45.588   2.828   8.897  0.00  0.00    +0.000 C 
ATOM     16  C   UNL     1      45.808   1.386   8.421  0.00  0.00    +0.000 C 
ATOM     17  C   UNL     1      46.989   1.297   7.459  0.00  0.00    +0.000 C 
ATOM     18  C   UNL     1      46.856   2.328   6.346  0.00  0.00    +0.000 C 
ATOM     19  C   UNL     1      46.630   3.711   6.935  0.00  0.00    +0.000 C 
ATOM     20  O   UNL     1      45.470   3.711   7.767  0.00  0.00    +0.000 OA
ENDBRANCH  14  15
ENDBRANCH   5  14
TORSDOF 3
ENDMDL
MODEL 3
REMARK VINA RESULT:    -6.843      2.380      6.206
REMARK INTER + INTRA:          -8.405
REMARK INTER:                  -8.113
REMARK INTRA:                  -0.292
REMARK UNBOUND:                -0.362
REMARK  Name = 
REMARK  3 active torsions:
REMARK  status: ('A' for Active; 'I' for Inactive)
REMARK    1  A    between atoms: C_2  and  C_4
REMARK    2  A    between atoms: N_8  and  C_9
REMARK    3  A    between atoms: C_9  and  C_10
REMARK                            x       y       z     vdW  Elec       q    Type
REMARK                         _______ _______ _______ _____ _____    ______ ____
ROOT
ATOM      1  C   UNL     1      45.448   6.761  12.478  0.00  0.00    +0.000 A 
ATOM      2  C   UNL     1      44.648   6.468  11.403  0.00  0.00    +0.000 A 
ATOM      3  N   UNL     1      44.360   5.217  11.005  0.00  0.00    +0.000 NA
ATOM      4  C   UNL     1      44.903   4.212  11.699  0.00  0.00    +0.000 A 
ATOM      5  N   UNL     1      44.595   2.930  11.305  0.00  0.00    +0.000 N 
ATOM      6  N   UNL     1      45.726   4.388  12.745  0.00  0.00    +0.000 NA
ATOM      7  C   UNL     1      45.997   5.668  13.114  0.00  0.00    +0.000 A 
ATOM      8  H   UNL     1      45.012   2.204  11.874  0.00  0.00    +0.000 HD
ENDROOT
BRANCH   1  10
ATOM      9  N   UNL     1      44.757   9.068  12.617  0.00  0.00    +0.000 N 
ATOM     10  C   UNL     1      45.703   8.133  12.917  0.00  0.00    +0.000 C 
ATOM     11  O   UNL     1      46.715   8.417  13.558  0.00  0.00    +0.000 OA
ATOM     12  H   UNL     1      44.883   9.997  13.011  0.00  0.00    +0.000 HD
ATOM     13  H   UNL     1      43.823   8.826  12.307  0.00  0.00    +0.000 HD
ENDBRANCH   1  10
BRANCH   5  14
ATOM     14  C   UNL     1      44.359   2.695   9.892  0.00  0.00    +0.000 C 
BRANCH  14  15
ATOM     15  C   UNL     1      45.626   2.681   9.002  0.00  0.00    +0.000 C 
ATOM     16  C   UNL     1      45.848   1.314   8.344  0.00  0.00    +0.000 C 
ATOM     17  C   UNL     1      46.997   1.363   7.342  0.00  0.00    +0.000 C 
ATOM     18  C   UNL     1      46.813   2.521   6.369  0.00  0.00    +0.000 C 
ATOM     19  C   UNL     1      46.589   3.817   7.132  0.00  0.00    +0.000 C 
ATOM     20  O   UNL     1      45.457   3.695   7.994  0.00  0.00    +0.000 OA
ENDBRANCH  14  15
ENDBRANCH   5  14
TORSDOF 3
ENDMDL
MODEL 4
REMARK VINA RESULT:    -6.101      3.997      5.322
REMARK INTER + INTRA:          -7.533
REMARK INTER:                  -7.348
REMARK INTRA:                  -0.185
REMARK UNBOUND:                -0.362
REMARK  Name = 
REMARK  3 active torsions:
REMARK  status: ('A' for Active; 'I' for Inactive)
REMARK    1  A    between atoms: C_2  and  C_4
REMARK    2  A    between atoms: N_8  and  C_9
REMARK    3  A    between atoms: C_9  and  C_10
REMARK                            x       y       z     vdW  Elec       q    Type
REMARK                         _______ _______ _______ _____ _____    ______ ____
ROOT
ATOM      1  C   UNL     1      44.938   4.021  11.032  0.00  0.00    +0.000 A 
ATOM      2  C   UNL     1      45.079   3.212  12.131  0.00  0.00    +0.000 A 
ATOM      3  N   UNL     1      45.619   3.618  13.293  0.00  0.00    +0.000 NA
ATOM      4  C   UNL     1      46.050   4.881  13.362  0.00  0.00    +0.000 A 
ATOM      5  N   UNL     1      46.585   5.305  14.556  0.00  0.00    +0.000 N 
ATOM      6  N   UNL     1      45.990   5.746  12.336  0.00  0.00    +0.000 NA
ATOM      7  C   UNL     1      45.443   5.296  11.176  0.00  0.00    +0.000 A 
ATOM      8  H   UNL     1      46.877   6.274  14.566  0.00  0.00    +0.000 HD
ENDROOT
BRANCH   1  10
ATOM      9  N   UNL     1      44.016   4.512   8.858  0.00  0.00    +0.000 N 
ATOM     10  C   UNL     1      44.301   3.565   9.797  0.00  0.00    +0.000 C 
ATOM     11  O   UNL     1      44.065   2.372   9.607  0.00  0.00    +0.000 OA
ATOM     12  H   UNL     1      43.670   4.184   7.960  0.00  0.00    +0.000 HD
ATOM     13  H   UNL     1      44.405   5.447   8.883  0.00  0.00    +0.000 HD
ENDBRANCH   1  10
BRANCH   5  14
ATOM     14  C   UNL     1      47.295   4.328  15.363  0.00  0.00    +0.000 C 
BRANCH  14  15
ATOM     15  C   UNL     1      48.099   4.908  16.552  0.00  0.00    +0.000 C 
ATOM     16  C   UNL     1      47.330   4.792  17.873  0.00  0.00    +0.000 C 
ATOM     17  C   UNL     1      48.200   5.210  19.056  0.00  0.00    +0.000 C 
ATOM     18  C   UNL     1      49.537   4.482  19.025  0.00  0.00    +0.000 C 
ATOM     19  C   UNL     1      50.198   4.656  17.667  0.00  0.00    +0.000 C 
ATOM     20  O   UNL     1      49.338   4.179  16.633  0.00  0.00    +0.000 OA
ENDBRANCH  14  15
ENDBRANCH   5  14
TORSDOF 3
ENDMDL
MODEL 5
REMARK VINA RESULT:    -5.951      5.373      8.229
REMARK INTER + INTRA:          -7.357
REMARK INTER:                  -7.114
REMARK INTRA:                  -0.243
REMARK UNBOUND:                -0.362
REMARK  Name = 
REMARK  3 active torsions:
REMARK  status: ('A' for Active; 'I' for Inactive)
REMARK    1  A    between atoms: C_2  and  C_4
REMARK    2  A    between atoms: N_8  and  C_9
REMARK    3  A    between atoms: C_9  and  C_10
REMARK                            x       y       z     vdW  Elec       q    Type
REMARK                         _______ _______ _______ _____ _____    ______ ____
ROOT
ATOM      1  C   UNL     1      48.652   3.934  17.952  0.00  0.00    +0.000 A 
ATOM      2  C   UNL     1      47.690   4.785  17.471  0.00  0.00    +0.000 A 
ATOM      3  N   UNL     1      47.111   4.651  16.265  0.00  0.00    +0.000 NA
ATOM      4  C   UNL     1      47.518   3.635  15.498  0.00  0.00    +0.000 A 
ATOM      5  N   UNL     1      46.914   3.485  14.271  0.00  0.00    +0.000 N 
ATOM      6  N   UNL     1      48.476   2.766  15.859  0.00  0.00    +0.000 NA
ATOM      7  C   UNL     1      49.041   2.937  17.083  0.00  0.00    +0.000 A 
ATOM      8  H   UNL     1      47.239   2.689  13.736  0.00  0.00    +0.000 HD
ENDROOT
BRANCH   1  10
ATOM      9  N   UNL     1      48.480   3.631  20.339  0.00  0.00    +0.000 N 
ATOM     10  C   UNL     1      49.228   4.076  19.290  0.00  0.00    +0.000 C 
ATOM     11  O   UNL     1      50.354   4.548  19.449  0.00  0.00    +0.000 OA
ATOM     12  H   UNL     1      48.921   3.633  21.255  0.00  0.00    +0.000 HD
ATOM     13  H   UNL     1      47.670   3.033  20.224  0.00  0.00    +0.000 HD
ENDBRANCH   1  10
BRANCH   5  14
ATOM     14  C   UNL     1      46.472   4.685  13.584  0.00  0.00    +0.000 C 
BRANCH  14  15
ATOM     15  C   UNL     1      45.181   4.531  12.743  0.00  0.00    +0.000 C 
ATOM     16  C   UNL     1      45.388   4.982  11.291  0.00  0.00    +0.000 C 
ATOM     17  C   UNL     1      44.164   4.667  10.437  0.00  0.00    +0.000 C 
ATOM     18  C   UNL     1      43.751   3.211  10.604  0.00  0.00    +0.000 C 
ATOM     19  C   UNL     1      43.589   2.877  12.078  0.00  0.00    +0.000 C 
ATOM     20  O   UNL     1      44.802   3.143  12.782  0.00  0.00    +0.000 OA
ENDBRANCH  14  15
ENDBRANCH   5  14
TORSDOF 3
ENDMDL
MODEL 6
REMARK VINA RESULT:    -5.826      4.442      6.452
REMARK INTER + INTRA:          -7.210
REMARK INTER:                  -6.959
REMARK INTRA:                  -0.250
REMARK UNBOUND:                -0.362
REMARK  Name = 
REMARK  3 active torsions:
REMARK  status: ('A' for Active; 'I' for Inactive)
REMARK    1  A    between atoms: C_2  and  C_4
REMARK    2  A    between atoms: N_8  and  C_9
REMARK    3  A    between atoms: C_9  and  C_10
REMARK                            x       y       z     vdW  Elec       q    Type
REMARK                         _______ _______ _______ _____ _____    ______ ____
ROOT
ATOM      1  C   UNL     1      45.802   5.403  12.094  0.00  0.00    +0.000 A 
ATOM      2  C   UNL     1      46.547   5.954  13.105  0.00  0.00    +0.000 A 
ATOM      3  N   UNL     1      47.086   5.242  14.110  0.00  0.00    +0.000 NA
ATOM      4  C   UNL     1      46.862   3.924  14.116  0.00  0.00    +0.000 A 
ATOM      5  N   UNL     1      47.428   3.189  15.133  0.00  0.00    +0.000 N 
ATOM      6  N   UNL     1      46.120   3.289  13.195  0.00  0.00    +0.000 NA
ATOM      7  C   UNL     1      45.588   4.045  12.198  0.00  0.00    +0.000 A 
ATOM      8  H   UNL     1      47.249   2.195  15.084  0.00  0.00    +0.000 HD
ENDROOT
BRANCH   1  10
ATOM      9  N   UNL     1      45.306   5.635   9.745  0.00  0.00    +0.000 N 
ATOM     10  C   UNL     1      45.270   6.197  10.986  0.00  0.00    +0.000 C 
ATOM     11  O   UNL     1      44.784   7.312  11.181  0.00  0.00    +0.000 OA
ATOM     12  H   UNL     1      44.844   6.141   8.994  0.00  0.00    +0.000 HD
ATOM     13  H   UNL     1      45.477   4.648   9.592  0.00  0.00    +0.000 HD
ENDBRANCH   1  10
BRANCH   5  14
ATOM     14  C   UNL     1      47.583   3.832  16.426  0.00  0.00    +0.000 C 
BRANCH  14  15
ATOM     15  C   UNL     1      48.820   3.388  17.244  0.00  0.00    +0.000 C 
ATOM     16  C   UNL     1      49.432   2.093  16.696  0.00  0.00    +0.000 C 
ATOM     17  C   UNL     1      50.743   1.760  17.403  0.00  0.00    +0.000 C 
ATOM     18  C   UNL     1      51.677   2.963  17.399  0.00  0.00    +0.000 C 
ATOM     19  C   UNL     1      50.960   4.186  17.949  0.00  0.00    +0.000 C 
ATOM     20  O   UNL     1      49.784   4.456  17.186  0.00  0.00    +0.000 OA
ENDBRANCH  14  15
ENDBRANCH   5  14
TORSDOF 3
ENDMDL
MODEL 7
REMARK VINA RESULT:    -5.679      4.750      7.576
REMARK INTER + INTRA:          -7.037
REMARK INTER:                  -6.806
REMARK INTRA:                  -0.231
REMARK UNBOUND:                -0.362
REMARK  Name = 
REMARK  3 active torsions:
REMARK  status: ('A' for Active; 'I' for Inactive)
REMARK    1  A    between atoms: C_2  and  C_4
REMARK    2  A    between atoms: N_8  and  C_9
REMARK    3  A    between atoms: C_9  and  C_10
REMARK                            x       y       z     vdW  Elec       q    Type
REMARK                         _______ _______ _______ _____ _____    ______ ____
ROOT
ATOM      1  C   UNL     1      48.306   4.530  17.070  0.00  0.00    +0.000 A 
ATOM      2  C   UNL     1      47.269   3.770  16.593  0.00  0.00    +0.000 A 
ATOM      3  N   UNL     1      46.694   3.960  15.393  0.00  0.00    +0.000 NA
ATOM      4  C   UNL     1      47.163   4.960  14.639  0.00  0.00    +0.000 A 
ATOM      5  N   UNL     1      46.589   5.145  13.402  0.00  0.00    +0.000 N 
ATOM      6  N   UNL     1      48.151   5.783  15.024  0.00  0.00    +0.000 NA
ATOM      7  C   UNL     1      48.703   5.562  16.247  0.00  0.00    +0.000 A 
ATOM      8  H   UNL     1      46.991   5.898  12.860  0.00  0.00    +0.000 HD
ENDROOT
BRANCH   1  10
ATOM      9  N   UNL     1      48.390   3.297  19.141  0.00  0.00    +0.000 N 
ATOM     10  C   UNL     1      48.945   4.267  18.360  0.00  0.00    +0.000 C 
ATOM     11  O   UNL     1      49.957   4.877  18.703  0.00  0.00    +0.000 OA
ATOM     12  H   UNL     1      48.892   3.042  19.988  0.00  0.00    +0.000 HD
ATOM     13  H   UNL     1      47.715   2.627  18.792  0.00  0.00    +0.000 HD
ENDBRANCH   1  10
BRANCH   5  14
ATOM     14  C   UNL     1      45.181   4.820  13.255  0.00  0.00    +0.000 C 
BRANCH  14  15
ATOM     15  C   UNL     1      44.700   4.597  11.800  0.00  0.00    +0.000 C 
ATOM     16  C   UNL     1      45.623   5.278  10.783  0.00  0.00    +0.000 C 
ATOM     17  C   UNL     1      45.236   4.910   9.353  0.00  0.00    +0.000 C 
ATOM     18  C   UNL     1      45.115   3.399   9.201  0.00  0.00    +0.000 C 
ATOM     19  C   UNL     1      44.189   2.836  10.267  0.00  0.00    +0.000 C 
ATOM     20  O   UNL     1      44.667   3.177  11.568  0.00  0.00    +0.000 OA
ENDBRANCH  14  15
ENDBRANCH   5  14
TORSDOF 3
ENDMDL
MODEL 8
REMARK VINA RESULT:    -5.584      3.774      6.870
REMARK INTER + INTRA:          -6.926
REMARK INTER:                  -6.675
REMARK INTRA:                  -0.251
REMARK UNBOUND:                -0.362
REMARK  Name = 
REMARK  3 active torsions:
REMARK  status: ('A' for Active; 'I' for Inactive)
REMARK    1  A    between atoms: C_2  and  C_4
REMARK    2  A    between atoms: N_8  and  C_9
REMARK    3  A    between atoms: C_9  and  C_10
REMARK                            x       y       z     vdW  Elec       q    Type
REMARK                         _______ _______ _______ _____ _____    ______ ____
ROOT
ATOM      1  C   UNL     1      47.980   5.761  15.314  0.00  0.00    +0.000 A 
ATOM      2  C   UNL     1      47.134   4.762  14.907  0.00  0.00    +0.000 A 
ATOM      3  N   UNL     1      46.553   4.722  13.696  0.00  0.00    +0.000 NA
ATOM      4  C   UNL     1      46.814   5.729  12.856  0.00  0.00    +0.000 A 
ATOM      5  N   UNL     1      46.235   5.681  11.608  0.00  0.00    +0.000 N 
ATOM      6  N   UNL     1      47.600   6.772  13.166  0.00  0.00    +0.000 NA
ATOM      7  C   UNL     1      48.165   6.779  14.402  0.00  0.00    +0.000 A 
ATOM      8  H   UNL     1      46.480   6.453  11.002  0.00  0.00    +0.000 HD
ENDROOT
BRANCH   1  10
ATOM      9  N   UNL     1      48.057   6.482  17.614  0.00  0.00    +0.000 N 
ATOM     10  C   UNL     1      48.638   5.751  16.621  0.00  0.00    +0.000 C 
ATOM     11  O   UNL     1      49.653   5.083  16.815  0.00  0.00    +0.000 OA
ATOM     12  H   UNL     1      48.453   6.393  18.546  0.00  0.00    +0.000 HD
ATOM     13  H   UNL     1      47.112   6.843  17.552  0.00  0.00    +0.000 HD
ENDBRANCH   1  10
BRANCH   5  14
ATOM     14  C   UNL     1      44.930   5.056  11.492  0.00  0.00    +0.000 C 
BRANCH  14  15
ATOM     15  C   UNL     1      44.684   4.272  10.181  0.00  0.00    +0.000 C 
ATOM     16  C   UNL     1      45.586   4.766   9.043  0.00  0.00    +0.000 C 
ATOM     17  C   UNL     1      45.455   3.876   7.810  0.00  0.00    +0.000 C 
ATOM     18  C   UNL     1      45.634   2.410   8.182  0.00  0.00    +0.000 C 
ATOM     19  C   UNL     1      44.701   2.041   9.324  0.00  0.00    +0.000 C 
ATOM     20  O   UNL     1      44.942   2.882  10.452  0.00  0.00    +0.000 OA
ENDBRANCH  14  15
ENDBRANCH   5  14
TORSDOF 3
ENDMDL
MODEL 9
REMARK VINA RESULT:    -5.343      3.831      5.470
REMARK INTER + INTRA:          -6.641
REMARK INTER:                  -6.346
REMARK INTRA:                  -0.295
REMARK UNBOUND:                -0.362
REMARK  Name = 
REMARK  3 active torsions:
REMARK  status: ('A' for Active; 'I' for Inactive)
REMARK    1  A    between atoms: C_2  and  C_4
REMARK    2  A    between atoms: N_8  and  C_9
REMARK    3  A    between atoms: C_9  and  C_10
REMARK                            x       y       z     vdW  Elec       q    Type
REMARK                         _______ _______ _______ _____ _____    ______ ____
ROOT
ATOM      1  C   UNL     1      44.238   4.420  11.743  0.00  0.00    +0.000 A 
ATOM      2  C   UNL     1      45.146   4.731  12.723  0.00  0.00    +0.000 A 
ATOM      3  N   UNL     1      45.450   5.988  13.088  0.00  0.00    +0.000 NA
ATOM      4  C   UNL     1      44.834   6.982  12.439  0.00  0.00    +0.000 A 
ATOM      5  N   UNL     1      45.129   8.270  12.823  0.00  0.00    +0.000 N 
ATOM      6  N   UNL     1      43.955   6.788  11.442  0.00  0.00    +0.000 NA
ATOM      7  C   UNL     1      43.678   5.502  11.099  0.00  0.00    +0.000 A 
ATOM      8  H   UNL     1      44.622   8.985  12.318  0.00  0.00    +0.000 HD
ENDROOT
BRANCH   1  10
ATOM      9  N   UNL     1      43.673   2.180  12.439  0.00  0.00    +0.000 N 
ATOM     10  C   UNL     1      43.891   3.039  11.403  0.00  0.00    +0.000 C 
ATOM     11  O   UNL     1      43.771   2.686  10.230  0.00  0.00    +0.000 OA
ATOM     12  H   UNL     1      43.332   1.252  12.205  0.00  0.00    +0.000 HD
ATOM     13  H   UNL     1      43.533   2.491  13.393  0.00  0.00    +0.000 HD
ENDBRANCH   1  10
BRANCH   5  14
ATOM     14  C   UNL     1      46.471   8.540  13.307  0.00  0.00    +0.000 C 
BRANCH  14  15
ATOM     15  C   UNL     1      47.544   8.744  12.210  0.00  0.00    +0.000 C 
ATOM     16  C   UNL     1      48.008  10.204  12.130  0.00  0.00    +0.000 C 
ATOM     17  C   UNL     1      49.181  10.357  11.166  0.00  0.00    +0.000 C 
ATOM     18  C   UNL     1      50.278   9.352  11.489  0.00  0.00    +0.000 C 
ATOM     19  C   UNL     1      49.700   7.947  11.555  0.00  0.00    +0.000 C 
ATOM     20  O   UNL     1      48.656   7.887  12.527  0.00  0.00    +0.000 OA
ENDBRANCH  14  15
ENDBRANCH   5  14
TORSDOF 3
ENDMDL
