MODEL 1
REMARK VINA RESULT:    -6.996      0.000      0.000
REMARK INTER + INTRA:          -9.135
REMARK INTER:                  -8.632
REMARK INTRA:                  -0.503
REMARK UNBOUND:                -0.503
REMARK  Name = 
REMARK  6 active torsions:
REMARK  status: ('A' for Active; 'I' for Inactive)
REMARK    1  A    between atoms: C_1  and  C_2
REMARK    2  A    between atoms: C_2  and  C_3
REMARK    3  A    between atoms: C_2  and  N_4
REMARK    4  A    between atoms: N_4  and  C_5
REMARK    5  A    between atoms: C_5  and  C_6
REMARK    6  A    between atoms: C_15  and  C_16
REMARK                            x       y       z     vdW  Elec       q    Type
REMARK                         _______ _______ _______ _____ _____    ______ ____
ROOT
ATOM      1  N   UNL     1      44.586   5.031  10.779  0.00  0.00    +0.000 N 
ATOM      2  C   UNL     1      45.176   4.318   9.715  0.00  0.00    +0.000 A 
ATOM      3  C   UNL     1      45.947   4.992   8.752  0.00  0.00    +0.000 A 
ATOM      4  N   UNL     1      46.535   4.398   7.678  0.00  0.00    +0.000 NA
ATOM      5  C   UNL     1      46.313   3.059   7.591  0.00  0.00    +0.000 A 
ATOM      6  C   UNL     1      45.566   2.369   8.527  0.00  0.00    +0.000 A 
ATOM      7  N   UNL     1      44.997   2.984   9.596  0.00  0.00    +0.000 NA
ENDROOT
BRANCH   5   8
ATOM      8  C   UNL     1      46.885   2.335   6.425  0.00  0.00    +0.000 C 
ATOM      9  N   UNL     1      47.121   3.103   5.314  0.00  0.00    +0.000 N 
ATOM     10  O   UNL     1      47.121   1.136   6.446  0.00  0.00    +0.000 OA
ATOM     11  H   UNL     1      46.883   4.088   5.323  0.00  0.00    +0.000 HD
ATOM     12  H   UNL     1      47.473   2.667   4.474  0.00  0.00    +0.000 HD
ENDBRANCH   5   8
BRANCH   1  14
ATOM     13  C   UNL     1      43.684   3.547  12.609  0.00  0.00    +0.000 C 
ATOM     14  C   UNL     1      43.365   4.427  11.388  0.00  0.00    +0.000 C 
ATOM     15  C   UNL     1      42.243   5.423  11.700  0.00  0.00    +0.000 C 
ENDBRANCH   1  14
BRANCH   1  16
ATOM     16  C   UNL     1      45.621   5.521  11.716  0.00  0.00    +0.000 C 
BRANCH  16  17
ATOM     17  C   UNL     1      45.703   7.030  11.844  0.00  0.00    +0.000 A 
ATOM     18  C   UNL     1      44.701   7.909  11.425  0.00  0.00    +0.000 A 
ATOM     19  C   UNL     1      44.880   9.272  11.623  0.00  0.00    +0.000 A 
ATOM     20  N   UNL     1      45.979   9.818  12.186  0.00  0.00    +0.000 NA
ATOM     21  C   UNL     1      46.951   8.964  12.561  0.00  0.00    +0.000 A 
ATOM     22  C   UNL     1      46.862   7.588  12.409  0.00  0.00    +0.000 A 
ENDBRANCH  16  17
ENDBRANCH   1  16
TORSDOF 4
ENDMDL
MODEL 2
REMARK VINA RESULT:    -6.148      2.809      6.364
REMARK INTER + INTRA:          -8.089
REMARK INTER:                  -7.571
REMARK INTRA:                  -0.518
REMARK UNBOUND:                -0.503
REMARK  Name = 
REMARK  6 active torsions:
REMARK  status: ('A' for Active; 'I' for Inactive)
REMARK    1  A    between atoms: C_1  and  C_2
REMARK    2  A    between atoms: C_2  and  C_3
REMARK    3  A    between atoms: C_2  and  N_4
REMARK    4  A    between atoms: N_4  and  C_5
REMARK    5  A    between atoms: C_5  and  C_6
REMARK    6  A    between atoms: C_15  and  C_16
REMARK                            x       y       z     vdW  Elec       q    Type
REMARK                         _______ _______ _______ _____ _____    ______ ____
ROOT
ATOM      1  N   UNL     1      44.800   5.112  11.414  0.00  0.00    +0.000 N 
ATOM      2  C   UNL     1      45.548   6.243  11.799  0.00  0.00    +0.000 A 
ATOM      3  C   UNL     1      46.884   6.381  11.388  0.00  0.00    +0.000 A 
ATOM      4  N   UNL     1      47.695   7.420  11.727  0.00  0.00    +0.000 NA
ATOM      5  C   UNL     1      47.105   8.349  12.527  0.00  0.00    +0.000 A 
ATOM      6  C   UNL     1      45.790   8.243  12.940  0.00  0.00    +0.000 A 
ATOM      7  N   UNL     1      44.999   7.200  12.581  0.00  0.00    +0.000 NA
ENDROOT
BRANCH   5   8
ATOM      8  C   UNL     1      47.929   9.500  12.981  0.00  0.00    +0.000 C 
ATOM      9  N   UNL     1      47.358  10.735  12.813  0.00  0.00    +0.000 N 
ATOM     10  O   UNL     1      49.045   9.362  13.461  0.00  0.00    +0.000 OA
ATOM     11  H   UNL     1      46.443  10.812  12.383  0.00  0.00    +0.000 HD
ATOM     12  H   UNL     1      47.878  11.562  13.065  0.00  0.00    +0.000 HD
ENDBRANCH   5   8
BRANCH   1  14
ATOM     13  C   UNL     1      42.326   5.337  11.858  0.00  0.00    +0.000 C 
ATOM     14  C   UNL     1      43.666   4.728  12.306  0.00  0.00    +0.000 C 
ATOM     15  C   UNL     1      43.534   3.224  12.566  0.00  0.00    +0.000 C 
ENDBRANCH   1  14
BRANCH   1  16
ATOM     16  C   UNL     1      44.519   5.142   9.962  0.00  0.00    +0.000 C 
BRANCH  16  17
ATOM     17  C   UNL     1      45.194   4.047   9.158  0.00  0.00    +0.000 A 
ATOM     18  C   UNL     1      45.038   2.682   9.406  0.00  0.00    +0.000 A 
ATOM     19  C   UNL     1      45.688   1.772   8.580  0.00  0.00    +0.000 A 
ATOM     20  N   UNL     1      46.486   2.122   7.549  0.00  0.00    +0.000 NA
ATOM     21  C   UNL     1      46.651   3.442   7.335  0.00  0.00    +0.000 A 
ATOM     22  C   UNL     1      46.042   4.424   8.103  0.00  0.00    +0.000 A 
ENDBRANCH  16  17
ENDBRANCH   1  16
TORSDOF 4
ENDMDL
MODEL 3
REMARK VINA RESULT:    -5.802      3.979      6.090
REMARK INTER + INTRA:          -7.662
REMARK INTER:                  -6.991
REMARK INTRA:                  -0.671
REMARK UNBOUND:                -0.503
REMARK  Name = 
REMARK  6 active torsions:
REMARK  status: ('A' for Active; 'I' for Inactive)
REMARK    1  A    between atoms: C_1  and  C_2
REMARK    2  A    between atoms: C_2  and  C_3
REMARK    3  A    between atoms: C_2  and  N_4
REMARK    4  A    between atoms: N_4  and  C_5
REMARK    5  A    between atoms: C_5  and  C_6
REMARK    6  A    between atoms: C_15  and  C_16
REMARK                            x       y       z     vdW  Elec       q    Type
REMARK                         _______ _______ _______ _____ _____    ______ ____
ROOT
ATOM      1  N   UNL     1      48.125   6.719  13.114  0.00  0.00    +0.000 N 
ATOM      2  C   UNL     1      47.002   5.928  12.796  0.00  0.00    +0.000 A 
ATOM      3  C   UNL     1      46.802   4.692  13.435  0.00  0.00    +0.000 A 
ATOM      4  N   UNL     1      45.766   3.848  13.180  0.00  0.00    +0.000 NA
ATOM      5  C   UNL     1      44.908   4.292  12.223  0.00  0.00    +0.000 A 
ATOM      6  C   UNL     1      45.075   5.505  11.583  0.00  0.00    +0.000 A 
ATOM      7  N   UNL     1      46.113   6.335  11.862  0.00  0.00    +0.000 NA
ENDROOT
BRANCH   5   8
ATOM      8  C   UNL     1      43.768   3.413  11.850  0.00  0.00    +0.000 C 
ATOM      9  N   UNL     1      43.724   2.203  12.493  0.00  0.00    +0.000 N 
ATOM     10  O   UNL     1      42.930   3.737  11.022  0.00  0.00    +0.000 OA
ATOM     11  H   UNL     1      44.454   1.956  13.152  0.00  0.00    +0.000 HD
ATOM     12  H   UNL     1      42.998   1.542  12.260  0.00  0.00    +0.000 HD
ENDBRANCH   5   8
BRANCH   1  14
ATOM     13  C   UNL     1      48.220   9.124  12.356  0.00  0.00    +0.000 C 
ATOM     14  C   UNL     1      48.596   7.662  12.057  0.00  0.00    +0.000 C 
ATOM     15  C   UNL     1      50.079   7.532  11.695  0.00  0.00    +0.000 C 
ENDBRANCH   1  14
BRANCH   1  16
ATOM     16  C   UNL     1      48.007   7.265  14.484  0.00  0.00    +0.000 C 
BRANCH  16  17
ATOM     17  C   UNL     1      48.977   6.678  15.490  0.00  0.00    +0.000 A 
ATOM     18  C   UNL     1      48.629   5.731  16.457  0.00  0.00    +0.000 A 
ATOM     19  C   UNL     1      49.615   5.246  17.306  0.00  0.00    +0.000 A 
ATOM     20  N   UNL     1      50.905   5.643  17.273  0.00  0.00    +0.000 NA
ATOM     21  C   UNL     1      51.226   6.576  16.355  0.00  0.00    +0.000 A 
ATOM     22  C   UNL     1      50.312   7.117  15.462  0.00  0.00    +0.000 A 
ENDBRANCH  16  17
ENDBRANCH   1  16
TORSDOF 4
ENDMDL
MODEL 4
REMARK VINA RESULT:    -5.709      5.046      7.644
REMARK INTER + INTRA:          -7.547
REMARK INTER:                  -6.784
REMARK INTRA:                  -0.763
REMARK UNBOUND:                -0.503
REMARK  Name = 
REMARK  6 active torsions:
REMARK  status: ('A' for Active; 'I' for Inactive)
REMARK    1  A    between atoms: C_1  and  C_2
REMARK    2  A    between atoms: C_2  and  C_3
REMARK    3  A    between atoms: C_2  and  N_4
REMARK    4  A    between atoms: N_4  and  C_5
REMARK    5  A    between atoms: C_5  and  C_6
REMARK    6  A    between atoms: C_15  and  C_16
REMARK                            x       y       z     vdW  Elec       q    Type
REMARK                         _______ _______ _______ _____ _____    ______ ____
ROOT
ATOM      1  N   UNL     1      46.884   6.002  13.685  0.00  0.00    +0.000 N 
ATOM      2  C   UNL     1      47.504   5.490  14.843  0.00  0.00    +0.000 A 
ATOM      3  C   UNL     1      46.881   4.474  15.588  0.00  0.00    +0.000 A 
ATOM      4  N   UNL     1      47.385   3.933  16.730  0.00  0.00    +0.000 NA
ATOM      5  C   UNL     1      48.574   4.465  17.122  0.00  0.00    +0.000 A 
ATOM      6  C   UNL     1      49.213   5.459  16.405  0.00  0.00    +0.000 A 
ATOM      7  N   UNL     1      48.693   5.977  15.262  0.00  0.00    +0.000 NA
ENDROOT
BRANCH   5   8
ATOM      8  C   UNL     1      49.179   3.961  18.383  0.00  0.00    +0.000 C 
ATOM      9  N   UNL     1      48.382   3.128  19.125  0.00  0.00    +0.000 N 
ATOM     10  O   UNL     1      50.304   4.272  18.743  0.00  0.00    +0.000 OA
ATOM     11  H   UNL     1      47.442   2.918  18.810  0.00  0.00    +0.000 HD
ATOM     12  H   UNL     1      48.717   2.780  20.012  0.00  0.00    +0.000 HD
ENDBRANCH   5   8
BRANCH   1  14
ATOM     13  C   UNL     1      48.121   7.446  12.025  0.00  0.00    +0.000 C 
ATOM     14  C   UNL     1      47.253   7.395  13.294  0.00  0.00    +0.000 C 
ATOM     15  C   UNL     1      46.073   8.369  13.200  0.00  0.00    +0.000 C 
ENDBRANCH   1  14
BRANCH   1  16
ATOM     16  C   UNL     1      46.879   4.992  12.605  0.00  0.00    +0.000 C 
BRANCH  16  17
ATOM     17  C   UNL     1      45.504   4.624  12.081  0.00  0.00    +0.000 A 
ATOM     18  C   UNL     1      44.744   5.434  11.235  0.00  0.00    +0.000 A 
ATOM     19  C   UNL     1      43.508   4.974  10.799  0.00  0.00    +0.000 A 
ATOM     20  N   UNL     1      42.974   3.786  11.153  0.00  0.00    +0.000 NA
ATOM     21  C   UNL     1      43.703   3.023  11.991  0.00  0.00    +0.000 A 
ATOM     22  C   UNL     1      44.948   3.396  12.477  0.00  0.00    +0.000 A 
ENDBRANCH  16  17
ENDBRANCH   1  16
TORSDOF 4
ENDMDL
MODEL 5
REMARK VINA RESULT:    -5.205      4.073      5.991
REMARK INTER + INTRA:          -6.926
REMARK INTER:                  -6.199
REMARK INTRA:                  -0.727
REMARK UNBOUND:                -0.503
REMARK  Name = 
REMARK  6 active torsions:
REMARK  status: ('A' for Active; 'I' for Inactive)
REMARK    1  A    between atoms: C_1  and  C_2
REMARK    2  A    between atoms: C_2  and  C_3
REMARK    3  A    between atoms: C_2  and  N_4
REMARK    4  A    between atoms: N_4  and  C_5
REMARK    5  A    between atoms: C_5  and  C_6
REMARK    6  A    between atoms: C_15  and  C_16
REMARK                            x       y       z     vdW  Elec       q    Type
REMARK                         _______ _______ _______ _____ _____    ______ ____
ROOT
ATOM      1  N   UNL     1      46.141   6.480  12.409  0.00  0.00    +0.000 N 
ATOM      2  C   UNL     1      46.581   5.715  13.508  0.00  0.00    +0.000 A 
ATOM      3  C   UNL     1      47.723   6.102  14.229  0.00  0.00    +0.000 A 
ATOM      4  N   UNL     1      48.239   5.418  15.286  0.00  0.00    +0.000 NA
ATOM      5  C   UNL     1      47.555   4.287  15.606  0.00  0.00    +0.000 A 
ATOM      6  C   UNL     1      46.424   3.886  14.920  0.00  0.00    +0.000 A 
ATOM      7  N   UNL     1      45.923   4.592  13.873  0.00  0.00    +0.000 NA
ENDROOT
BRANCH   5   8
ATOM      8  C   UNL     1      48.072   3.455  16.724  0.00  0.00    +0.000 C 
ATOM      9  N   UNL     1      47.118   2.935  17.560  0.00  0.00    +0.000 N 
ATOM     10  O   UNL     1      49.264   3.252  16.897  0.00  0.00    +0.000 OA
ATOM     11  H   UNL     1      46.140   3.150  17.403  0.00  0.00    +0.000 HD
ATOM     12  H   UNL     1      47.402   2.391  18.362  0.00  0.00    +0.000 HD
ENDBRANCH   5   8
BRANCH   1  14
ATOM     13  C   UNL     1      43.868   6.182  11.355  0.00  0.00    +0.000 C 
ATOM     14  C   UNL     1      45.347   5.759  11.371  0.00  0.00    +0.000 C 
ATOM     15  C   UNL     1      45.949   5.794   9.962  0.00  0.00    +0.000 C 
ENDBRANCH   1  14
BRANCH   1  16
ATOM     16  C   UNL     1      45.611   7.785  12.860  0.00  0.00    +0.000 C 
BRANCH  16  17
ATOM     17  C   UNL     1      46.315   8.996  12.279  0.00  0.00    +0.000 A 
ATOM     18  C   UNL     1      47.699   9.103  12.131  0.00  0.00    +0.000 A 
ATOM     19  C   UNL     1      48.225  10.254  11.557  0.00  0.00    +0.000 A 
ATOM     20  N   UNL     1      47.481  11.300  11.139  0.00  0.00    +0.000 NA
ATOM     21  C   UNL     1      46.148  11.198  11.311  0.00  0.00    +0.000 A 
ATOM     22  C   UNL     1      45.531  10.089  11.870  0.00  0.00    +0.000 A 
ENDBRANCH  16  17
ENDBRANCH   1  16
TORSDOF 4
ENDMDL
MODEL 6
REMARK VINA RESULT:    -4.850      3.325      6.699
REMARK INTER + INTRA:          -6.488
REMARK INTER:                  -5.988
REMARK INTRA:                  -0.499
REMARK UNBOUND:                -0.503
REMARK  Name = 
REMARK  6 active torsions:
REMARK  status: ('A' for Active; 'I' for Inactive)
REMARK    1  A    between atoms: C_1  and  C_2
REMARK    2  A    between atoms: C_2  and  C_3
REMARK    3  A    between atoms: C_2  and  N_4
REMARK    4  A    between atoms: N_4  and  C_5
REMARK    5  A    between atoms: C_5  and  C_6
REMARK    6  A    between atoms: C_15  and  C_16
REMARK                            x       y       z     vdW  Elec       q    Type
REMARK                         _______ _______ _______ _____ _____    ______ ____
ROOT
ATOM      1  N   UNL     1      46.432   5.762  12.201  0.00  0.00    +0.000 N 
ATOM      2  C   UNL     1      47.203   6.924  12.410  0.00  0.00    +0.000 A 
ATOM      3  C   UNL     1      48.067   7.390  11.405  0.00  0.00    +0.000 A 
ATOM      4  N   UNL     1      48.867   8.485  11.520  0.00  0.00    +0.000 NA
ATOM      5  C   UNL     1      48.778   9.117  12.721  0.00  0.00    +0.000 A 
ATOM      6  C   UNL     1      47.932   8.685  13.725  0.00  0.00    +0.000 A 
ATOM      7  N   UNL     1      47.136   7.594  13.582  0.00  0.00    +0.000 NA
ENDROOT
BRANCH   5   8
ATOM      8  C   UNL     1      49.649  10.300  12.950  0.00  0.00    +0.000 C 
ATOM      9  N   UNL     1      49.066  11.516  12.701  0.00  0.00    +0.000 N 
ATOM     10  O   UNL     1      50.808  10.202  13.324  0.00  0.00    +0.000 OA
ATOM     11  H   UNL     1      48.112  11.556  12.361  0.00  0.00    +0.000 HD
ATOM     12  H   UNL     1      49.613  12.358  12.799  0.00  0.00    +0.000 HD
ENDBRANCH   5   8
BRANCH   1  14
ATOM     13  C   UNL     1      44.503   4.760  13.483  0.00  0.00    +0.000 C 
ATOM     14  C   UNL     1      46.020   5.008  13.422  0.00  0.00    +0.000 C 
ATOM     15  C   UNL     1      46.805   3.716  13.675  0.00  0.00    +0.000 C 
ENDBRANCH   1  14
BRANCH   1  16
ATOM     16  C   UNL     1      45.382   6.007  11.189  0.00  0.00    +0.000 C 
BRANCH  16  17
ATOM     17  C   UNL     1      45.330   4.991  10.064  0.00  0.00    +0.000 A 
ATOM     18  C   UNL     1      46.026   5.116   8.860  0.00  0.00    +0.000 A 
ATOM     19  C   UNL     1      45.921   4.102   7.916  0.00  0.00    +0.000 A 
ATOM     20  N   UNL     1      45.168   2.993   8.077  0.00  0.00    +0.000 NA
ATOM     21  C   UNL     1      44.479   2.895   9.231  0.00  0.00    +0.000 A 
ATOM     22  C   UNL     1      44.523   3.853  10.233  0.00  0.00    +0.000 A 
ENDBRANCH  16  17
ENDBRANCH   1  16
TORSDOF 4
ENDMDL
MODEL 7
REMARK VINA RESULT:    -4.773      3.818      7.041
REMARK INTER + INTRA:          -6.393
REMARK INTER:                  -6.409
REMARK INTRA:                   0.016
REMARK UNBOUND:                -0.503
REMARK  Name = 
REMARK  6 active torsions:
REMARK  status: ('A' for Active; 'I' for Inactive)
REMARK    1  A    between atoms: C_1  and  C_2
REMARK    2  A    between atoms: C_2  and  C_3
REMARK    3  A    between atoms: C_2  and  N_4
REMARK    4  A    between atoms: N_4  and  C_5
REMARK    5  A    between atoms: C_5  and  C_6
REMARK    6  A    between atoms: C_15  and  C_16
REMARK                            x       y       z     vdW  Elec       q    Type
REMARK                         _______ _______ _______ _____ _____    ______ ____
ROOT
ATOM      1  N   UNL     1      46.022   7.198  12.352  0.00  0.00    +0.000 N 
ATOM      2  C   UNL     1      46.960   6.977  13.381  0.00  0.00    +0.000 A 
ATOM      3  C   UNL     1      47.137   5.689  13.913  0.00  0.00    +0.000 A 
ATOM      4  N   UNL     1      47.998   5.380  14.921  0.00  0.00    +0.000 NA
ATOM      5  C   UNL     1      48.696   6.443  15.404  0.00  0.00    +0.000 A 
ATOM      6  C   UNL     1      48.548   7.719  14.894  0.00  0.00    +0.000 A 
ATOM      7  N   UNL     1      47.689   8.000  13.881  0.00  0.00    +0.000 NA
ENDROOT
BRANCH   5   8
ATOM      8  C   UNL     1      49.630   6.204  16.535  0.00  0.00    +0.000 C 
ATOM      9  N   UNL     1      49.928   7.307  17.294  0.00  0.00    +0.000 N 
ATOM     10  O   UNL     1      50.111   5.106  16.772  0.00  0.00    +0.000 OA
ATOM     11  H   UNL     1      49.534   8.208  17.048  0.00  0.00    +0.000 HD
ATOM     12  H   UNL     1      50.585   7.224  18.055  0.00  0.00    +0.000 HD
ENDBRANCH   5   8
BRANCH   1  14
ATOM     13  C   UNL     1      46.531   9.621  11.864  0.00  0.00    +0.000 C 
ATOM     14  C   UNL     1      45.465   8.579  12.244  0.00  0.00    +0.000 C 
ATOM     15  C   UNL     1      44.224   8.703  11.353  0.00  0.00    +0.000 C 
ENDBRANCH   1  14
BRANCH   1  16
ATOM     16  C   UNL     1      46.470   6.565  11.092  0.00  0.00    +0.000 C 
BRANCH  16  17
ATOM     17  C   UNL     1      45.565   5.463  10.575  0.00  0.00    +0.000 A 
ATOM     18  C   UNL     1      45.633   4.934   9.284  0.00  0.00    +0.000 A 
ATOM     19  C   UNL     1      44.767   3.904   8.936  0.00  0.00    +0.000 A 
ATOM     20  N   UNL     1      43.839   3.382   9.765  0.00  0.00    +0.000 NA
ATOM     21  C   UNL     1      43.764   3.918  11.000  0.00  0.00    +0.000 A 
ATOM     22  C   UNL     1      44.587   4.944  11.440  0.00  0.00    +0.000 A 
ENDBRANCH  16  17
ENDBRANCH   1  16
TORSDOF 4
ENDMDL
MODEL 8
REMARK VINA RESULT:    -4.547      3.246      6.221
REMARK INTER + INTRA:          -6.114
REMARK INTER:                  -6.844
REMARK INTRA:                   0.730
REMARK UNBOUND:                -0.503
REMARK  Name = 
REMARK  6 active torsions:
REMARK  status: ('A' for Active; 'I' for Inactive)
REMARK    1  A    between atoms: C_1  and  C_2
REMARK    2  A    between atoms: C_2  and  C_3
REMARK    3  A    between atoms: C_2  and  N_4
REMARK    4  A    between atoms: N_4  and  C_5
REMARK    5  A    between atoms: C_5  and  C_6
REMARK    6  A    between atoms: C_15  and  C_16
REMARK                            x       y       z     vdW  Elec       q    Type
REMARK                         _______ _______ _______ _____ _____    ______ ____
ROOT
ATOM      1  N   UNL     1      45.055   5.567  12.259  0.00  0.00    +0.000 N 
ATOM      2  C   UNL     1      46.346   6.081  12.496  0.00  0.00    +0.000 A 
ATOM      3  C   UNL     1      47.057   5.703  13.648  0.00  0.00    +0.000 A 
ATOM      4  N   UNL     1      48.296   6.162  13.977  0.00  0.00    +0.000 NA
ATOM      5  C   UNL     1      48.816   7.050  13.088  0.00  0.00    +0.000 A 
ATOM      6  C   UNL     1      48.143   7.433  11.944  0.00  0.00    +0.000 A 
ATOM      7  N   UNL     1      46.911   6.954  11.633  0.00  0.00    +0.000 NA
ENDROOT
BRANCH   5   8
ATOM      8  C   UNL     1      50.149   7.635  13.390  0.00  0.00    +0.000 C 
ATOM      9  N   UNL     1      50.637   7.370  14.644  0.00  0.00    +0.000 N 
ATOM     10  O   UNL     1      50.768   8.313  12.584  0.00  0.00    +0.000 OA
ATOM     11  H   UNL     1      50.081   6.829  15.297  0.00  0.00    +0.000 HD
ATOM     12  H   UNL     1      51.520   7.768  14.928  0.00  0.00    +0.000 HD
ENDBRANCH   5   8
BRANCH   1  14
ATOM     13  C   UNL     1      42.680   5.970  11.507  0.00  0.00    +0.000 C 
ATOM     14  C   UNL     1      44.154   6.400  11.408  0.00  0.00    +0.000 C 
ATOM     15  C   UNL     1      44.305   7.912  11.601  0.00  0.00    +0.000 C 
ENDBRANCH   1  14
BRANCH   1  16
ATOM     16  C   UNL     1      45.117   4.124  11.942  0.00  0.00    +0.000 C 
BRANCH  16  17
ATOM     17  C   UNL     1      45.106   3.794  10.462  0.00  0.00    +0.000 A 
ATOM     18  C   UNL     1      45.594   4.642   9.465  0.00  0.00    +0.000 A 
ATOM     19  C   UNL     1      45.554   4.215   8.143  0.00  0.00    +0.000 A 
ATOM     20  N   UNL     1      45.055   3.026   7.747  0.00  0.00    +0.000 NA
ATOM     21  C   UNL     1      44.561   2.227   8.713  0.00  0.00    +0.000 A 
ATOM     22  C   UNL     1      44.560   2.564  10.059  0.00  0.00    +0.000 A 
ENDBRANCH  16  17
ENDBRANCH   1  16
TORSDOF 4
ENDMDL
MODEL 9
REMARK VINA RESULT:    -4.242      4.051      6.599
REMARK INTER + INTRA:          -5.737
REMARK INTER:                  -5.370
REMARK INTRA:                  -0.367
REMARK UNBOUND:                -0.503
REMARK  Name = 
REMARK  6 active torsions:
REMARK  status: ('A' for Active; 'I' for Inactive)
REMARK    1  A    between atoms: C_1  and  C_2
REMARK    2  A    between atoms: C_2  and  C_3
REMARK    3  A    between atoms: C_2  and  N_4
REMARK    4  A    between atoms: N_4  and  C_5
REMARK    5  A    between atoms: C_5  and  C_6
REMARK    6  A    between atoms: C_15  and  C_16
REMARK                            x       y       z     vdW  Elec       q    Type
REMARK                         _______ _______ _______ _____ _____    ______ ____
ROOT
ATOM      1  N   UNL     1      47.280   5.772  13.006  0.00  0.00    +0.000 N 
ATOM      2  C   UNL     1      48.345   6.695  12.959  0.00  0.00    +0.000 A 
ATOM      3  C   UNL     1      48.558   7.472  11.808  0.00  0.00    +0.000 A 
ATOM      4  N   UNL     1      49.569   8.370  11.657  0.00  0.00    +0.000 NA
ATOM      5  C   UNL     1      50.397   8.464  12.732  0.00  0.00    +0.000 A 
ATOM      6  C   UNL     1      50.207   7.718  13.880  0.00  0.00    +0.000 A 
ATOM      7  N   UNL     1      49.184   6.835  14.010  0.00  0.00    +0.000 NA
ENDROOT
BRANCH   5   8
ATOM      8  C   UNL     1      51.555   9.391  12.639  0.00  0.00    +0.000 C 
ATOM      9  N   UNL     1      51.287  10.699  12.953  0.00  0.00    +0.000 N 
ATOM     10  O   UNL     1      52.668   9.023  12.297  0.00  0.00    +0.000 OA
ATOM     11  H   UNL     1      50.343  10.974  13.202  0.00  0.00    +0.000 HD
ATOM     12  H   UNL     1      52.019  11.389  12.874  0.00  0.00    +0.000 HD
ENDBRANCH   5   8
BRANCH   1  14
ATOM     13  C   UNL     1      47.031   4.954  15.381  0.00  0.00    +0.000 C 
ATOM     14  C   UNL     1      47.442   4.616  13.937  0.00  0.00    +0.000 C 
ATOM     15  C   UNL     1      46.788   3.314  13.464  0.00  0.00    +0.000 C 
ENDBRANCH   1  14
BRANCH   1  16
ATOM     16  C   UNL     1      45.980   6.476  13.045  0.00  0.00    +0.000 C 
BRANCH  16  17
ATOM     17  C   UNL     1      44.879   5.829  12.228  0.00  0.00    +0.000 A 
ATOM     18  C   UNL     1      45.034   5.389  10.911  0.00  0.00    +0.000 A 
ATOM     19  C   UNL     1      43.957   4.783  10.276  0.00  0.00    +0.000 A 
ATOM     20  N   UNL     1      42.746   4.601  10.845  0.00  0.00    +0.000 NA
ATOM     21  C   UNL     1      42.599   5.053  12.106  0.00  0.00    +0.000 A 
ATOM     22  C   UNL     1      43.616   5.666  12.823  0.00  0.00    +0.000 A 
ENDBRANCH  16  17
ENDBRANCH   1  16
TORSDOF 4
ENDMDL
