MODEL 1
REMARK VINA RESULT:    -8.448      0.000      0.000
REMARK INTER + INTRA:         -11.570
REMARK INTER:                 -10.671
REMARK INTRA:                  -0.900
REMARK UNBOUND:                -0.900
REMARK  Name = 
REMARK  5 active torsions:
REMARK  status: ('A' for Active; 'I' for Inactive)
REMARK    1  A    between atoms: C_2  and  C_4
REMARK    2  A    between atoms: C_7  and  O_8
REMARK    3  A    between atoms: O_8  and  C_9
REMARK    4  A    between atoms: C_9  and  C_10
REMARK    5  A    between atoms: C_19  and  O_20
REMARK                            x       y       z     vdW  Elec       q    Type
REMARK                         _______ _______ _______ _____ _____    ______ ____
ROOT
ATOM      1  C   UNL     1      46.335   2.377   7.778  0.00  0.00    +0.000 A 
ATOM      2  C   UNL     1      45.615   1.542   8.636  0.00  0.00    +0.000 A 
ATOM      3  C   UNL     1      44.663   2.079   9.507  0.00  0.00    +0.000 A 
ATOM      4  C   UNL     1      44.422   3.454   9.528  0.00  0.00    +0.000 A 
ATOM      5  C   UNL     1      45.141   4.300   8.689  0.00  0.00    +0.000 A 
ATOM      6  C   UNL     1      46.093   3.760   7.814  0.00  0.00    +0.000 A 
ENDROOT
BRANCH   1   8
ATOM      7  N   UNL     1      48.455   2.457   6.571  0.00  0.00    +0.000 N 
ATOM      8  C   UNL     1      47.344   1.733   6.889  0.00  0.00    +0.000 C 
ATOM      9  O   UNL     1      47.179   0.604   6.441  0.00  0.00    +0.000 OA
ATOM     10  H   UNL     1      49.192   1.996   6.058  0.00  0.00    +0.000 HD
ATOM     11  H   UNL     1      48.655   3.320   7.063  0.00  0.00    +0.000 HD
ENDBRANCH   1   8
BRANCH   6  12
ATOM     12  O   UNL     1      46.803   4.615   7.008  0.00  0.00    +0.000 OA
ATOM     13  H   UNL     1      47.421   5.119   7.565  0.00  0.00    +0.000 HD
ENDBRANCH   6  12
BRANCH   4  14
ATOM     14  O   UNL     1      43.487   3.867  10.440  0.00  0.00    +0.000 OA
BRANCH  14  15
ATOM     15  C   UNL     1      43.746   5.019  11.284  0.00  0.00    +0.000 C 
ATOM     16  C   UNL     1      42.507   5.335  12.121  0.00  0.00    +0.000 C 
ATOM     17  C   UNL     1      42.964   6.308  11.092  0.00  0.00    +0.000 C 
BRANCH  15  18
ATOM     18  C   UNL     1      45.086   5.053  12.003  0.00  0.00    +0.000 A 
ATOM     19  C   UNL     1      45.974   6.138  11.882  0.00  0.00    +0.000 A 
ATOM     20  C   UNL     1      47.161   6.202  12.620  0.00  0.00    +0.000 A 
ATOM     21  C   UNL     1      47.496   5.168  13.488  0.00  0.00    +0.000 A 
ATOM     22  C   UNL     1      46.656   4.065  13.602  0.00  0.00    +0.000 A 
ATOM     23  C   UNL     1      45.469   4.011  12.865  0.00  0.00    +0.000 A 
ENDBRANCH  15  18
ENDBRANCH  14  15
ENDBRANCH   4  14
TORSDOF 5
ENDMDL
MODEL 2
REMARK VINA RESULT:    -8.402      0.967      1.576
REMARK INTER + INTRA:         -11.512
REMARK INTER:                 -10.571
REMARK INTRA:                  -0.941
REMARK UNBOUND:                -0.900
REMARK  Name = 
REMARK  5 active torsions:
REMARK  status: ('A' for Active; 'I' for Inactive)
REMARK    1  A    between atoms: C_2  and  C_4
REMARK    2  A    between atoms: C_7  and  O_8
REMARK    3  A    between atoms: O_8  and  C_9
REMARK    4  A    between atoms: C_9  and  C_10
REMARK    5  A    between atoms: C_19  and  O_20
REMARK                            x       y       z     vdW  Elec       q    Type
REMARK                         _______ _______ _______ _____ _____    ______ ____
ROOT
ATOM      1  C   UNL     1      46.437   2.706   7.558  0.00  0.00    +0.000 A 
ATOM      2  C   UNL     1      45.988   4.014   7.757  0.00  0.00    +0.000 A 
ATOM      3  C   UNL     1      45.042   4.290   8.748  0.00  0.00    +0.000 A 
ATOM      4  C   UNL     1      44.536   3.263   9.548  0.00  0.00    +0.000 A 
ATOM      5  C   UNL     1      44.963   1.953   9.350  0.00  0.00    +0.000 A 
ATOM      6  C   UNL     1      45.914   1.678   8.359  0.00  0.00    +0.000 A 
ENDROOT
BRANCH   1   8
ATOM      7  N   UNL     1      47.339   3.271   5.361  0.00  0.00    +0.000 N 
ATOM      8  C   UNL     1      47.435   2.486   6.472  0.00  0.00    +0.000 C 
ATOM      9  O   UNL     1      48.299   1.620   6.558  0.00  0.00    +0.000 OA
ATOM     10  H   UNL     1      48.070   3.204   4.667  0.00  0.00    +0.000 HD
ATOM     11  H   UNL     1      46.726   4.078   5.362  0.00  0.00    +0.000 HD
ENDBRANCH   1   8
BRANCH   6  12
ATOM     12  O   UNL     1      46.308   0.377   8.171  0.00  0.00    +0.000 OA
ATOM     13  H   UNL     1      46.560   0.264   7.238  0.00  0.00    +0.000 HD
ENDBRANCH   6  12
BRANCH   4  14
ATOM     14  O   UNL     1      43.596   3.650  10.465  0.00  0.00    +0.000 OA
BRANCH  14  15
ATOM     15  C   UNL     1      43.804   4.842  11.268  0.00  0.00    +0.000 C 
ATOM     16  C   UNL     1      42.537   5.154  12.065  0.00  0.00    +0.000 C 
ATOM     17  C   UNL     1      42.990   6.099  11.008  0.00  0.00    +0.000 C 
BRANCH  15  18
ATOM     18  C   UNL     1      45.126   4.943  12.015  0.00  0.00    +0.000 A 
ATOM     19  C   UNL     1      45.955   6.075  11.920  0.00  0.00    +0.000 A 
ATOM     20  C   UNL     1      47.121   6.197  12.682  0.00  0.00    +0.000 A 
ATOM     21  C   UNL     1      47.496   5.175  13.548  0.00  0.00    +0.000 A 
ATOM     22  C   UNL     1      46.716   4.027  13.636  0.00  0.00    +0.000 A 
ATOM     23  C   UNL     1      45.548   3.914  12.875  0.00  0.00    +0.000 A 
ENDBRANCH  15  18
ENDBRANCH  14  15
ENDBRANCH   4  14
TORSDOF 5
ENDMDL
MODEL 3
REMARK VINA RESULT:    -6.430      5.032      8.069
REMARK INTER + INTRA:          -9.021
REMARK INTER:                  -8.077
REMARK INTRA:                  -0.944
REMARK UNBOUND:                -0.900
REMARK  Name = 
REMARK  5 active torsions:
REMARK  status: ('A' for Active; 'I' for Inactive)
REMARK    1  A    between atoms: C_2  and  C_4
REMARK    2  A    between atoms: C_7  and  O_8
REMARK    3  A    between atoms: O_8  and  C_9
REMARK    4  A    between atoms: C_9  and  C_10
REMARK    5  A    between atoms: C_19  and  O_20
REMARK                            x       y       z     vdW  Elec       q    Type
REMARK                         _______ _______ _______ _____ _____    ______ ____
ROOT
ATOM      1  C   UNL     1      47.969   4.916  17.929  0.00  0.00    +0.000 A 
ATOM      2  C   UNL     1      48.676   5.936  17.286  0.00  0.00    +0.000 A 
ATOM      3  C   UNL     1      48.620   6.062  15.896  0.00  0.00    +0.000 A 
ATOM      4  C   UNL     1      47.859   5.172  15.135  0.00  0.00    +0.000 A 
ATOM      5  C   UNL     1      47.161   4.143  15.761  0.00  0.00    +0.000 A 
ATOM      6  C   UNL     1      47.215   4.019  17.155  0.00  0.00    +0.000 A 
ENDROOT
BRANCH   1   8
ATOM      7  N   UNL     1      48.469   3.640  19.949  0.00  0.00    +0.000 N 
ATOM      8  C   UNL     1      48.090   4.835  19.413  0.00  0.00    +0.000 C 
ATOM      9  O   UNL     1      47.838   5.796  20.132  0.00  0.00    +0.000 OA
ATOM     10  H   UNL     1      48.656   3.601  20.941  0.00  0.00    +0.000 HD
ATOM     11  H   UNL     1      48.820   2.903  19.347  0.00  0.00    +0.000 HD
ENDBRANCH   1   8
BRANCH   6  12
ATOM     12  O   UNL     1      46.533   2.986  17.749  0.00  0.00    +0.000 OA
ATOM     13  H   UNL     1      46.090   2.470  17.052  0.00  0.00    +0.000 HD
ENDBRANCH   6  12
BRANCH   4  14
ATOM     14  O   UNL     1      47.902   5.379  13.782  0.00  0.00    +0.000 OA
BRANCH  14  15
ATOM     15  C   UNL     1      46.812   6.063  13.111  0.00  0.00    +0.000 C 
ATOM     16  C   UNL     1      47.358   6.883  11.942  0.00  0.00    +0.000 C 
ATOM     17  C   UNL     1      46.741   7.581  13.102  0.00  0.00    +0.000 C 
BRANCH  15  18
ATOM     18  C   UNL     1      45.552   5.250  12.848  0.00  0.00    +0.000 A 
ATOM     19  C   UNL     1      44.267   5.819  12.912  0.00  0.00    +0.000 A 
ATOM     20  C   UNL     1      43.123   5.087  12.578  0.00  0.00    +0.000 A 
ATOM     21  C   UNL     1      43.238   3.758  12.186  0.00  0.00    +0.000 A 
ATOM     22  C   UNL     1      44.492   3.157  12.148  0.00  0.00    +0.000 A 
ATOM     23  C   UNL     1      45.632   3.896  12.479  0.00  0.00    +0.000 A 
ENDBRANCH  15  18
ENDBRANCH  14  15
ENDBRANCH   4  14
TORSDOF 5
ENDMDL
MODEL 4
REMARK VINA RESULT:    -6.348      3.843      6.377
REMARK INTER + INTRA:          -8.918
REMARK INTER:                  -8.185
REMARK INTRA:                  -0.734
REMARK UNBOUND:                -0.900
REMARK  Name = 
REMARK  5 active torsions:
REMARK  status: ('A' for Active; 'I' for Inactive)
REMARK    1  A    between atoms: C_2  and  C_4
REMARK    2  A    between atoms: C_7  and  O_8
REMARK    3  A    between atoms: O_8  and  C_9
REMARK    4  A    between atoms: C_9  and  C_10
REMARK    5  A    between atoms: C_19  and  O_20
REMARK                            x       y       z     vdW  Elec       q    Type
REMARK                         _______ _______ _______ _____ _____    ______ ____
ROOT
ATOM      1  C   UNL     1      47.946   7.023  14.163  0.00  0.00    +0.000 A 
ATOM      2  C   UNL     1      47.895   5.858  13.394  0.00  0.00    +0.000 A 
ATOM      3  C   UNL     1      46.984   5.750  12.339  0.00  0.00    +0.000 A 
ATOM      4  C   UNL     1      46.118   6.805  12.044  0.00  0.00    +0.000 A 
ATOM      5  C   UNL     1      46.148   7.966  12.811  0.00  0.00    +0.000 A 
ATOM      6  C   UNL     1      47.064   8.074  13.865  0.00  0.00    +0.000 A 
ENDROOT
BRANCH   1   8
ATOM      7  N   UNL     1      48.510   7.557  16.478  0.00  0.00    +0.000 N 
ATOM      8  C   UNL     1      48.932   7.058  15.281  0.00  0.00    +0.000 C 
ATOM      9  O   UNL     1      50.088   6.675  15.132  0.00  0.00    +0.000 OA
ATOM     10  H   UNL     1      49.134   7.489  17.268  0.00  0.00    +0.000 HD
ATOM     11  H   UNL     1      47.523   7.727  16.635  0.00  0.00    +0.000 HD
ENDBRANCH   1   8
BRANCH   6  12
ATOM     12  O   UNL     1      47.064   9.221  14.618  0.00  0.00    +0.000 OA
ATOM     13  H   UNL     1      46.271   9.218  15.184  0.00  0.00    +0.000 HD
ENDBRANCH   6  12
BRANCH   4  14
ATOM     14  O   UNL     1      45.254   6.574  11.007  0.00  0.00    +0.000 OA
BRANCH  14  15
ATOM     15  C   UNL     1      44.508   5.330  10.939  0.00  0.00    +0.000 C 
ATOM     16  C   UNL     1      43.011   5.618  11.058  0.00  0.00    +0.000 C 
ATOM     17  C   UNL     1      43.697   4.850  12.132  0.00  0.00    +0.000 C 
BRANCH  15  18
ATOM     18  C   UNL     1      44.931   4.335   9.868  0.00  0.00    +0.000 A 
ATOM     19  C   UNL     1      45.665   4.724   8.733  0.00  0.00    +0.000 A 
ATOM     20  C   UNL     1      46.129   3.788   7.802  0.00  0.00    +0.000 A 
ATOM     21  C   UNL     1      45.853   2.437   7.979  0.00  0.00    +0.000 A 
ATOM     22  C   UNL     1      45.098   2.026   9.073  0.00  0.00    +0.000 A 
ATOM     23  C   UNL     1      44.642   2.966  10.001  0.00  0.00    +0.000 A 
ENDBRANCH  15  18
ENDBRANCH  14  15
ENDBRANCH   4  14
TORSDOF 5
ENDMDL
MODEL 5
REMARK VINA RESULT:    -6.108      3.980      6.615
REMARK INTER + INTRA:          -8.614
REMARK INTER:                  -7.829
REMARK INTRA:                  -0.785
REMARK UNBOUND:                -0.900
REMARK  Name = 
REMARK  5 active torsions:
REMARK  status: ('A' for Active; 'I' for Inactive)
REMARK    1  A    between atoms: C_2  and  C_4
REMARK    2  A    between atoms: C_7  and  O_8
REMARK    3  A    between atoms: O_8  and  C_9
REMARK    4  A    between atoms: C_9  and  C_10
REMARK    5  A    between atoms: C_19  and  O_20
REMARK                            x       y       z     vdW  Elec       q    Type
REMARK                         _______ _______ _______ _____ _____    ______ ____
ROOT
ATOM      1  C   UNL     1      47.533   4.216  15.818  0.00  0.00    +0.000 A 
ATOM      2  C   UNL     1      47.004   3.480  14.755  0.00  0.00    +0.000 A 
ATOM      3  C   UNL     1      46.802   4.084  13.512  0.00  0.00    +0.000 A 
ATOM      4  C   UNL     1      47.127   5.429  13.319  0.00  0.00    +0.000 A 
ATOM      5  C   UNL     1      47.641   6.179  14.373  0.00  0.00    +0.000 A 
ATOM      6  C   UNL     1      47.846   5.571  15.617  0.00  0.00    +0.000 A 
ENDROOT
BRANCH   1   8
ATOM      7  N   UNL     1      48.937   3.552  17.702  0.00  0.00    +0.000 N 
ATOM      8  C   UNL     1      47.706   3.508  17.119  0.00  0.00    +0.000 C 
ATOM      9  O   UNL     1      46.784   2.888  17.641  0.00  0.00    +0.000 OA
ATOM     10  H   UNL     1      49.039   3.167  18.630  0.00  0.00    +0.000 HD
ATOM     11  H   UNL     1      49.644   4.187  17.346  0.00  0.00    +0.000 HD
ENDBRANCH   1   8
BRANCH   6  12
ATOM     12  O   UNL     1      48.339   6.334  16.647  0.00  0.00    +0.000 OA
ATOM     13  H   UNL     1      48.903   5.770  17.205  0.00  0.00    +0.000 HD
ENDBRANCH   6  12
BRANCH   4  14
ATOM     14  O   UNL     1      46.860   5.917  12.068  0.00  0.00    +0.000 OA
BRANCH  14  15
ATOM     15  C   UNL     1      45.517   5.837  11.522  0.00  0.00    +0.000 C 
ATOM     16  C   UNL     1      44.957   7.245  11.320  0.00  0.00    +0.000 C 
ATOM     17  C   UNL     1      44.327   6.342  12.321  0.00  0.00    +0.000 C 
BRANCH  15  18
ATOM     18  C   UNL     1      45.295   4.843  10.391  0.00  0.00    +0.000 A 
ATOM     19  C   UNL     1      45.803   5.057   9.096  0.00  0.00    +0.000 A 
ATOM     20  C   UNL     1      45.673   4.094   8.089  0.00  0.00    +0.000 A 
ATOM     21  C   UNL     1      45.015   2.898   8.352  0.00  0.00    +0.000 A 
ATOM     22  C   UNL     1      44.470   2.674   9.612  0.00  0.00    +0.000 A 
ATOM     23  C   UNL     1      44.608   3.638  10.615  0.00  0.00    +0.000 A 
ENDBRANCH  15  18
ENDBRANCH  14  15
ENDBRANCH   4  14
TORSDOF 5
ENDMDL
MODEL 6
REMARK VINA RESULT:    -5.702      3.323      5.322
REMARK INTER + INTRA:          -8.101
REMARK INTER:                  -7.204
REMARK INTRA:                  -0.897
REMARK UNBOUND:                -0.900
REMARK  Name = 
REMARK  5 active torsions:
REMARK  status: ('A' for Active; 'I' for Inactive)
REMARK    1  A    between atoms: C_2  and  C_4
REMARK    2  A    between atoms: C_7  and  O_8
REMARK    3  A    between atoms: O_8  and  C_9
REMARK    4  A    between atoms: C_9  and  C_10
REMARK    5  A    between atoms: C_19  and  O_20
REMARK                            x       y       z     vdW  Elec       q    Type
REMARK                         _______ _______ _______ _____ _____    ______ ____
ROOT
ATOM      1  C   UNL     1      44.677   4.196  11.456  0.00  0.00    +0.000 A 
ATOM      2  C   UNL     1      44.330   5.467  10.991  0.00  0.00    +0.000 A 
ATOM      3  C   UNL     1      44.913   6.606  11.554  0.00  0.00    +0.000 A 
ATOM      4  C   UNL     1      45.847   6.485  12.586  0.00  0.00    +0.000 A 
ATOM      5  C   UNL     1      46.191   5.226  13.069  0.00  0.00    +0.000 A 
ATOM      6  C   UNL     1      45.609   4.085  12.501  0.00  0.00    +0.000 A 
ENDROOT
BRANCH   1   8
ATOM      7  N   UNL     1      43.389   2.130  11.638  0.00  0.00    +0.000 N 
ATOM      8  C   UNL     1      44.003   3.030  10.817  0.00  0.00    +0.000 C 
ATOM      9  O   UNL     1      44.013   2.867   9.601  0.00  0.00    +0.000 OA
ATOM     10  H   UNL     1      42.841   1.396  11.214  0.00  0.00    +0.000 HD
ATOM     11  H   UNL     1      43.255   2.349  12.619  0.00  0.00    +0.000 HD
ENDBRANCH   1   8
BRANCH   6  12
ATOM     12  O   UNL     1      45.951   2.855  13.004  0.00  0.00    +0.000 OA
ATOM     13  H   UNL     1      45.704   2.828  13.946  0.00  0.00    +0.000 HD
ENDBRANCH   6  12
BRANCH   4  14
ATOM     14  O   UNL     1      46.329   7.670  13.075  0.00  0.00    +0.000 OA
BRANCH  14  15
ATOM     15  C   UNL     1      47.750   7.960  13.022  0.00  0.00    +0.000 C 
ATOM     16  C   UNL     1      48.003   9.127  12.069  0.00  0.00    +0.000 C 
ATOM     17  C   UNL     1      48.528   7.777  11.730  0.00  0.00    +0.000 C 
BRANCH  15  18
ATOM     18  C   UNL     1      48.494   7.985  14.350  0.00  0.00    +0.000 A 
ATOM     19  C   UNL     1      48.104   8.822  15.411  0.00  0.00    +0.000 A 
ATOM     20  C   UNL     1      48.736   8.770  16.658  0.00  0.00    +0.000 A 
ATOM     21  C   UNL     1      49.790   7.887  16.867  0.00  0.00    +0.000 A 
ATOM     22  C   UNL     1      50.222   7.073  15.825  0.00  0.00    +0.000 A 
ATOM     23  C   UNL     1      49.582   7.126  14.583  0.00  0.00    +0.000 A 
ENDBRANCH  15  18
ENDBRANCH  14  15
ENDBRANCH   4  14
TORSDOF 5
ENDMDL
