MODEL 1
REMARK VINA RESULT:    -8.005      0.000      0.000
REMARK INTER + INTRA:         -12.686
REMARK INTER:                 -11.748
REMARK INTRA:                  -0.938
REMARK UNBOUND:                -0.938
REMARK  Name = 
REMARK  9 active torsions:
REMARK  status: ('A' for Active; 'I' for Inactive)
REMARK    1  A    between atoms: C_1  and  C_2
REMARK    2  A    between atoms: C_2  and  N_3
REMARK    3  A    between atoms: C_2  and  C_20
REMARK    4  A    between atoms: N_3  and  C_4
REMARK    5  A    between atoms: C_4  and  C_5
REMARK    6  A    between atoms: C_8  and  C_9
REMARK    7  A    between atoms: C_9  and  O_10
REMARK    8  A    between atoms: O_10  and  C_11
REMARK    9  A    between atoms: C_11  and  C_12
REMARK                            x       y       z     vdW  Elec       q    Type
REMARK                         _______ _______ _______ _____ _____    ______ ____
ROOT
ATOM      1  C   UNL     1      46.764   5.020  15.025  0.00  0.00    +0.000 C 
ENDROOT
BRANCH   1   2
ATOM      2  C   UNL     1      47.223   4.698  13.580  0.00  0.00    +0.000 C 
ATOM      3  C   UNL     1      46.397   3.572  12.931  0.00  0.00    +0.000 C 
ATOM      4  C   UNL     1      44.971   4.013  12.598  0.00  0.00    +0.000 C 
ATOM      5  C   UNL     1      44.925   5.278  11.723  0.00  0.00    +0.000 C 
ATOM      6  C   UNL     1      45.758   6.401  12.356  0.00  0.00    +0.000 C 
ATOM      7  C   UNL     1      47.183   5.957  12.690  0.00  0.00    +0.000 C 
BRANCH   5   8
ATOM      8  C   UNL     1      45.357   5.009  10.270  0.00  0.00    +0.000 C 
BRANCH   8   9
ATOM      9  O   UNL     1      44.736   3.807   9.819  0.00  0.00    +0.000 OA
BRANCH   9  10
ATOM     10  C   UNL     1      44.643   3.743   8.399  0.00  0.00    +0.000 C 
BRANCH  10  11
ATOM     11  C   UNL     1      45.781   2.901   7.891  0.00  0.00    +0.000 A 
ATOM     12  C   UNL     1      45.863   1.547   8.225  0.00  0.00    +0.000 A 
ATOM     13  C   UNL     1      46.920   0.799   7.730  0.00  0.00    +0.000 A 
ATOM     14  N   UNL     1      47.886   1.301   6.933  0.00  0.00    +0.000 NA
ATOM     15  C   UNL     1      47.796   2.614   6.629  0.00  0.00    +0.000 A 
ATOM     16  C   UNL     1      46.778   3.444   7.076  0.00  0.00    +0.000 A 
ENDBRANCH  10  11
ENDBRANCH   9  10
ENDBRANCH   8   9
ENDBRANCH   5   8
ENDBRANCH   1   2
BRANCH   1  17
ATOM     17  N   UNL     1      47.911   5.171  15.924  0.00  0.00    +0.000 NA
ATOM     18  H   UNL     1      48.718   5.477  15.382  0.00  0.00    +0.000 HD
BRANCH  17  20
ATOM     19  C   UNL     1      47.167   3.284  17.392  0.00  0.00    +0.000 C 
ATOM     20  C   UNL     1      48.302   3.917  16.586  0.00  0.00    +0.000 C 
BRANCH  20  21
ATOM     21  C   UNL     1      49.474   4.278  17.478  0.00  0.00    +0.000 A 
ATOM     22  C   UNL     1      49.602   5.493  18.135  0.00  0.00    +0.000 A 
ATOM     23  S   UNL     1      51.056   5.638  19.014  0.00  0.00    +0.000 S 
ATOM     24  C   UNL     1      51.563   4.085  18.539  0.00  0.00    +0.000 A 
ATOM     25  N   UNL     1      52.769   3.591  18.928  0.00  0.00    +0.000 NA
ATOM     26  C   UNL     1      53.015   2.398  18.505  0.00  0.00    +0.000 A 
ATOM     27  N   UNL     1      52.162   1.643  17.738  0.00  0.00    +0.000 N 
ATOM     28  C   UNL     1      50.935   2.099  17.317  0.00  0.00    +0.000 A 
ATOM     29  O   UNL     1      50.190   1.395  16.638  0.00  0.00    +0.000 OA
ATOM     30  C   UNL     1      50.622   3.448  17.751  0.00  0.00    +0.000 A 
ATOM     31  H   UNL     1      52.408   0.705  17.462  0.00  0.00    +0.000 HD
ENDBRANCH  20  21
ENDBRANCH  17  20
ENDBRANCH   1  17
TORSDOF 8
ENDMDL
MODEL 2
REMARK VINA RESULT:    -7.317      2.304      2.588
REMARK INTER + INTRA:         -11.677
REMARK INTER:                 -10.658
REMARK INTRA:                  -1.019
REMARK UNBOUND:                -0.938
REMARK  Name = 
REMARK  9 active torsions:
REMARK  status: ('A' for Active; 'I' for Inactive)
REMARK    1  A    between atoms: C_1  and  C_2
REMARK    2  A    between atoms: C_2  and  N_3
REMARK    3  A    between atoms: C_2  and  C_20
REMARK    4  A    between atoms: N_3  and  C_4
REMARK    5  A    between atoms: C_4  and  C_5
REMARK    6  A    between atoms: C_8  and  C_9
REMARK    7  A    between atoms: C_9  and  O_10
REMARK    8  A    between atoms: O_10  and  C_11
REMARK    9  A    between atoms: C_11  and  C_12
REMARK                            x       y       z     vdW  Elec       q    Type
REMARK                         _______ _______ _______ _____ _____    ______ ____
ROOT
ATOM      1  C   UNL     1      46.562   4.417  15.160  0.00  0.00    +0.000 C 
ENDROOT
BRANCH   1   2
ATOM      2  C   UNL     1      47.032   4.513  13.686  0.00  0.00    +0.000 C 
ATOM      3  C   UNL     1      46.457   3.389  12.805  0.00  0.00    +0.000 C 
ATOM      4  C   UNL     1      44.958   3.556  12.552  0.00  0.00    +0.000 C 
ATOM      5  C   UNL     1      44.601   4.930  11.959  0.00  0.00    +0.000 C 
ATOM      6  C   UNL     1      45.183   6.057  12.824  0.00  0.00    +0.000 C 
ATOM      7  C   UNL     1      46.682   5.886  13.078  0.00  0.00    +0.000 C 
BRANCH   5   8
ATOM      8  C   UNL     1      45.033   5.072  10.488  0.00  0.00    +0.000 C 
BRANCH   8   9
ATOM      9  O   UNL     1      44.736   3.858   9.801  0.00  0.00    +0.000 OA
BRANCH   9  10
ATOM     10  C   UNL     1      44.785   4.009   8.385  0.00  0.00    +0.000 C 
BRANCH  10  11
ATOM     11  C   UNL     1      45.830   3.070   7.850  0.00  0.00    +0.000 A 
ATOM     12  C   UNL     1      45.892   1.748   8.301  0.00  0.00    +0.000 A 
ATOM     13  C   UNL     1      46.862   0.908   7.776  0.00  0.00    +0.000 A 
ATOM     14  N   UNL     1      47.760   1.287   6.844  0.00  0.00    +0.000 NA
ATOM     15  C   UNL     1      47.691   2.570   6.427  0.00  0.00    +0.000 A 
ATOM     16  C   UNL     1      46.758   3.486   6.893  0.00  0.00    +0.000 A 
ENDBRANCH  10  11
ENDBRANCH   9  10
ENDBRANCH   8   9
ENDBRANCH   5   8
ENDBRANCH   1   2
BRANCH   1  17
ATOM     17  N   UNL     1      47.473   5.135  16.055  0.00  0.00    +0.000 NA
ATOM     18  H   UNL     1      48.162   5.636  15.494  0.00  0.00    +0.000 HD
BRANCH  17  20
ATOM     19  C   UNL     1      47.398   3.078  17.480  0.00  0.00    +0.000 C 
ATOM     20  C   UNL     1      48.230   4.247  16.951  0.00  0.00    +0.000 C 
BRANCH  20  21
ATOM     21  C   UNL     1      48.716   5.131  18.083  0.00  0.00    +0.000 A 
ATOM     22  C   UNL     1      48.356   4.956  19.412  0.00  0.00    +0.000 A 
ATOM     23  S   UNL     1      49.004   6.143  20.450  0.00  0.00    +0.000 S 
ATOM     24  C   UNL     1      49.779   6.932  19.158  0.00  0.00    +0.000 A 
ATOM     25  N   UNL     1      50.497   8.069  19.359  0.00  0.00    +0.000 NA
ATOM     26  C   UNL     1      51.039   8.550  18.292  0.00  0.00    +0.000 A 
ATOM     27  N   UNL     1      50.942   7.993  17.040  0.00  0.00    +0.000 N 
ATOM     28  C   UNL     1      50.226   6.848  16.786  0.00  0.00    +0.000 A 
ATOM     29  O   UNL     1      50.166   6.369  15.655  0.00  0.00    +0.000 OA
ATOM     30  C   UNL     1      49.578   6.281  17.954  0.00  0.00    +0.000 A 
ATOM     31  H   UNL     1      51.413   8.410  16.251  0.00  0.00    +0.000 HD
ENDBRANCH  20  21
ENDBRANCH  17  20
ENDBRANCH   1  17
TORSDOF 8
ENDMDL
MODEL 3
REMARK VINA RESULT:    -7.131      2.508      3.201
REMARK INTER + INTRA:         -11.403
REMARK INTER:                 -10.585
REMARK INTRA:                  -0.819
REMARK UNBOUND:                -0.938
REMARK  Name = 
REMARK  9 active torsions:
REMARK  status: ('A' for Active; 'I' for Inactive)
REMARK    1  A    between atoms: C_1  and  C_2
REMARK    2  A    between atoms: C_2  and  N_3
REMARK    3  A    between atoms: C_2  and  C_20
REMARK    4  A    between atoms: N_3  and  C_4
REMARK    5  A    between atoms: C_4  and  C_5
REMARK    6  A    between atoms: C_8  and  C_9
REMARK    7  A    between atoms: C_9  and  O_10
REMARK    8  A    between atoms: O_10  and  C_11
REMARK    9  A    between atoms: C_11  and  C_12
REMARK                            x       y       z     vdW  Elec       q    Type
REMARK                         _______ _______ _______ _____ _____    ______ ____
ROOT
ATOM      1  C   UNL     1      47.098   6.797  13.509  0.00  0.00    +0.000 C 
ENDROOT
BRANCH   1   2
ATOM      2  C   UNL     1      45.629   6.613  13.052  0.00  0.00    +0.000 C 
ATOM      3  C   UNL     1      45.422   6.952  11.564  0.00  0.00    +0.000 C 
ATOM      4  C   UNL     1      46.055   5.914  10.636  0.00  0.00    +0.000 C 
ATOM      5  C   UNL     1      45.575   4.481  10.925  0.00  0.00    +0.000 C 
ATOM      6  C   UNL     1      45.764   4.140  12.410  0.00  0.00    +0.000 C 
ATOM      7  C   UNL     1      45.132   5.181  13.336  0.00  0.00    +0.000 C 
BRANCH   5   8
ATOM      8  C   UNL     1      44.123   4.240  10.475  0.00  0.00    +0.000 C 
BRANCH   8   9
ATOM      9  O   UNL     1      44.114   3.234   9.465  0.00  0.00    +0.000 OA
BRANCH   9  10
ATOM     10  C   UNL     1      44.585   3.718   8.211  0.00  0.00    +0.000 C 
BRANCH  10  11
ATOM     11  C   UNL     1      45.747   2.863   7.784  0.00  0.00    +0.000 A 
ATOM     12  C   UNL     1      45.816   1.520   8.167  0.00  0.00    +0.000 A 
ATOM     13  C   UNL     1      46.895   0.760   7.746  0.00  0.00    +0.000 A 
ATOM     14  N   UNL     1      47.896   1.238   6.978  0.00  0.00    +0.000 NA
ATOM     15  C   UNL     1      47.818   2.539   6.627  0.00  0.00    +0.000 A 
ATOM     16  C   UNL     1      46.779   3.381   6.998  0.00  0.00    +0.000 A 
ENDBRANCH  10  11
ENDBRANCH   9  10
ENDBRANCH   8   9
ENDBRANCH   5   8
ENDBRANCH   1   2
BRANCH   1  17
ATOM     17  N   UNL     1      47.433   5.881  14.601  0.00  0.00    +0.000 NA
ATOM     18  H   UNL     1      46.572   5.582  15.059  0.00  0.00    +0.000 HD
BRANCH  17  20
ATOM     19  C   UNL     1      49.646   6.923  15.132  0.00  0.00    +0.000 C 
ATOM     20  C   UNL     1      48.269   6.495  15.643  0.00  0.00    +0.000 C 
BRANCH  20  21
ATOM     21  C   UNL     1      48.389   5.451  16.735  0.00  0.00    +0.000 A 
ATOM     22  C   UNL     1      48.220   4.089  16.528  0.00  0.00    +0.000 A 
ATOM     23  S   UNL     1      48.350   3.166  17.955  0.00  0.00    +0.000 S 
ATOM     24  C   UNL     1      48.628   4.555  18.896  0.00  0.00    +0.000 A 
ATOM     25  N   UNL     1      48.792   4.469  20.243  0.00  0.00    +0.000 NA
ATOM     26  C   UNL     1      49.009   5.600  20.825  0.00  0.00    +0.000 A 
ATOM     27  N   UNL     1      49.089   6.812  20.184  0.00  0.00    +0.000 N 
ATOM     28  C   UNL     1      48.926   6.951  18.826  0.00  0.00    +0.000 A 
ATOM     29  O   UNL     1      49.013   8.049  18.281  0.00  0.00    +0.000 OA
ATOM     30  C   UNL     1      48.658   5.706  18.129  0.00  0.00    +0.000 A 
ATOM     31  H   UNL     1      49.286   7.657  20.699  0.00  0.00    +0.000 HD
ENDBRANCH  20  21
ENDBRANCH  17  20
ENDBRANCH   1  17
TORSDOF 8
ENDMDL
MODEL 4
REMARK VINA RESULT:    -7.005      4.575      5.536
REMARK INTER + INTRA:         -11.219
REMARK INTER:                 -10.382
REMARK INTRA:                  -0.837
REMARK UNBOUND:                -0.938
REMARK  Name = 
REMARK  9 active torsions:
REMARK  status: ('A' for Active; 'I' for Inactive)
REMARK    1  A    between atoms: C_1  and  C_2
REMARK    2  A    between atoms: C_2  and  N_3
REMARK    3  A    between atoms: C_2  and  C_20
REMARK    4  A    between atoms: N_3  and  C_4
REMARK    5  A    between atoms: C_4  and  C_5
REMARK    6  A    between atoms: C_8  and  C_9
REMARK    7  A    between atoms: C_9  and  O_10
REMARK    8  A    between atoms: O_10  and  C_11
REMARK    9  A    between atoms: C_11  and  C_12
REMARK                            x       y       z     vdW  Elec       q    Type
REMARK                         _______ _______ _______ _____ _____    ______ ____
ROOT
ATOM      1  C   UNL     1      46.445   7.279  13.146  0.00  0.00    +0.000 C 
ENDROOT
BRANCH   1   2
ATOM      2  C   UNL     1      45.036   6.888  12.630  0.00  0.00    +0.000 C 
ATOM      3  C   UNL     1      44.949   6.878  11.093  0.00  0.00    +0.000 C 
ATOM      4  C   UNL     1      45.722   5.714  10.473  0.00  0.00    +0.000 C 
ATOM      5  C   UNL     1      45.301   4.346  11.037  0.00  0.00    +0.000 C 
ATOM      6  C   UNL     1      45.371   4.352  12.571  0.00  0.00    +0.000 C 
ATOM      7  C   UNL     1      44.599   5.519  13.189  0.00  0.00    +0.000 C 
BRANCH   5   8
ATOM      8  C   UNL     1      43.912   3.903  10.542  0.00  0.00    +0.000 C 
BRANCH   8   9
ATOM      9  O   UNL     1      44.079   2.992   9.457  0.00  0.00    +0.000 OA
BRANCH   9  10
ATOM     10  C   UNL     1      44.566   3.632   8.281  0.00  0.00    +0.000 C 
BRANCH  10  11
ATOM     11  C   UNL     1      45.737   2.839   7.767  0.00  0.00    +0.000 A 
ATOM     12  C   UNL     1      45.903   1.501   8.138  0.00  0.00    +0.000 A 
ATOM     13  C   UNL     1      46.987   0.799   7.636  0.00  0.00    +0.000 A 
ATOM     14  N   UNL     1      47.903   1.329   6.799  0.00  0.00    +0.000 NA
ATOM     15  C   UNL     1      47.732   2.624   6.460  0.00  0.00    +0.000 A 
ATOM     16  C   UNL     1      46.680   3.410   6.910  0.00  0.00    +0.000 A 
ENDBRANCH  10  11
ENDBRANCH   9  10
ENDBRANCH   8   9
ENDBRANCH   5   8
ENDBRANCH   1   2
BRANCH   1  17
ATOM     17  N   UNL     1      47.174   8.068  12.151  0.00  0.00    +0.000 NA
ATOM     18  H   UNL     1      48.110   7.678  12.040  0.00  0.00    +0.000 HD
BRANCH  17  20
ATOM     19  C   UNL     1      46.309  10.405  11.914  0.00  0.00    +0.000 C 
ATOM     20  C   UNL     1      47.351   9.476  12.538  0.00  0.00    +0.000 C 
BRANCH  20  21
ATOM     21  C   UNL     1      48.752   9.846  12.092  0.00  0.00    +0.000 A 
ATOM     22  C   UNL     1      49.029  10.760  11.086  0.00  0.00    +0.000 A 
ATOM     23  S   UNL     1      50.694  10.923  10.759  0.00  0.00    +0.000 S 
ATOM     24  C   UNL     1      51.098   9.773  11.945  0.00  0.00    +0.000 A 
ATOM     25  N   UNL     1      52.391   9.411  12.161  0.00  0.00    +0.000 NA
ATOM     26  C   UNL     1      52.549   8.540  13.099  0.00  0.00    +0.000 A 
ATOM     27  N   UNL     1      51.534   8.002  13.853  0.00  0.00    +0.000 N 
ATOM     28  C   UNL     1      50.212   8.333  13.670  0.00  0.00    +0.000 A 
ATOM     29  O   UNL     1      49.328   7.841  14.368  0.00  0.00    +0.000 OA
ATOM     30  C   UNL     1      49.982   9.296  12.609  0.00  0.00    +0.000 A 
ATOM     31  H   UNL     1      51.732   7.342  14.589  0.00  0.00    +0.000 HD
ENDBRANCH  20  21
ENDBRANCH  17  20
ENDBRANCH   1  17
TORSDOF 8
ENDMDL
MODEL 5
REMARK VINA RESULT:    -6.900      1.605      2.168
REMARK INTER + INTRA:         -11.065
REMARK INTER:                 -10.064
REMARK INTRA:                  -1.002
REMARK UNBOUND:                -0.938
REMARK  Name = 
REMARK  9 active torsions:
REMARK  status: ('A' for Active; 'I' for Inactive)
REMARK    1  A    between atoms: C_1  and  C_2
REMARK    2  A    between atoms: C_2  and  N_3
REMARK    3  A    between atoms: C_2  and  C_20
REMARK    4  A    between atoms: N_3  and  C_4
REMARK    5  A    between atoms: C_4  and  C_5
REMARK    6  A    between atoms: C_8  and  C_9
REMARK    7  A    between atoms: C_9  and  O_10
REMARK    8  A    between atoms: O_10  and  C_11
REMARK    9  A    between atoms: C_11  and  C_12
REMARK                            x       y       z     vdW  Elec       q    Type
REMARK                         _______ _______ _______ _____ _____    ______ ____
ROOT
ATOM      1  C   UNL     1      48.422   7.740  14.541  0.00  0.00    +0.000 C 
ENDROOT
BRANCH   1   2
ATOM      2  C   UNL     1      48.215   7.332  13.060  0.00  0.00    +0.000 C 
ATOM      3  C   UNL     1      47.842   5.847  12.899  0.00  0.00    +0.000 C 
ATOM      4  C   UNL     1      46.427   5.545  13.391  0.00  0.00    +0.000 C 
ATOM      5  C   UNL     1      45.360   6.435  12.730  0.00  0.00    +0.000 C 
ATOM      6  C   UNL     1      45.732   7.918  12.874  0.00  0.00    +0.000 C 
ATOM      7  C   UNL     1      47.149   8.217  12.383  0.00  0.00    +0.000 C 
BRANCH   5   8
ATOM      8  C   UNL     1      45.105   6.061  11.258  0.00  0.00    +0.000 C 
BRANCH   8   9
ATOM      9  O   UNL     1      44.724   4.689  11.191  0.00  0.00    +0.000 OA
BRANCH   9  10
ATOM     10  C   UNL     1      44.044   4.373   9.979  0.00  0.00    +0.000 C 
BRANCH  10  11
ATOM     11  C   UNL     1      45.007   3.651   9.077  0.00  0.00    +0.000 A 
ATOM     12  C   UNL     1      45.183   2.269   9.190  0.00  0.00    +0.000 A 
ATOM     13  C   UNL     1      46.071   1.635   8.334  0.00  0.00    +0.000 A 
ATOM     14  N   UNL     1      46.783   2.275   7.383  0.00  0.00    +0.000 NA
ATOM     15  C   UNL     1      46.608   3.611   7.295  0.00  0.00    +0.000 A 
ATOM     16  C   UNL     1      45.744   4.334   8.106  0.00  0.00    +0.000 A 
ENDBRANCH  10  11
ENDBRANCH   9  10
ENDBRANCH   8   9
ENDBRANCH   5   8
ENDBRANCH   1   2
BRANCH   1  17
ATOM     17  N   UNL     1      49.334   6.818  15.222  0.00  0.00    +0.000 NA
ATOM     18  H   UNL     1      49.366   5.940  14.705  0.00  0.00    +0.000 HD
BRANCH  17  20
ATOM     19  C   UNL     1      48.595   7.714  17.440  0.00  0.00    +0.000 C 
ATOM     20  C   UNL     1      48.910   6.481  16.590  0.00  0.00    +0.000 C 
BRANCH  20  21
ATOM     21  C   UNL     1      50.054   5.683  17.184  0.00  0.00    +0.000 A 
ATOM     22  C   UNL     1      51.167   6.253  17.786  0.00  0.00    +0.000 A 
ATOM     23  S   UNL     1      52.318   5.107  18.303  0.00  0.00    +0.000 S 
ATOM     24  C   UNL     1      51.372   3.814  17.733  0.00  0.00    +0.000 A 
ATOM     25  N   UNL     1      51.804   2.529  17.834  0.00  0.00    +0.000 NA
ATOM     26  C   UNL     1      50.977   1.653  17.373  0.00  0.00    +0.000 A 
ATOM     27  N   UNL     1      49.749   1.939  16.829  0.00  0.00    +0.000 N 
ATOM     28  C   UNL     1      49.270   3.221  16.702  0.00  0.00    +0.000 A 
ATOM     29  O   UNL     1      48.161   3.444  16.219  0.00  0.00    +0.000 OA
ATOM     30  C   UNL     1      50.176   4.246  17.188  0.00  0.00    +0.000 A 
ATOM     31  H   UNL     1      49.141   1.201  16.510  0.00  0.00    +0.000 HD
ENDBRANCH  20  21
ENDBRANCH  17  20
ENDBRANCH   1  17
TORSDOF 8
ENDMDL
MODEL 6
REMARK VINA RESULT:    -6.868      1.650      2.168
REMARK INTER + INTRA:         -11.019
REMARK INTER:                 -10.858
REMARK INTRA:                  -0.161
REMARK UNBOUND:                -0.938
REMARK  Name = 
REMARK  9 active torsions:
REMARK  status: ('A' for Active; 'I' for Inactive)
REMARK    1  A    between atoms: C_1  and  C_2
REMARK    2  A    between atoms: C_2  and  N_3
REMARK    3  A    between atoms: C_2  and  C_20
REMARK    4  A    between atoms: N_3  and  C_4
REMARK    5  A    between atoms: C_4  and  C_5
REMARK    6  A    between atoms: C_8  and  C_9
REMARK    7  A    between atoms: C_9  and  O_10
REMARK    8  A    between atoms: O_10  and  C_11
REMARK    9  A    between atoms: C_11  and  C_12
REMARK                            x       y       z     vdW  Elec       q    Type
REMARK                         _______ _______ _______ _____ _____    ______ ____
ROOT
ATOM      1  C   UNL     1      46.507   4.288  14.676  0.00  0.00    +0.000 C 
ENDROOT
BRANCH   1   2
ATOM      2  C   UNL     1      46.497   4.377  13.129  0.00  0.00    +0.000 C 
ATOM      3  C   UNL     1      45.722   3.220  12.472  0.00  0.00    +0.000 C 
ATOM      4  C   UNL     1      44.213   3.332  12.691  0.00  0.00    +0.000 C 
ATOM      5  C   UNL     1      43.639   4.683  12.231  0.00  0.00    +0.000 C 
ATOM      6  C   UNL     1      44.416   5.843  12.870  0.00  0.00    +0.000 C 
ATOM      7  C   UNL     1      45.926   5.728  12.652  0.00  0.00    +0.000 C 
BRANCH   5   8
ATOM      8  C   UNL     1      43.593   4.817  10.698  0.00  0.00    +0.000 C 
BRANCH   8   9
ATOM      9  O   UNL     1      44.578   3.956  10.130  0.00  0.00    +0.000 OA
BRANCH   9  10
ATOM     10  C   UNL     1      44.932   4.336   8.804  0.00  0.00    +0.000 C 
BRANCH  10  11
ATOM     11  C   UNL     1      45.776   3.241   8.212  0.00  0.00    +0.000 A 
ATOM     12  C   UNL     1      45.601   1.915   8.617  0.00  0.00    +0.000 A 
ATOM     13  C   UNL     1      46.389   0.930   8.042  0.00  0.00    +0.000 A 
ATOM     14  N   UNL     1      47.325   1.172   7.101  0.00  0.00    +0.000 NA
ATOM     15  C   UNL     1      47.488   2.460   6.729  0.00  0.00    +0.000 A 
ATOM     16  C   UNL     1      46.748   3.515   7.247  0.00  0.00    +0.000 A 
ENDBRANCH  10  11
ENDBRANCH   9  10
ENDBRANCH   8   9
ENDBRANCH   5   8
ENDBRANCH   1   2
BRANCH   1  17
ATOM     17  N   UNL     1      47.856   4.027  15.184  0.00  0.00    +0.000 NA
ATOM     18  H   UNL     1      48.380   3.507  14.480  0.00  0.00    +0.000 HD
BRANCH  17  20
ATOM     19  C   UNL     1      46.883   3.697  17.466  0.00  0.00    +0.000 C 
ATOM     20  C   UNL     1      47.871   3.209  16.405  0.00  0.00    +0.000 C 
BRANCH  20  21
ATOM     21  C   UNL     1      49.298   3.269  16.916  0.00  0.00    +0.000 A 
ATOM     22  C   UNL     1      50.098   2.152  17.111  0.00  0.00    +0.000 A 
ATOM     23  S   UNL     1      51.632   2.523  17.755  0.00  0.00    +0.000 S 
ATOM     24  C   UNL     1      51.273   4.185  17.803  0.00  0.00    +0.000 A 
ATOM     25  N   UNL     1      52.168   5.083  18.293  0.00  0.00    +0.000 NA
ATOM     26  C   UNL     1      51.766   6.308  18.255  0.00  0.00    +0.000 A 
ATOM     27  N   UNL     1      50.554   6.724  17.761  0.00  0.00    +0.000 N 
ATOM     28  C   UNL     1      49.615   5.855  17.258  0.00  0.00    +0.000 A 
ATOM     29  O   UNL     1      48.542   6.260  16.814  0.00  0.00    +0.000 OA
ATOM     30  C   UNL     1      50.014   4.460  17.300  0.00  0.00    +0.000 A 
ATOM     31  H   UNL     1      50.314   7.704  17.739  0.00  0.00    +0.000 HD
ENDBRANCH  20  21
ENDBRANCH  17  20
ENDBRANCH   1  17
TORSDOF 8
ENDMDL
MODEL 7
REMARK VINA RESULT:    -6.790      3.361      8.944
REMARK INTER + INTRA:         -10.904
REMARK INTER:                  -9.063
REMARK INTRA:                  -1.841
REMARK UNBOUND:                -0.938
REMARK  Name = 
REMARK  9 active torsions:
REMARK  status: ('A' for Active; 'I' for Inactive)
REMARK    1  A    between atoms: C_1  and  C_2
REMARK    2  A    between atoms: C_2  and  N_3
REMARK    3  A    between atoms: C_2  and  C_20
REMARK    4  A    between atoms: N_3  and  C_4
REMARK    5  A    between atoms: C_4  and  C_5
REMARK    6  A    between atoms: C_8  and  C_9
REMARK    7  A    between atoms: C_9  and  O_10
REMARK    8  A    between atoms: O_10  and  C_11
REMARK    9  A    between atoms: C_11  and  C_12
REMARK                            x       y       z     vdW  Elec       q    Type
REMARK                         _______ _______ _______ _____ _____    ______ ____
ROOT
ATOM      1  C   UNL     1      48.120   7.696  11.776  0.00  0.00    +0.000 C 
ENDROOT
BRANCH   1   2
ATOM      2  C   UNL     1      49.282   7.141  12.638  0.00  0.00    +0.000 C 
ATOM      3  C   UNL     1      50.344   8.208  12.961  0.00  0.00    +0.000 C 
ATOM      4  C   UNL     1      49.836   9.253  13.955  0.00  0.00    +0.000 C 
ATOM      5  C   UNL     1      49.296   8.632  15.254  0.00  0.00    +0.000 C 
ATOM      6  C   UNL     1      48.246   7.556  14.940  0.00  0.00    +0.000 C 
ATOM      7  C   UNL     1      48.756   6.513  13.945  0.00  0.00    +0.000 C 
BRANCH   5   8
ATOM      8  C   UNL     1      50.414   8.078  16.156  0.00  0.00    +0.000 C 
BRANCH   8   9
ATOM      9  O   UNL     1      49.823   7.472  17.303  0.00  0.00    +0.000 OA
BRANCH   9  10
ATOM     10  C   UNL     1      50.477   6.262  17.676  0.00  0.00    +0.000 C 
BRANCH  10  11
ATOM     11  C   UNL     1      49.485   5.138  17.558  0.00  0.00    +0.000 A 
ATOM     12  C   UNL     1      49.921   3.833  17.313  0.00  0.00    +0.000 A 
ATOM     13  C   UNL     1      48.979   2.820  17.222  0.00  0.00    +0.000 A 
ATOM     14  N   UNL     1      47.651   3.015  17.360  0.00  0.00    +0.000 NA
ATOM     15  C   UNL     1      47.248   4.283  17.587  0.00  0.00    +0.000 A 
ATOM     16  C   UNL     1      48.114   5.363  17.693  0.00  0.00    +0.000 A 
ENDBRANCH  10  11
ENDBRANCH   9  10
ENDBRANCH   8   9
ENDBRANCH   5   8
ENDBRANCH   1   2
BRANCH   1  17
ATOM     17  N   UNL     1      47.182   6.634  11.403  0.00  0.00    +0.000 NA
ATOM     18  H   UNL     1      47.368   6.351  10.441  0.00  0.00    +0.000 HD
BRANCH  17  20
ATOM     19  C   UNL     1      45.471   8.005  12.610  0.00  0.00    +0.000 C 
ATOM     20  C   UNL     1      45.774   7.056  11.449  0.00  0.00    +0.000 C 
BRANCH  20  21
ATOM     21  C   UNL     1      44.970   5.776  11.563  0.00  0.00    +0.000 A 
ATOM     22  C   UNL     1      44.221   5.428  12.678  0.00  0.00    +0.000 A 
ATOM     23  S   UNL     1      43.477   3.900  12.543  0.00  0.00    +0.000 S 
ATOM     24  C   UNL     1      44.138   3.651  10.996  0.00  0.00    +0.000 A 
ATOM     25  N   UNL     1      43.914   2.496  10.314  0.00  0.00    +0.000 NA
ATOM     26  C   UNL     1      44.465   2.452   9.149  0.00  0.00    +0.000 A 
ATOM     27  N   UNL     1      45.212   3.462   8.593  0.00  0.00    +0.000 N 
ATOM     28  C   UNL     1      45.469   4.646   9.243  0.00  0.00    +0.000 A 
ATOM     29  O   UNL     1      46.133   5.535   8.714  0.00  0.00    +0.000 OA
ATOM     30  C   UNL     1      44.886   4.734  10.569  0.00  0.00    +0.000 A 
ATOM     31  H   UNL     1      45.594   3.371   7.664  0.00  0.00    +0.000 HD
ENDBRANCH  20  21
ENDBRANCH  17  20
ENDBRANCH   1  17
TORSDOF 8
ENDMDL
MODEL 8
REMARK VINA RESULT:    -6.755      3.984      9.810
REMARK INTER + INTRA:         -10.852
REMARK INTER:                  -9.032
REMARK INTRA:                  -1.820
REMARK UNBOUND:                -0.938
REMARK  Name = 
REMARK  9 active torsions:
REMARK  status: ('A' for Active; 'I' for Inactive)
REMARK    1  A    between atoms: C_1  and  C_2
REMARK    2  A    between atoms: C_2  and  N_3
REMARK    3  A    between atoms: C_2  and  C_20
REMARK    4  A    between atoms: N_3  and  C_4
REMARK    5  A    between atoms: C_4  and  C_5
REMARK    6  A    between atoms: C_8  and  C_9
REMARK    7  A    between atoms: C_9  and  O_10
REMARK    8  A    between atoms: O_10  and  C_11
REMARK    9  A    between atoms: C_11  and  C_12
REMARK                            x       y       z     vdW  Elec       q    Type
REMARK                         _______ _______ _______ _____ _____    ______ ____
ROOT
ATOM      1  C   UNL     1      47.450   4.018  15.697  0.00  0.00    +0.000 C 
ENDROOT
BRANCH   1   2
ATOM      2  C   UNL     1      47.671   4.241  17.215  0.00  0.00    +0.000 C 
ATOM      3  C   UNL     1      48.402   3.065  17.889  0.00  0.00    +0.000 C 
ATOM      4  C   UNL     1      49.873   2.983  17.480  0.00  0.00    +0.000 C 
ATOM      5  C   UNL     1      50.638   4.295  17.728  0.00  0.00    +0.000 C 
ATOM      6  C   UNL     1      49.907   5.475  17.071  0.00  0.00    +0.000 C 
ATOM      7  C   UNL     1      48.435   5.554  17.479  0.00  0.00    +0.000 C 
BRANCH   5   8
ATOM      8  C   UNL     1      50.897   4.557  19.222  0.00  0.00    +0.000 C 
BRANCH   8   9
ATOM      9  O   UNL     1      51.498   5.842  19.368  0.00  0.00    +0.000 OA
BRANCH   9  10
ATOM     10  C   UNL     1      51.151   6.467  20.600  0.00  0.00    +0.000 C 
BRANCH  10  11
ATOM     11  C   UNL     1      49.884   7.250  20.388  0.00  0.00    +0.000 A 
ATOM     12  C   UNL     1      48.716   6.905  21.074  0.00  0.00    +0.000 A 
ATOM     13  C   UNL     1      47.571   7.656  20.863  0.00  0.00    +0.000 A 
ATOM     14  N   UNL     1      47.510   8.715  20.029  0.00  0.00    +0.000 NA
ATOM     15  C   UNL     1      48.645   9.027  19.367  0.00  0.00    +0.000 A 
ATOM     16  C   UNL     1      49.840   8.336  19.511  0.00  0.00    +0.000 A 
ENDBRANCH  10  11
ENDBRANCH   9  10
ENDBRANCH   8   9
ENDBRANCH   5   8
ENDBRANCH   1   2
BRANCH   1  17
ATOM     17  N   UNL     1      46.810   5.180  15.077  0.00  0.00    +0.000 NA
ATOM     18  H   UNL     1      45.843   4.945  14.854  0.00  0.00    +0.000 HD
BRANCH  17  20
ATOM     19  C   UNL     1      48.381   6.787  13.976  0.00  0.00    +0.000 C 
ATOM     20  C   UNL     1      47.442   5.590  13.814  0.00  0.00    +0.000 C 
BRANCH  20  21
ATOM     21  C   UNL     1      46.298   5.914  12.874  0.00  0.00    +0.000 A 
ATOM     22  C   UNL     1      45.979   7.197  12.455  0.00  0.00    +0.000 A 
ATOM     23  S   UNL     1      44.602   7.259  11.451  0.00  0.00    +0.000 S 
ATOM     24  C   UNL     1      44.384   5.575  11.551  0.00  0.00    +0.000 A 
ATOM     25  N   UNL     1      43.339   4.964  10.931  0.00  0.00    +0.000 NA
ATOM     26  C   UNL     1      43.307   3.684  11.082  0.00  0.00    +0.000 A 
ATOM     27  N   UNL     1      44.231   2.951  11.786  0.00  0.00    +0.000 N 
ATOM     28  C   UNL     1      45.302   3.522  12.432  0.00  0.00    +0.000 A 
ATOM     29  O   UNL     1      46.117   2.837  13.046  0.00  0.00    +0.000 OA
ATOM     30  C   UNL     1      45.368   4.967  12.309  0.00  0.00    +0.000 A 
ATOM     31  H   UNL     1      44.159   1.946  11.843  0.00  0.00    +0.000 HD
ENDBRANCH  20  21
ENDBRANCH  17  20
ENDBRANCH   1  17
TORSDOF 8
ENDMDL
MODEL 9
REMARK VINA RESULT:    -6.454      3.005      4.065
REMARK INTER + INTRA:         -10.410
REMARK INTER:                  -9.026
REMARK INTRA:                  -1.384
REMARK UNBOUND:                -0.938
REMARK  Name = 
REMARK  9 active torsions:
REMARK  status: ('A' for Active; 'I' for Inactive)
REMARK    1  A    between atoms: C_1  and  C_2
REMARK    2  A    between atoms: C_2  and  N_3
REMARK    3  A    between atoms: C_2  and  C_20
REMARK    4  A    between atoms: N_3  and  C_4
REMARK    5  A    between atoms: C_4  and  C_5
REMARK    6  A    between atoms: C_8  and  C_9
REMARK    7  A    between atoms: C_9  and  O_10
REMARK    8  A    between atoms: O_10  and  C_11
REMARK    9  A    between atoms: C_11  and  C_12
REMARK                            x       y       z     vdW  Elec       q    Type
REMARK                         _______ _______ _______ _____ _____    ______ ____
ROOT
ATOM      1  C   UNL     1      50.053   6.753  15.822  0.00  0.00    +0.000 C 
ENDROOT
BRANCH   1   2
ATOM      2  C   UNL     1      48.594   7.168  15.503  0.00  0.00    +0.000 C 
ATOM      3  C   UNL     1      48.488   8.613  14.979  0.00  0.00    +0.000 C 
ATOM      4  C   UNL     1      49.055   8.763  13.567  0.00  0.00    +0.000 C 
ATOM      5  C   UNL     1      48.423   7.786  12.560  0.00  0.00    +0.000 C 
ATOM      6  C   UNL     1      48.511   6.345  13.082  0.00  0.00    +0.000 C 
ATOM      7  C   UNL     1      47.945   6.197  14.496  0.00  0.00    +0.000 C 
BRANCH   5   8
ATOM      8  C   UNL     1      46.975   8.164  12.197  0.00  0.00    +0.000 C 
BRANCH   8   9
ATOM      9  O   UNL     1      46.436   7.156  11.344  0.00  0.00    +0.000 OA
BRANCH   9  10
ATOM     10  C   UNL     1      45.015   7.084  11.420  0.00  0.00    +0.000 C 
BRANCH  10  11
ATOM     11  C   UNL     1      44.643   5.727  11.952  0.00  0.00    +0.000 A 
ATOM     12  C   UNL     1      45.483   4.630  11.743  0.00  0.00    +0.000 A 
ATOM     13  C   UNL     1      45.113   3.397  12.259  0.00  0.00    +0.000 A 
ATOM     14  N   UNL     1      43.980   3.186  12.961  0.00  0.00    +0.000 NA
ATOM     15  C   UNL     1      43.176   4.256  13.144  0.00  0.00    +0.000 A 
ATOM     16  C   UNL     1      43.459   5.528  12.667  0.00  0.00    +0.000 A 
ENDBRANCH  10  11
ENDBRANCH   9  10
ENDBRANCH   8   9
ENDBRANCH   5   8
ENDBRANCH   1   2
BRANCH   1  17
ATOM     17  N   UNL     1      50.179   6.277  17.201  0.00  0.00    +0.000 NA
ATOM     18  H   UNL     1      51.140   6.416  17.513  0.00  0.00    +0.000 HD
BRANCH  17  20
ATOM     19  C   UNL     1      48.617   4.563  18.144  0.00  0.00    +0.000 C 
ATOM     20  C   UNL     1      49.895   4.841  17.350  0.00  0.00    +0.000 C 
BRANCH  20  21
ATOM     21  C   UNL     1      51.110   4.257  18.045  0.00  0.00    +0.000 A 
ATOM     22  C   UNL     1      51.929   4.974  18.906  0.00  0.00    +0.000 A 
ATOM     23  S   UNL     1      53.256   4.073  19.485  0.00  0.00    +0.000 S 
ATOM     24  C   UNL     1      52.784   2.701  18.597  0.00  0.00    +0.000 A 
ATOM     25  N   UNL     1      53.524   1.560  18.620  0.00  0.00    +0.000 NA
ATOM     26  C   UNL     1      53.038   0.598  17.912  0.00  0.00    +0.000 A 
ATOM     27  N   UNL     1      51.873   0.663  17.189  0.00  0.00    +0.000 N 
ATOM     28  C   UNL     1      51.092   1.793  17.131  0.00  0.00    +0.000 A 
ATOM     29  O   UNL     1      50.048   1.816  16.482  0.00  0.00    +0.000 OA
ATOM     30  C   UNL     1      51.609   2.912  17.897  0.00  0.00    +0.000 A 
ATOM     31  H   UNL     1      51.538  -0.138  16.675  0.00  0.00    +0.000 HD
ENDBRANCH  20  21
ENDBRANCH  17  20
ENDBRANCH   1  17
TORSDOF 8
ENDMDL
