MODEL 1
REMARK VINA RESULT:    -8.173      0.000      0.000
REMARK INTER + INTRA:         -12.910
REMARK INTER:                 -11.757
REMARK INTRA:                  -1.154
REMARK UNBOUND:                -1.154
REMARK  Name = 
REMARK  8 active torsions:
REMARK  status: ('A' for Active; 'I' for Inactive)
REMARK    1  A    between atoms: C_2  and  C_22
REMARK    2  A    between atoms: N_3  and  C_4
REMARK    3  A    between atoms: C_4  and  C_5
REMARK    4  A    between atoms: C_8  and  C_9
REMARK    5  A    between atoms: C_9  and  C_10
REMARK    6  A    between atoms: C_10  and  O_11
REMARK    7  A    between atoms: C_10  and  C_12
REMARK    8  A    between atoms: C_12  and  C_13
REMARK                            x       y       z     vdW  Elec       q    Type
REMARK                         _______ _______ _______ _____ _____    ______ ____
ROOT
ATOM      1  C   UNL     1      48.095   5.880  15.190  0.00  0.00    +0.000 A 
ATOM      2  C   UNL     1      47.500   4.681  15.604  0.00  0.00    +0.000 A 
ATOM      3  C   UNL     1      46.749   3.905  14.714  0.00  0.00    +0.000 A 
ATOM      4  C   UNL     1      46.564   4.323  13.391  0.00  0.00    +0.000 A 
ATOM      5  C   UNL     1      47.170   5.517  12.975  0.00  0.00    +0.000 A 
ATOM      6  C   UNL     1      47.935   6.283  13.860  0.00  0.00    +0.000 A 
ENDROOT
BRANCH   1   7
ATOM      7  C   UNL     1      48.904   6.699  16.160  0.00  0.00    +0.000 C 
BRANCH   7  10
ATOM      8  O   UNL     1      49.100   5.363  18.580  0.00  0.00    +0.000 OA
ATOM      9  C   UNL     1      50.059   5.330  17.815  0.00  0.00    +0.000 C 
ATOM     10  N   UNL     1      50.071   5.996  16.616  0.00  0.00    +0.000 N 
ATOM     11  H   UNL     1      50.754   5.745  15.908  0.00  0.00    +0.000 HD
BRANCH   9  12
ATOM     12  C   UNL     1      51.277   4.591  18.145  0.00  0.00    +0.000 A 
ATOM     13  C   UNL     1      52.329   5.201  18.815  0.00  0.00    +0.000 A 
ATOM     14  S   UNL     1      53.618   4.133  19.156  0.00  0.00    +0.000 S 
ATOM     15  C   UNL     1      52.803   2.825  18.427  0.00  0.00    +0.000 A 
ATOM     16  N   UNL     1      53.342   1.577  18.416  0.00  0.00    +0.000 NA
ATOM     17  C   UNL     1      52.585   0.682  17.855  0.00  0.00    +0.000 A 
ATOM     18  N   UNL     1      51.357   0.929  17.296  0.00  0.00    +0.000 N 
ATOM     19  C   UNL     1      50.821   2.183  17.229  0.00  0.00    +0.000 A 
ATOM     20  O   UNL     1      49.778   2.377  16.609  0.00  0.00    +0.000 OA
ATOM     21  C   UNL     1      51.588   3.211  17.896  0.00  0.00    +0.000 A 
ATOM     22  H   UNL     1      50.841   0.195  16.835  0.00  0.00    +0.000 HD
ENDBRANCH   9  12
ENDBRANCH   7  10
ENDBRANCH   1   7
BRANCH   4  23
ATOM     23  C   UNL     1      45.773   3.499  12.402  0.00  0.00    +0.000 C 
BRANCH  23  24
ATOM     24  C   UNL     1      44.429   4.095  11.927  0.00  0.00    +0.000 C 
BRANCH  24  25
ATOM     25  O   UNL     1      43.547   4.154  13.060  0.00  0.00    +0.000 OA
ATOM     26  H   UNL     1      42.631   4.067  12.750  0.00  0.00    +0.000 HD
ENDBRANCH  24  25
BRANCH  24  27
ATOM     27  C   UNL     1      43.778   3.290  10.776  0.00  0.00    +0.000 C 
BRANCH  27  28
ATOM     28  C   UNL     1      44.678   3.165   9.559  0.00  0.00    +0.000 A 
ATOM     29  C   UNL     1      45.131   4.299   8.866  0.00  0.00    +0.000 A 
ATOM     30  C   UNL     1      46.101   4.181   7.863  0.00  0.00    +0.000 A 
ATOM     31  C   UNL     1      46.600   2.927   7.516  0.00  0.00    +0.000 A 
ATOM     32  C   UNL     1      46.094   1.791   8.142  0.00  0.00    +0.000 A 
ATOM     33 CL   UNL     1      46.678   0.236   7.690  0.00  0.00    +0.000 Cl
ATOM     34  C   UNL     1      45.138   1.903   9.155  0.00  0.00    +0.000 A 
ENDBRANCH  27  28
ENDBRANCH  24  27
ENDBRANCH  23  24
ENDBRANCH   4  23
TORSDOF 8
ENDMDL
MODEL 2
REMARK VINA RESULT:    -7.969      3.234      3.545
REMARK INTER + INTRA:         -12.617
REMARK INTER:                 -11.403
REMARK INTRA:                  -1.215
REMARK UNBOUND:                -1.154
REMARK  Name = 
REMARK  8 active torsions:
REMARK  status: ('A' for Active; 'I' for Inactive)
REMARK    1  A    between atoms: C_2  and  C_22
REMARK    2  A    between atoms: N_3  and  C_4
REMARK    3  A    between atoms: C_4  and  C_5
REMARK    4  A    between atoms: C_8  and  C_9
REMARK    5  A    between atoms: C_9  and  C_10
REMARK    6  A    between atoms: C_10  and  O_11
REMARK    7  A    between atoms: C_10  and  C_12
REMARK    8  A    between atoms: C_12  and  C_13
REMARK                            x       y       z     vdW  Elec       q    Type
REMARK                         _______ _______ _______ _____ _____    ______ ____
ROOT
ATOM      1  C   UNL     1      48.064   6.629  13.588  0.00  0.00    +0.000 A 
ATOM      2  C   UNL     1      47.487   5.564  14.292  0.00  0.00    +0.000 A 
ATOM      3  C   UNL     1      46.362   4.897  13.793  0.00  0.00    +0.000 A 
ATOM      4  C   UNL     1      45.782   5.292  12.582  0.00  0.00    +0.000 A 
ATOM      5  C   UNL     1      46.368   6.351  11.873  0.00  0.00    +0.000 A 
ATOM      6  C   UNL     1      47.502   7.006  12.363  0.00  0.00    +0.000 A 
ENDROOT
BRANCH   1   7
ATOM      7  C   UNL     1      49.276   7.332  14.137  0.00  0.00    +0.000 C 
BRANCH   7  10
ATOM      8  O   UNL     1      50.733   6.028  16.100  0.00  0.00    +0.000 OA
ATOM      9  C   UNL     1      49.955   6.913  16.442  0.00  0.00    +0.000 C 
ATOM     10  N   UNL     1      49.160   7.584  15.546  0.00  0.00    +0.000 N 
ATOM     11  H   UNL     1      48.732   8.463  15.815  0.00  0.00    +0.000 HD
BRANCH   9  12
ATOM     12  C   UNL     1      49.802   7.301  17.844  0.00  0.00    +0.000 A 
ATOM     13  C   UNL     1      50.560   8.327  18.392  0.00  0.00    +0.000 A 
ATOM     14  S   UNL     1      50.167   8.654  20.022  0.00  0.00    +0.000 S 
ATOM     15  C   UNL     1      48.968   7.441  20.037  0.00  0.00    +0.000 A 
ATOM     16  N   UNL     1      48.202   7.222  21.138  0.00  0.00    +0.000 NA
ATOM     17  C   UNL     1      47.310   6.289  20.981  0.00  0.00    +0.000 A 
ATOM     18  N   UNL     1      47.135   5.555  19.835  0.00  0.00    +0.000 N 
ATOM     19  C   UNL     1      47.935   5.703  18.739  0.00  0.00    +0.000 A 
ATOM     20  O   UNL     1      47.822   4.938  17.784  0.00  0.00    +0.000 OA
ATOM     21  C   UNL     1      48.903   6.772  18.831  0.00  0.00    +0.000 A 
ATOM     22  H   UNL     1      46.453   4.812  19.797  0.00  0.00    +0.000 HD
ENDBRANCH   9  12
ENDBRANCH   7  10
ENDBRANCH   1   7
BRANCH   4  23
ATOM     23  C   UNL     1      44.579   4.581  12.010  0.00  0.00    +0.000 C 
BRANCH  23  24
ATOM     24  C   UNL     1      44.298   4.802  10.506  0.00  0.00    +0.000 C 
BRANCH  24  25
ATOM     25  O   UNL     1      43.211   5.735  10.392  0.00  0.00    +0.000 OA
ATOM     26  H   UNL     1      43.562   6.593  10.107  0.00  0.00    +0.000 HD
ENDBRANCH  24  25
BRANCH  24  27
ATOM     27  C   UNL     1      43.968   3.492   9.749  0.00  0.00    +0.000 C 
BRANCH  27  28
ATOM     28  C   UNL     1      45.037   3.109   8.739  0.00  0.00    +0.000 A 
ATOM     29  C   UNL     1      45.737   4.083   8.010  0.00  0.00    +0.000 A 
ATOM     30  C   UNL     1      46.838   3.728   7.222  0.00  0.00    +0.000 A 
ATOM     31  C   UNL     1      47.228   2.394   7.123  0.00  0.00    +0.000 A 
ATOM     32  C   UNL     1      46.487   1.414   7.777  0.00  0.00    +0.000 A 
ATOM     33 CL   UNL     1      46.939  -0.241   7.626  0.00  0.00    +0.000 Cl
ATOM     34  C   UNL     1      45.396   1.762   8.578  0.00  0.00    +0.000 A 
ENDBRANCH  27  28
ENDBRANCH  24  27
ENDBRANCH  23  24
ENDBRANCH   4  23
TORSDOF 8
ENDMDL
MODEL 3
REMARK VINA RESULT:    -7.892      2.072      2.602
REMARK INTER + INTRA:         -12.505
REMARK INTER:                 -11.242
REMARK INTRA:                  -1.264
REMARK UNBOUND:                -1.154
REMARK  Name = 
REMARK  8 active torsions:
REMARK  status: ('A' for Active; 'I' for Inactive)
REMARK    1  A    between atoms: C_2  and  C_22
REMARK    2  A    between atoms: N_3  and  C_4
REMARK    3  A    between atoms: C_4  and  C_5
REMARK    4  A    between atoms: C_8  and  C_9
REMARK    5  A    between atoms: C_9  and  C_10
REMARK    6  A    between atoms: C_10  and  O_11
REMARK    7  A    between atoms: C_10  and  C_12
REMARK    8  A    between atoms: C_12  and  C_13
REMARK                            x       y       z     vdW  Elec       q    Type
REMARK                         _______ _______ _______ _____ _____    ______ ____
ROOT
ATOM      1  C   UNL     1      48.440   7.315  12.969  0.00  0.00    +0.000 A 
ATOM      2  C   UNL     1      47.955   6.411  13.923  0.00  0.00    +0.000 A 
ATOM      3  C   UNL     1      46.852   5.595  13.646  0.00  0.00    +0.000 A 
ATOM      4  C   UNL     1      46.202   5.676  12.409  0.00  0.00    +0.000 A 
ATOM      5  C   UNL     1      46.697   6.573  11.450  0.00  0.00    +0.000 A 
ATOM      6  C   UNL     1      47.809   7.376  11.722  0.00  0.00    +0.000 A 
ENDROOT
BRANCH   1   7
ATOM      7  C   UNL     1      49.629   8.182  13.283  0.00  0.00    +0.000 C 
BRANCH   7  10
ATOM      8  O   UNL     1      50.538   8.794  15.828  0.00  0.00    +0.000 OA
ATOM      9  C   UNL     1      51.010   7.814  15.260  0.00  0.00    +0.000 C 
ATOM     10  N   UNL     1      50.654   7.459  13.983  0.00  0.00    +0.000 N 
ATOM     11  H   UNL     1      50.858   6.524  13.646  0.00  0.00    +0.000 HD
BRANCH   9  12
ATOM     12  C   UNL     1      52.012   6.965  15.901  0.00  0.00    +0.000 A 
ATOM     13  C   UNL     1      53.368   7.151  15.667  0.00  0.00    +0.000 A 
ATOM     14  S   UNL     1      54.357   6.093  16.573  0.00  0.00    +0.000 S 
ATOM     15  C   UNL     1      53.002   5.363  17.308  0.00  0.00    +0.000 A 
ATOM     16  N   UNL     1      53.149   4.390  18.246  0.00  0.00    +0.000 NA
ATOM     17  C   UNL     1      52.025   3.960  18.738  0.00  0.00    +0.000 A 
ATOM     18  N   UNL     1      50.782   4.403  18.363  0.00  0.00    +0.000 N 
ATOM     19  C   UNL     1      50.601   5.328  17.375  0.00  0.00    +0.000 A 
ATOM     20  O   UNL     1      49.467   5.601  16.986  0.00  0.00    +0.000 OA
ATOM     21  C   UNL     1      51.818   5.892  16.836  0.00  0.00    +0.000 A 
ATOM     22  H   UNL     1      49.947   3.993  18.753  0.00  0.00    +0.000 HD
ENDBRANCH   9  12
ENDBRANCH   7  10
ENDBRANCH   1   7
BRANCH   4  23
ATOM     23  C   UNL     1      45.022   4.796  12.073  0.00  0.00    +0.000 C 
BRANCH  23  24
ATOM     24  C   UNL     1      44.451   4.923  10.643  0.00  0.00    +0.000 C 
BRANCH  24  25
ATOM     25  O   UNL     1      43.285   5.761  10.706  0.00  0.00    +0.000 OA
ATOM     26  H   UNL     1      42.958   5.912   9.804  0.00  0.00    +0.000 HD
ENDBRANCH  24  25
BRANCH  24  27
ATOM     27  C   UNL     1      44.102   3.558  10.002  0.00  0.00    +0.000 C 
BRANCH  27  28
ATOM     28  C   UNL     1      45.075   3.153   8.908  0.00  0.00    +0.000 A 
ATOM     29  C   UNL     1      45.732   4.112   8.123  0.00  0.00    +0.000 A 
ATOM     30  C   UNL     1      46.757   3.736   7.246  0.00  0.00    +0.000 A 
ATOM     31  C   UNL     1      47.109   2.394   7.116  0.00  0.00    +0.000 A 
ATOM     32  C   UNL     1      46.404   1.429   7.830  0.00  0.00    +0.000 A 
ATOM     33 CL   UNL     1      46.808  -0.235   7.644  0.00  0.00    +0.000 Cl
ATOM     34  C   UNL     1      45.391   1.799   8.718  0.00  0.00    +0.000 A 
ENDBRANCH  27  28
ENDBRANCH  24  27
ENDBRANCH  23  24
ENDBRANCH   4  23
TORSDOF 8
ENDMDL
MODEL 4
REMARK VINA RESULT:    -7.591      2.451      3.068
REMARK INTER + INTRA:         -12.073
REMARK INTER:                 -11.009
REMARK INTRA:                  -1.065
REMARK UNBOUND:                -1.154
REMARK  Name = 
REMARK  8 active torsions:
REMARK  status: ('A' for Active; 'I' for Inactive)
REMARK    1  A    between atoms: C_2  and  C_22
REMARK    2  A    between atoms: N_3  and  C_4
REMARK    3  A    between atoms: C_4  and  C_5
REMARK    4  A    between atoms: C_8  and  C_9
REMARK    5  A    between atoms: C_9  and  C_10
REMARK    6  A    between atoms: C_10  and  O_11
REMARK    7  A    between atoms: C_10  and  C_12
REMARK    8  A    between atoms: C_12  and  C_13
REMARK                            x       y       z     vdW  Elec       q    Type
REMARK                         _______ _______ _______ _____ _____    ______ ____
ROOT
ATOM      1  C   UNL     1      47.719   7.586  13.478  0.00  0.00    +0.000 A 
ATOM      2  C   UNL     1      47.888   6.197  13.555  0.00  0.00    +0.000 A 
ATOM      3  C   UNL     1      46.859   5.325  13.183  0.00  0.00    +0.000 A 
ATOM      4  C   UNL     1      45.629   5.826  12.739  0.00  0.00    +0.000 A 
ATOM      5  C   UNL     1      45.466   7.216  12.651  0.00  0.00    +0.000 A 
ATOM      6  C   UNL     1      46.501   8.087  13.006  0.00  0.00    +0.000 A 
ENDROOT
BRANCH   1   7
ATOM      7  C   UNL     1      48.838   8.509  13.877  0.00  0.00    +0.000 C 
BRANCH   7  10
ATOM      8  O   UNL     1      47.890   9.336  16.346  0.00  0.00    +0.000 OA
ATOM      9  C   UNL     1      48.848   8.571  16.315  0.00  0.00    +0.000 C 
ATOM     10  N   UNL     1      49.414   8.142  15.141  0.00  0.00    +0.000 N 
ATOM     11  H   UNL     1      50.020   7.328  15.143  0.00  0.00    +0.000 HD
BRANCH   9  12
ATOM     12  C   UNL     1      49.475   8.078  17.541  0.00  0.00    +0.000 A 
ATOM     13  C   UNL     1      50.041   8.952  18.460  0.00  0.00    +0.000 A 
ATOM     14  S   UNL     1      50.652   8.164  19.848  0.00  0.00    +0.000 S 
ATOM     15  C   UNL     1      50.169   6.636  19.263  0.00  0.00    +0.000 A 
ATOM     16  N   UNL     1      50.355   5.509  20.000  0.00  0.00    +0.000 NA
ATOM     17  C   UNL     1      49.903   4.430  19.434  0.00  0.00    +0.000 A 
ATOM     18  N   UNL     1      49.303   4.381  18.202  0.00  0.00    +0.000 N 
ATOM     19  C   UNL     1      49.166   5.484  17.408  0.00  0.00    +0.000 A 
ATOM     20  O   UNL     1      48.738   5.370  16.262  0.00  0.00    +0.000 OA
ATOM     21  C   UNL     1      49.592   6.726  18.012  0.00  0.00    +0.000 A 
ATOM     22  H   UNL     1      49.016   3.501  17.801  0.00  0.00    +0.000 HD
ENDBRANCH   9  12
ENDBRANCH   7  10
ENDBRANCH   1   7
BRANCH   4  23
ATOM     23  C   UNL     1      44.506   4.911  12.314  0.00  0.00    +0.000 C 
BRANCH  23  24
ATOM     24  C   UNL     1      44.149   4.909  10.810  0.00  0.00    +0.000 C 
BRANCH  24  25
ATOM     25  O   UNL     1      42.961   5.698  10.637  0.00  0.00    +0.000 OA
ATOM     26  H   UNL     1      42.832   6.249  11.427  0.00  0.00    +0.000 HD
ENDBRANCH  24  25
BRANCH  24  27
ATOM     27  C   UNL     1      43.941   3.486  10.235  0.00  0.00    +0.000 C 
BRANCH  27  28
ATOM     28  C   UNL     1      44.909   3.157   9.111  0.00  0.00    +0.000 A 
ATOM     29  C   UNL     1      45.500   4.167   8.336  0.00  0.00    +0.000 A 
ATOM     30  C   UNL     1      46.523   3.862   7.429  0.00  0.00    +0.000 A 
ATOM     31  C   UNL     1      46.938   2.544   7.259  0.00  0.00    +0.000 A 
ATOM     32  C   UNL     1      46.299   1.528   7.964  0.00  0.00    +0.000 A 
ATOM     33 CL   UNL     1      46.780  -0.109   7.729  0.00  0.00    +0.000 Cl
ATOM     34  C   UNL     1      45.288   1.826   8.882  0.00  0.00    +0.000 A 
ENDBRANCH  27  28
ENDBRANCH  24  27
ENDBRANCH  23  24
ENDBRANCH   4  23
TORSDOF 8
ENDMDL
MODEL 5
REMARK VINA RESULT:    -7.573      4.730      8.721
REMARK INTER + INTRA:         -12.047
REMARK INTER:                 -10.067
REMARK INTRA:                  -1.980
REMARK UNBOUND:                -1.154
REMARK  Name = 
REMARK  8 active torsions:
REMARK  status: ('A' for Active; 'I' for Inactive)
REMARK    1  A    between atoms: C_2  and  C_22
REMARK    2  A    between atoms: N_3  and  C_4
REMARK    3  A    between atoms: C_4  and  C_5
REMARK    4  A    between atoms: C_8  and  C_9
REMARK    5  A    between atoms: C_9  and  C_10
REMARK    6  A    between atoms: C_10  and  O_11
REMARK    7  A    between atoms: C_10  and  C_12
REMARK    8  A    between atoms: C_12  and  C_13
REMARK                            x       y       z     vdW  Elec       q    Type
REMARK                         _______ _______ _______ _____ _____    ______ ____
ROOT
ATOM      1  C   UNL     1      48.245   7.992  13.718  0.00  0.00    +0.000 A 
ATOM      2  C   UNL     1      47.972   9.044  14.603  0.00  0.00    +0.000 A 
ATOM      3  C   UNL     1      48.227   8.916  15.973  0.00  0.00    +0.000 A 
ATOM      4  C   UNL     1      48.749   7.725  16.490  0.00  0.00    +0.000 A 
ATOM      5  C   UNL     1      49.033   6.677  15.602  0.00  0.00    +0.000 A 
ATOM      6  C   UNL     1      48.794   6.811  14.230  0.00  0.00    +0.000 A 
ENDROOT
BRANCH   1   7
ATOM      7  C   UNL     1      47.969   8.149  12.247  0.00  0.00    +0.000 C 
BRANCH   7  10
ATOM      8  O   UNL     1      45.295   7.995  11.539  0.00  0.00    +0.000 OA
ATOM      9  C   UNL     1      46.009   7.019  11.335  0.00  0.00    +0.000 C 
ATOM     10  N   UNL     1      47.334   6.986  11.692  0.00  0.00    +0.000 N 
ATOM     11  H   UNL     1      47.947   6.286  11.286  0.00  0.00    +0.000 HD
BRANCH   9  12
ATOM     12  C   UNL     1      45.487   5.803  10.713  0.00  0.00    +0.000 A 
ATOM     13  C   UNL     1      45.785   5.484   9.395  0.00  0.00    +0.000 A 
ATOM     14  S   UNL     1      45.127   3.987   8.901  0.00  0.00    +0.000 S 
ATOM     15  C   UNL     1      44.435   3.719  10.436  0.00  0.00    +0.000 A 
ATOM     16  N   UNL     1      43.756   2.574  10.713  0.00  0.00    +0.000 NA
ATOM     17  C   UNL     1      43.319   2.504  11.935  0.00  0.00    +0.000 A 
ATOM     18  N   UNL     1      43.487   3.477  12.887  0.00  0.00    +0.000 N 
ATOM     19  C   UNL     1      44.102   4.667  12.619  0.00  0.00    +0.000 A 
ATOM     20  O   UNL     1      44.118   5.557  13.466  0.00  0.00    +0.000 OA
ATOM     21  C   UNL     1      44.667   4.776  11.293  0.00  0.00    +0.000 A 
ATOM     22  H   UNL     1      43.081   3.378  13.805  0.00  0.00    +0.000 HD
ENDBRANCH   9  12
ENDBRANCH   7  10
ENDBRANCH   1   7
BRANCH   4  23
ATOM     23  C   UNL     1      49.052   7.563  17.961  0.00  0.00    +0.000 C 
BRANCH  23  24
ATOM     24  C   UNL     1      47.889   7.075  18.854  0.00  0.00    +0.000 C 
BRANCH  24  25
ATOM     25  O   UNL     1      47.651   8.078  19.856  0.00  0.00    +0.000 OA
ATOM     26  H   UNL     1      47.907   7.723  20.723  0.00  0.00    +0.000 HD
ENDBRANCH  24  25
BRANCH  24  27
ATOM     27  C   UNL     1      48.165   5.703  19.518  0.00  0.00    +0.000 C 
BRANCH  27  28
ATOM     28  C   UNL     1      48.233   4.565  18.514  0.00  0.00    +0.000 A 
ATOM     29  C   UNL     1      47.180   4.316  17.620  0.00  0.00    +0.000 A 
ATOM     30  C   UNL     1      47.330   3.384  16.585  0.00  0.00    +0.000 A 
ATOM     31  C   UNL     1      48.516   2.666  16.456  0.00  0.00    +0.000 A 
ATOM     32  C   UNL     1      49.533   2.848  17.390  0.00  0.00    +0.000 A 
ATOM     33 CL   UNL     1      50.986   1.934  17.260  0.00  0.00    +0.000 Cl
ATOM     34  C   UNL     1      49.396   3.787  18.416  0.00  0.00    +0.000 A 
ENDBRANCH  27  28
ENDBRANCH  24  27
ENDBRANCH  23  24
ENDBRANCH   4  23
TORSDOF 8
ENDMDL
MODEL 6
REMARK VINA RESULT:    -7.468      4.563      8.980
REMARK INTER + INTRA:         -11.896
REMARK INTER:                  -9.730
REMARK INTRA:                  -2.166
REMARK UNBOUND:                -1.154
REMARK  Name = 
REMARK  8 active torsions:
REMARK  status: ('A' for Active; 'I' for Inactive)
REMARK    1  A    between atoms: C_2  and  C_22
REMARK    2  A    between atoms: N_3  and  C_4
REMARK    3  A    between atoms: C_4  and  C_5
REMARK    4  A    between atoms: C_8  and  C_9
REMARK    5  A    between atoms: C_9  and  C_10
REMARK    6  A    between atoms: C_10  and  O_11
REMARK    7  A    between atoms: C_10  and  C_12
REMARK    8  A    between atoms: C_12  and  C_13
REMARK                            x       y       z     vdW  Elec       q    Type
REMARK                         _______ _______ _______ _____ _____    ______ ____
ROOT
ATOM      1  C   UNL     1      48.133   7.813  13.809  0.00  0.00    +0.000 A 
ATOM      2  C   UNL     1      48.869   6.754  14.357  0.00  0.00    +0.000 A 
ATOM      3  C   UNL     1      49.339   6.810  15.674  0.00  0.00    +0.000 A 
ATOM      4  C   UNL     1      49.095   7.937  16.467  0.00  0.00    +0.000 A 
ATOM      5  C   UNL     1      48.349   8.991  15.921  0.00  0.00    +0.000 A 
ATOM      6  C   UNL     1      47.864   8.927  14.610  0.00  0.00    +0.000 A 
ENDROOT
BRANCH   1   7
ATOM      7  C   UNL     1      47.631   7.733  12.392  0.00  0.00    +0.000 C 
BRANCH   7  10
ATOM      8  O   UNL     1      44.882   7.393  12.401  0.00  0.00    +0.000 OA
ATOM      9  C   UNL     1      45.588   6.431  12.116  0.00  0.00    +0.000 C 
ATOM     10  N   UNL     1      46.959   6.492  12.128  0.00  0.00    +0.000 N 
ATOM     11  H   UNL     1      47.497   5.778  11.648  0.00  0.00    +0.000 HD
BRANCH   9  12
ATOM     12  C   UNL     1      45.011   5.134  11.765  0.00  0.00    +0.000 A 
ATOM     13  C   UNL     1      44.321   4.377  12.703  0.00  0.00    +0.000 A 
ATOM     14  S   UNL     1      43.676   2.933  12.057  0.00  0.00    +0.000 S 
ATOM     15  C   UNL     1      44.292   3.284  10.506  0.00  0.00    +0.000 A 
ATOM     16  N   UNL     1      44.053   2.461   9.451  0.00  0.00    +0.000 NA
ATOM     17  C   UNL     1      44.559   2.883   8.330  0.00  0.00    +0.000 A 
ATOM     18  N   UNL     1      45.288   4.035   8.181  0.00  0.00    +0.000 N 
ATOM     19  C   UNL     1      45.604   4.844   9.234  0.00  0.00    +0.000 A 
ATOM     20  O   UNL     1      46.364   5.797   9.074  0.00  0.00    +0.000 OA
ATOM     21  C   UNL     1      45.013   4.461  10.496  0.00  0.00    +0.000 A 
ATOM     22  H   UNL     1      45.691   4.280   7.289  0.00  0.00    +0.000 HD
ENDBRANCH   9  12
ENDBRANCH   7  10
ENDBRANCH   1   7
BRANCH   4  23
ATOM     23  C   UNL     1      49.574   8.019  17.897  0.00  0.00    +0.000 C 
BRANCH  23  24
ATOM     24  C   UNL     1      48.532   7.699  18.993  0.00  0.00    +0.000 C 
BRANCH  24  25
ATOM     25  O   UNL     1      48.560   8.766  19.955  0.00  0.00    +0.000 OA
ATOM     26  H   UNL     1      49.080   8.482  20.724  0.00  0.00    +0.000 HD
ENDBRANCH  24  25
BRANCH  24  27
ATOM     27  C   UNL     1      48.779   6.337  19.688  0.00  0.00    +0.000 C 
BRANCH  27  28
ATOM     28  C   UNL     1      48.518   5.152  18.776  0.00  0.00    +0.000 A 
ATOM     29  C   UNL     1      47.287   4.991  18.120  0.00  0.00    +0.000 A 
ATOM     30  C   UNL     1      47.123   3.999  17.146  0.00  0.00    +0.000 A 
ATOM     31  C   UNL     1      48.172   3.134  16.844  0.00  0.00    +0.000 A 
ATOM     32  C   UNL     1      49.368   3.234  17.550  0.00  0.00    +0.000 A 
ATOM     33 CL   UNL     1      50.655   2.143  17.209  0.00  0.00    +0.000 Cl
ATOM     34  C   UNL     1      49.544   4.232  18.512  0.00  0.00    +0.000 A 
ENDBRANCH  27  28
ENDBRANCH  24  27
ENDBRANCH  23  24
ENDBRANCH   4  23
TORSDOF 8
ENDMDL
MODEL 7
REMARK VINA RESULT:    -7.193      4.522      9.232
REMARK INTER + INTRA:         -11.501
REMARK INTER:                  -8.964
REMARK INTRA:                  -2.537
REMARK UNBOUND:                -1.154
REMARK  Name = 
REMARK  8 active torsions:
REMARK  status: ('A' for Active; 'I' for Inactive)
REMARK    1  A    between atoms: C_2  and  C_22
REMARK    2  A    between atoms: N_3  and  C_4
REMARK    3  A    between atoms: C_4  and  C_5
REMARK    4  A    between atoms: C_8  and  C_9
REMARK    5  A    between atoms: C_9  and  C_10
REMARK    6  A    between atoms: C_10  and  O_11
REMARK    7  A    between atoms: C_10  and  C_12
REMARK    8  A    between atoms: C_12  and  C_13
REMARK                            x       y       z     vdW  Elec       q    Type
REMARK                         _______ _______ _______ _____ _____    ______ ____
ROOT
ATOM      1  C   UNL     1      48.407   3.750  17.559  0.00  0.00    +0.000 A 
ATOM      2  C   UNL     1      48.331   4.492  18.745  0.00  0.00    +0.000 A 
ATOM      3  C   UNL     1      49.486   4.820  19.464  0.00  0.00    +0.000 A 
ATOM      4  C   UNL     1      50.743   4.397  19.018  0.00  0.00    +0.000 A 
ATOM      5  C   UNL     1      50.819   3.664  17.824  0.00  0.00    +0.000 A 
ATOM      6  C   UNL     1      49.665   3.352  17.097  0.00  0.00    +0.000 A 
ENDROOT
BRANCH   1   7
ATOM      7  C   UNL     1      47.154   3.411  16.797  0.00  0.00    +0.000 C 
BRANCH   7  10
ATOM      8  O   UNL     1      47.278   3.163  14.040  0.00  0.00    +0.000 OA
ATOM      9  C   UNL     1      46.852   4.212  14.513  0.00  0.00    +0.000 C 
ATOM     10  N   UNL     1      46.795   4.443  15.864  0.00  0.00    +0.000 N 
ATOM     11  H   UNL     1      46.212   5.193  16.222  0.00  0.00    +0.000 HD
BRANCH   9  12
ATOM     12  C   UNL     1      46.396   5.308  13.660  0.00  0.00    +0.000 A 
ATOM     13  C   UNL     1      47.205   6.408  13.408  0.00  0.00    +0.000 A 
ATOM     14  S   UNL     1      46.498   7.531  12.332  0.00  0.00    +0.000 S 
ATOM     15  C   UNL     1      45.095   6.574  12.166  0.00  0.00    +0.000 A 
ATOM     16  N   UNL     1      44.087   6.943  11.333  0.00  0.00    +0.000 NA
ATOM     17  C   UNL     1      43.104   6.093  11.289  0.00  0.00    +0.000 A 
ATOM     18  N   UNL     1      43.038   4.929  12.012  0.00  0.00    +0.000 N 
ATOM     19  C   UNL     1      44.002   4.568  12.909  0.00  0.00    +0.000 A 
ATOM     20  O   UNL     1      43.840   3.582  13.625  0.00  0.00    +0.000 OA
ATOM     21  C   UNL     1      45.152   5.442  12.953  0.00  0.00    +0.000 A 
ATOM     22  H   UNL     1      42.223   4.336  11.965  0.00  0.00    +0.000 HD
ENDBRANCH   9  12
ENDBRANCH   7  10
ENDBRANCH   1   7
BRANCH   4  23
ATOM     23  C   UNL     1      52.009   4.750  19.762  0.00  0.00    +0.000 C 
BRANCH  23  24
ATOM     24  C   UNL     1      53.063   5.567  18.981  0.00  0.00    +0.000 C 
BRANCH  24  25
ATOM     25  O   UNL     1      54.330   5.398  19.640  0.00  0.00    +0.000 OA
ATOM     26  H   UNL     1      55.010   5.880  19.142  0.00  0.00    +0.000 HD
ENDBRANCH  24  25
BRANCH  24  27
ATOM     27  C   UNL     1      52.709   7.070  18.869  0.00  0.00    +0.000 C 
BRANCH  27  28
ATOM     28  C   UNL     1      51.564   7.337  17.907  0.00  0.00    +0.000 A 
ATOM     29  C   UNL     1      51.609   6.891  16.577  0.00  0.00    +0.000 A 
ATOM     30  C   UNL     1      50.478   6.983  15.756  0.00  0.00    +0.000 A 
ATOM     31  C   UNL     1      49.305   7.555  16.243  0.00  0.00    +0.000 A 
ATOM     32  C   UNL     1      49.280   8.074  17.534  0.00  0.00    +0.000 A 
ATOM     33 CL   UNL     1      47.845   8.818  18.129  0.00  0.00    +0.000 Cl
ATOM     34  C   UNL     1      50.400   7.971  18.364  0.00  0.00    +0.000 A 
ENDBRANCH  27  28
ENDBRANCH  24  27
ENDBRANCH  23  24
ENDBRANCH   4  23
TORSDOF 8
ENDMDL
MODEL 8
REMARK VINA RESULT:    -7.130      1.798      2.607
REMARK INTER + INTRA:         -11.409
REMARK INTER:                 -10.248
REMARK INTRA:                  -1.161
REMARK UNBOUND:                -1.154
REMARK  Name = 
REMARK  8 active torsions:
REMARK  status: ('A' for Active; 'I' for Inactive)
REMARK    1  A    between atoms: C_2  and  C_22
REMARK    2  A    between atoms: N_3  and  C_4
REMARK    3  A    between atoms: C_4  and  C_5
REMARK    4  A    between atoms: C_8  and  C_9
REMARK    5  A    between atoms: C_9  and  C_10
REMARK    6  A    between atoms: C_10  and  O_11
REMARK    7  A    between atoms: C_10  and  C_12
REMARK    8  A    between atoms: C_12  and  C_13
REMARK                            x       y       z     vdW  Elec       q    Type
REMARK                         _______ _______ _______ _____ _____    ______ ____
ROOT
ATOM      1  C   UNL     1      48.008   5.139  15.914  0.00  0.00    +0.000 A 
ATOM      2  C   UNL     1      47.109   4.431  15.106  0.00  0.00    +0.000 A 
ATOM      3  C   UNL     1      46.755   4.905  13.838  0.00  0.00    +0.000 A 
ATOM      4  C   UNL     1      47.285   6.107  13.356  0.00  0.00    +0.000 A 
ATOM      5  C   UNL     1      48.194   6.808  14.161  0.00  0.00    +0.000 A 
ATOM      6  C   UNL     1      48.561   6.326  15.422  0.00  0.00    +0.000 A 
ENDROOT
BRANCH   1   7
ATOM      7  C   UNL     1      48.381   4.612  17.274  0.00  0.00    +0.000 C 
BRANCH   7  10
ATOM      8  O   UNL     1      49.941   4.776  19.558  0.00  0.00    +0.000 OA
ATOM      9  C   UNL     1      50.447   4.321  18.537  0.00  0.00    +0.000 C 
ATOM     10  N   UNL     1      49.767   4.242  17.348  0.00  0.00    +0.000 N 
ATOM     11  H   UNL     1      50.114   3.639  16.609  0.00  0.00    +0.000 HD
BRANCH   9  12
ATOM     12  C   UNL     1      51.832   3.852  18.511  0.00  0.00    +0.000 A 
ATOM     13  C   UNL     1      52.863   4.629  19.020  0.00  0.00    +0.000 A 
ATOM     14  S   UNL     1      54.385   3.855  18.949  0.00  0.00    +0.000 S 
ATOM     15  C   UNL     1      53.705   2.458  18.245  0.00  0.00    +0.000 A 
ATOM     16  N   UNL     1      54.469   1.369  17.964  0.00  0.00    +0.000 NA
ATOM     17  C   UNL     1      53.800   0.373  17.463  0.00  0.00    +0.000 A 
ATOM     18  N   UNL     1      52.452   0.381  17.207  0.00  0.00    +0.000 N 
ATOM     19  C   UNL     1      51.673   1.483  17.412  0.00  0.00    +0.000 A 
ATOM     20  O   UNL     1      50.498   1.485  17.051  0.00  0.00    +0.000 OA
ATOM     21  C   UNL     1      52.350   2.601  18.030  0.00  0.00    +0.000 A 
ATOM     22  H   UNL     1      52.003  -0.412  16.774  0.00  0.00    +0.000 HD
ENDBRANCH   9  12
ENDBRANCH   7  10
ENDBRANCH   1   7
BRANCH   4  23
ATOM     23  C   UNL     1      46.936   6.635  11.985  0.00  0.00    +0.000 C 
BRANCH  23  24
ATOM     24  C   UNL     1      45.744   7.616  11.906  0.00  0.00    +0.000 C 
BRANCH  24  25
ATOM     25  O   UNL     1      45.321   7.906  13.248  0.00  0.00    +0.000 OA
ATOM     26  H   UNL     1      45.919   8.570  13.629  0.00  0.00    +0.000 HD
ENDBRANCH  24  25
BRANCH  24  27
ATOM     27  C   UNL     1      44.559   7.069  11.072  0.00  0.00    +0.000 C 
BRANCH  27  28
ATOM     28  C   UNL     1      44.288   5.596  11.327  0.00  0.00    +0.000 A 
ATOM     29  C   UNL     1      43.631   5.165  12.490  0.00  0.00    +0.000 A 
ATOM     30  C   UNL     1      43.227   3.831  12.628  0.00  0.00    +0.000 A 
ATOM     31  C   UNL     1      43.508   2.908  11.624  0.00  0.00    +0.000 A 
ATOM     32  C   UNL     1      44.233   3.311  10.505  0.00  0.00    +0.000 A 
ATOM     33 CL   UNL     1      44.618   2.165   9.279  0.00  0.00    +0.000 Cl
ATOM     34  C   UNL     1      44.625   4.643  10.354  0.00  0.00    +0.000 A 
ENDBRANCH  27  28
ENDBRANCH  24  27
ENDBRANCH  23  24
ENDBRANCH   4  23
TORSDOF 8
ENDMDL
MODEL 9
REMARK VINA RESULT:    -6.662      5.697      7.118
REMARK INTER + INTRA:         -10.737
REMARK INTER:                  -9.489
REMARK INTRA:                  -1.248
REMARK UNBOUND:                -1.154
REMARK  Name = 
REMARK  8 active torsions:
REMARK  status: ('A' for Active; 'I' for Inactive)
REMARK    1  A    between atoms: C_2  and  C_22
REMARK    2  A    between atoms: N_3  and  C_4
REMARK    3  A    between atoms: C_4  and  C_5
REMARK    4  A    between atoms: C_8  and  C_9
REMARK    5  A    between atoms: C_9  and  C_10
REMARK    6  A    between atoms: C_10  and  O_11
REMARK    7  A    between atoms: C_10  and  C_12
REMARK    8  A    between atoms: C_12  and  C_13
REMARK                            x       y       z     vdW  Elec       q    Type
REMARK                         _______ _______ _______ _____ _____    ______ ____
ROOT
ATOM      1  C   UNL     1      49.002   7.396  12.589  0.00  0.00    +0.000 A 
ATOM      2  C   UNL     1      48.670   6.557  13.661  0.00  0.00    +0.000 A 
ATOM      3  C   UNL     1      47.476   5.827  13.660  0.00  0.00    +0.000 A 
ATOM      4  C   UNL     1      46.579   5.934  12.591  0.00  0.00    +0.000 A 
ATOM      5  C   UNL     1      46.918   6.765  11.513  0.00  0.00    +0.000 A 
ATOM      6  C   UNL     1      48.120   7.481  11.506  0.00  0.00    +0.000 A 
ENDROOT
BRANCH   1   7
ATOM      7  C   UNL     1      50.293   8.169  12.604  0.00  0.00    +0.000 C 
BRANCH   7  10
ATOM      8  O   UNL     1      52.568   9.637  12.018  0.00  0.00    +0.000 OA
ATOM      9  C   UNL     1      51.945   9.132  11.090  0.00  0.00    +0.000 C 
ATOM     10  N   UNL     1      50.783   8.426  11.279  0.00  0.00    +0.000 N 
ATOM     11  H   UNL     1      50.441   7.816  10.544  0.00  0.00    +0.000 HD
BRANCH   9  12
ATOM     12  C   UNL     1      52.387   9.271   9.703  0.00  0.00    +0.000 A 
ATOM     13  C   UNL     1      52.379  10.505   9.067  0.00  0.00    +0.000 A 
ATOM     14  S   UNL     1      53.001  10.445   7.477  0.00  0.00    +0.000 S 
ATOM     15  C   UNL     1      53.306   8.771   7.598  0.00  0.00    +0.000 A 
ATOM     16  N   UNL     1      53.891   8.086   6.580  0.00  0.00    +0.000 NA
ATOM     17  C   UNL     1      54.088   6.828   6.838  0.00  0.00    +0.000 A 
ATOM     18  N   UNL     1      53.739   6.201   8.007  0.00  0.00    +0.000 N 
ATOM     19  C   UNL     1      53.087   6.846   9.018  0.00  0.00    +0.000 A 
ATOM     20  O   UNL     1      52.682   6.215   9.993  0.00  0.00    +0.000 OA
ATOM     21  C   UNL     1      52.899   8.264   8.816  0.00  0.00    +0.000 A 
ATOM     22  H   UNL     1      53.880   5.209   8.124  0.00  0.00    +0.000 HD
ENDBRANCH   9  12
ENDBRANCH   7  10
ENDBRANCH   1   7
BRANCH   4  23
ATOM     23  C   UNL     1      45.291   5.146  12.553  0.00  0.00    +0.000 C 
BRANCH  23  24
ATOM     24  C   UNL     1      44.015   5.929  12.173  0.00  0.00    +0.000 C 
BRANCH  24  25
ATOM     25  O   UNL     1      43.110   5.869  13.288  0.00  0.00    +0.000 OA
ATOM     26  H   UNL     1      43.062   4.952  13.604  0.00  0.00    +0.000 HD
ENDBRANCH  24  25
BRANCH  24  27
ATOM     27  C   UNL     1      43.329   5.393  10.892  0.00  0.00    +0.000 C 
BRANCH  27  28
ATOM     28  C   UNL     1      44.144   4.318  10.192  0.00  0.00    +0.000 A 
ATOM     29  C   UNL     1      43.945   2.956  10.467  0.00  0.00    +0.000 A 
ATOM     30  C   UNL     1      44.570   1.974   9.688  0.00  0.00    +0.000 A 
ATOM     31  C   UNL     1      45.428   2.341   8.655  0.00  0.00    +0.000 A 
ATOM     32  C   UNL     1      45.695   3.689   8.431  0.00  0.00    +0.000 A 
ATOM     33 CL   UNL     1      46.786   4.148   7.181  0.00  0.00    +0.000 Cl
ATOM     34  C   UNL     1      45.062   4.675   9.194  0.00  0.00    +0.000 A 
ENDBRANCH  27  28
ENDBRANCH  24  27
ENDBRANCH  23  24
ENDBRANCH   4  23
TORSDOF 8
ENDMDL
