MODEL 1
REMARK VINA RESULT:    -8.932      0.000      0.000
REMARK INTER + INTRA:         -12.164
REMARK INTER:                 -11.542
REMARK INTRA:                  -0.622
REMARK UNBOUND:                -0.622
REMARK  Name = 
REMARK  5 active torsions:
REMARK  status: ('A' for Active; 'I' for Inactive)
REMARK    1  A    between atoms: C_2  and  C_4
REMARK    2  A    between atoms: C_7  and  O_8
REMARK    3  A    between atoms: O_8  and  C_9
REMARK    4  A    between atoms: C_9  and  C_10
REMARK    5  A    between atoms: C_14  and  C_15
REMARK                            x       y       z     vdW  Elec       q    Type
REMARK                         _______ _______ _______ _____ _____    ______ ____
ROOT
ATOM      1  C   UNL     1      43.510   4.257  11.121  0.00  0.00    +0.000 C 
ENDROOT
BRANCH   1   2
ATOM      2  C   UNL     1      44.729   4.670  11.902  0.00  0.00    +0.000 A 
ATOM      3  C   UNL     1      45.271   3.819  12.855  0.00  0.00    +0.000 A 
ATOM      4  N   UNL     1      46.378   4.100  13.574  0.00  0.00    +0.000 NA
ATOM      5  C   UNL     1      46.977   5.290  13.324  0.00  0.00    +0.000 A 
ATOM      6  C   UNL     1      46.554   6.224  12.375  0.00  0.00    +0.000 A 
ATOM      7  C   UNL     1      45.405   5.871  11.653  0.00  0.00    +0.000 A 
BRANCH   6   8
ATOM      8  C   UNL     1      47.262   7.501  12.141  0.00  0.00    +0.000 A 
ATOM      9  C   UNL     1      48.632   7.536  11.808  0.00  0.00    +0.000 A 
ATOM     10  C   UNL     1      49.302   8.745  11.587  0.00  0.00    +0.000 A 
ATOM     11  C   UNL     1      48.613   9.950  11.682  0.00  0.00    +0.000 A 
ATOM     12  C   UNL     1      47.264   9.933  12.003  0.00  0.00    +0.000 A 
ATOM     13  F   UNL     1      46.592  11.089  12.090  0.00  0.00    +0.000 F 
ATOM     14  C   UNL     1      46.594   8.735  12.236  0.00  0.00    +0.000 A 
ENDBRANCH   6   8
ENDBRANCH   1   2
BRANCH   1  15
ATOM     15  O   UNL     1      43.629   4.671   9.753  0.00  0.00    +0.000 OA
BRANCH  15  19
ATOM     16  C   UNL     1      46.394   2.391   7.731  0.00  0.00    +0.000 A 
ATOM     17  C   UNL     1      45.533   1.778   8.644  0.00  0.00    +0.000 A 
ATOM     18  C   UNL     1      44.598   2.561   9.327  0.00  0.00    +0.000 A 
ATOM     19  C   UNL     1      44.560   3.923   9.068  0.00  0.00    +0.000 A 
ATOM     20  N   UNL     1      45.386   4.539   8.194  0.00  0.00    +0.000 NA
ATOM     21  C   UNL     1      46.291   3.764   7.553  0.00  0.00    +0.000 A 
BRANCH  16  23
ATOM     22  N   UNL     1      48.475   2.388   6.477  0.00  0.00    +0.000 N 
ATOM     23  C   UNL     1      47.422   1.665   6.959  0.00  0.00    +0.000 C 
ATOM     24  O   UNL     1      47.356   0.453   6.797  0.00  0.00    +0.000 OA
ATOM     25  H   UNL     1      49.226   1.851   6.060  0.00  0.00    +0.000 HD
ATOM     26  H   UNL     1      48.695   3.316   6.809  0.00  0.00    +0.000 HD
ENDBRANCH  16  23
ENDBRANCH  15  19
ENDBRANCH   1  15
TORSDOF 5
ENDMDL
MODEL 2
REMARK VINA RESULT:    -8.753      1.610      1.845
REMARK INTER + INTRA:         -11.933
REMARK INTER:                 -11.128
REMARK INTRA:                  -0.804
REMARK UNBOUND:                -0.622
REMARK  Name = 
REMARK  5 active torsions:
REMARK  status: ('A' for Active; 'I' for Inactive)
REMARK    1  A    between atoms: C_2  and  C_4
REMARK    2  A    between atoms: C_7  and  O_8
REMARK    3  A    between atoms: O_8  and  C_9
REMARK    4  A    between atoms: C_9  and  C_10
REMARK    5  A    between atoms: C_14  and  C_15
REMARK                            x       y       z     vdW  Elec       q    Type
REMARK                         _______ _______ _______ _____ _____    ______ ____
ROOT
ATOM      1  C   UNL     1      43.783   5.177  10.636  0.00  0.00    +0.000 C 
ENDROOT
BRANCH   1   2
ATOM      2  C   UNL     1      44.813   5.163  11.733  0.00  0.00    +0.000 A 
ATOM      3  C   UNL     1      44.720   4.242  12.769  0.00  0.00    +0.000 A 
ATOM      4  N   UNL     1      45.618   4.142  13.771  0.00  0.00    +0.000 NA
ATOM      5  C   UNL     1      46.665   5.003  13.735  0.00  0.00    +0.000 A 
ATOM      6  C   UNL     1      46.893   5.956  12.740  0.00  0.00    +0.000 A 
ATOM      7  C   UNL     1      45.932   6.005  11.720  0.00  0.00    +0.000 A 
BRANCH   6   8
ATOM      8  C   UNL     1      48.066   6.857  12.751  0.00  0.00    +0.000 A 
ATOM      9  C   UNL     1      48.364   7.696  11.659  0.00  0.00    +0.000 A 
ATOM     10  C   UNL     1      49.475   8.548  11.671  0.00  0.00    +0.000 A 
ATOM     11  C   UNL     1      50.309   8.589  12.784  0.00  0.00    +0.000 A 
ATOM     12  C   UNL     1      50.027   7.774  13.869  0.00  0.00    +0.000 A 
ATOM     13  F   UNL     1      50.822   7.812  14.947  0.00  0.00    +0.000 F 
ATOM     14  C   UNL     1      48.931   6.916  13.860  0.00  0.00    +0.000 A 
ENDBRANCH   6   8
ENDBRANCH   1   2
BRANCH   1  15
ATOM     15  O   UNL     1      43.563   3.851  10.140  0.00  0.00    +0.000 OA
BRANCH  15  19
ATOM     16  C   UNL     1      46.506   2.634   7.534  0.00  0.00    +0.000 A 
ATOM     17  C   UNL     1      45.949   1.710   8.421  0.00  0.00    +0.000 A 
ATOM     18  C   UNL     1      44.951   2.133   9.304  0.00  0.00    +0.000 A 
ATOM     19  C   UNL     1      44.549   3.460   9.260  0.00  0.00    +0.000 A 
ATOM     20  N   UNL     1      45.077   4.373   8.415  0.00  0.00    +0.000 NA
ATOM     21  C   UNL     1      46.050   3.944   7.578  0.00  0.00    +0.000 A 
BRANCH  16  23
ATOM     22  N   UNL     1      47.658   3.069   5.439  0.00  0.00    +0.000 N 
ATOM     23  C   UNL     1      47.567   2.299   6.563  0.00  0.00    +0.000 C 
ATOM     24  O   UNL     1      48.364   1.396   6.779  0.00  0.00    +0.000 OA
ATOM     25  H   UNL     1      48.466   2.902   4.851  0.00  0.00    +0.000 HD
ATOM     26  H   UNL     1      47.200   3.966   5.356  0.00  0.00    +0.000 HD
ENDBRANCH  16  23
ENDBRANCH  15  19
ENDBRANCH   1  15
TORSDOF 5
ENDMDL
MODEL 3
REMARK VINA RESULT:    -8.324      3.840      6.985
REMARK INTER + INTRA:         -11.378
REMARK INTER:                 -10.540
REMARK INTRA:                  -0.839
REMARK UNBOUND:                -0.622
REMARK  Name = 
REMARK  5 active torsions:
REMARK  status: ('A' for Active; 'I' for Inactive)
REMARK    1  A    between atoms: C_2  and  C_4
REMARK    2  A    between atoms: C_7  and  O_8
REMARK    3  A    between atoms: O_8  and  C_9
REMARK    4  A    between atoms: C_9  and  C_10
REMARK    5  A    between atoms: C_14  and  C_15
REMARK                            x       y       z     vdW  Elec       q    Type
REMARK                         _______ _______ _______ _____ _____    ______ ____
ROOT
ATOM      1  C   UNL     1      44.057   6.680  11.366  0.00  0.00    +0.000 C 
ENDROOT
BRANCH   1   2
ATOM      2  C   UNL     1      44.054   5.221  10.996  0.00  0.00    +0.000 A 
ATOM      3  C   UNL     1      43.196   4.338  11.637  0.00  0.00    +0.000 A 
ATOM      4  N   UNL     1      43.110   3.024  11.343  0.00  0.00    +0.000 NA
ATOM      5  C   UNL     1      43.918   2.569  10.353  0.00  0.00    +0.000 A 
ATOM      6  C   UNL     1      44.804   3.353   9.611  0.00  0.00    +0.000 A 
ATOM      7  C   UNL     1      44.841   4.712   9.956  0.00  0.00    +0.000 A 
BRANCH   6   8
ATOM      8  C   UNL     1      45.649   2.797   8.532  0.00  0.00    +0.000 A 
ATOM      9  C   UNL     1      46.183   3.615   7.516  0.00  0.00    +0.000 A 
ATOM     10  C   UNL     1      46.982   3.088   6.494  0.00  0.00    +0.000 A 
ATOM     11  C   UNL     1      47.276   1.729   6.472  0.00  0.00    +0.000 A 
ATOM     12  C   UNL     1      46.763   0.910   7.467  0.00  0.00    +0.000 A 
ATOM     13  F   UNL     1      47.046  -0.399   7.456  0.00  0.00    +0.000 F 
ATOM     14  C   UNL     1      45.958   1.426   8.479  0.00  0.00    +0.000 A 
ENDBRANCH   6   8
ENDBRANCH   1   2
BRANCH   1  15
ATOM     15  O   UNL     1      44.577   6.859  12.689  0.00  0.00    +0.000 OA
BRANCH  15  19
ATOM     16  C   UNL     1      48.622   7.618  12.642  0.00  0.00    +0.000 A 
ATOM     17  C   UNL     1      47.734   8.593  12.182  0.00  0.00    +0.000 A 
ATOM     18  C   UNL     1      46.362   8.325  12.200  0.00  0.00    +0.000 A 
ATOM     19  C   UNL     1      45.935   7.097  12.681  0.00  0.00    +0.000 A 
ATOM     20  N   UNL     1      46.774   6.136  13.126  0.00  0.00    +0.000 NA
ATOM     21  C   UNL     1      48.098   6.413  13.088  0.00  0.00    +0.000 A 
BRANCH  16  23
ATOM     22  N   UNL     1      50.719   7.663  13.868  0.00  0.00    +0.000 N 
ATOM     23  C   UNL     1      50.088   7.790  12.664  0.00  0.00    +0.000 C 
ATOM     24  O   UNL     1      50.719   7.994  11.635  0.00  0.00    +0.000 OA
ATOM     25  H   UNL     1      51.731   7.661  13.839  0.00  0.00    +0.000 HD
ATOM     26  H   UNL     1      50.275   7.242  14.672  0.00  0.00    +0.000 HD
ENDBRANCH  16  23
ENDBRANCH  15  19
ENDBRANCH   1  15
TORSDOF 5
ENDMDL
MODEL 4
REMARK VINA RESULT:    -8.164      3.900      7.402
REMARK INTER + INTRA:         -11.171
REMARK INTER:                 -10.778
REMARK INTRA:                  -0.394
REMARK UNBOUND:                -0.622
REMARK  Name = 
REMARK  5 active torsions:
REMARK  status: ('A' for Active; 'I' for Inactive)
REMARK    1  A    between atoms: C_2  and  C_4
REMARK    2  A    between atoms: C_7  and  O_8
REMARK    3  A    between atoms: O_8  and  C_9
REMARK    4  A    between atoms: C_9  and  C_10
REMARK    5  A    between atoms: C_14  and  C_15
REMARK                            x       y       z     vdW  Elec       q    Type
REMARK                         _______ _______ _______ _____ _____    ______ ____
ROOT
ATOM      1  C   UNL     1      46.055   7.166  11.894  0.00  0.00    +0.000 C 
ENDROOT
BRANCH   1   2
ATOM      2  C   UNL     1      45.280   6.126  11.132  0.00  0.00    +0.000 A 
ATOM      3  C   UNL     1      43.907   6.009  11.305  0.00  0.00    +0.000 A 
ATOM      4  N   UNL     1      43.136   5.126  10.638  0.00  0.00    +0.000 NA
ATOM      5  C   UNL     1      43.767   4.321   9.748  0.00  0.00    +0.000 A 
ATOM      6  C   UNL     1      45.133   4.353   9.457  0.00  0.00    +0.000 A 
ATOM      7  C   UNL     1      45.880   5.299  10.175  0.00  0.00    +0.000 A 
BRANCH   6   8
ATOM      8  C   UNL     1      45.758   3.456   8.462  0.00  0.00    +0.000 A 
ATOM      9  C   UNL     1      46.334   3.954   7.276  0.00  0.00    +0.000 A 
ATOM     10  C   UNL     1      46.925   3.103   6.334  0.00  0.00    +0.000 A 
ATOM     11  C   UNL     1      46.965   1.732   6.563  0.00  0.00    +0.000 A 
ATOM     12  C   UNL     1      46.408   1.225   7.727  0.00  0.00    +0.000 A 
ATOM     13  F   UNL     1      46.447  -0.094   7.957  0.00  0.00    +0.000 F 
ATOM     14  C   UNL     1      45.808   2.064   8.663  0.00  0.00    +0.000 A 
ENDBRANCH   6   8
ENDBRANCH   1   2
BRANCH   1  15
ATOM     15  O   UNL     1      47.376   6.692  12.185  0.00  0.00    +0.000 OA
BRANCH  15  19
ATOM     16  C   UNL     1      47.573   4.742  15.804  0.00  0.00    +0.000 A 
ATOM     17  C   UNL     1      48.280   5.933  15.625  0.00  0.00    +0.000 A 
ATOM     18  C   UNL     1      48.208   6.587  14.392  0.00  0.00    +0.000 A 
ATOM     19  C   UNL     1      47.431   6.027  13.390  0.00  0.00    +0.000 A 
ATOM     20  N   UNL     1      46.742   4.873  13.537  0.00  0.00    +0.000 NA
ATOM     21  C   UNL     1      46.836   4.251  14.735  0.00  0.00    +0.000 A 
BRANCH  16  23
ATOM     22  N   UNL     1      48.619   4.171  17.921  0.00  0.00    +0.000 N 
ATOM     23  C   UNL     1      47.580   3.966  17.059  0.00  0.00    +0.000 C 
ATOM     24  O   UNL     1      46.666   3.201  17.339  0.00  0.00    +0.000 OA
ATOM     25  H   UNL     1      48.540   3.723  18.826  0.00  0.00    +0.000 HD
ATOM     26  H   UNL     1      49.236   4.969  17.849  0.00  0.00    +0.000 HD
ENDBRANCH  16  23
ENDBRANCH  15  19
ENDBRANCH   1  15
TORSDOF 5
ENDMDL
MODEL 5
REMARK VINA RESULT:    -7.529      4.252      7.913
REMARK INTER + INTRA:         -10.352
REMARK INTER:                  -9.794
REMARK INTRA:                  -0.558
REMARK UNBOUND:                -0.622
REMARK  Name = 
REMARK  5 active torsions:
REMARK  status: ('A' for Active; 'I' for Inactive)
REMARK    1  A    between atoms: C_2  and  C_4
REMARK    2  A    between atoms: C_7  and  O_8
REMARK    3  A    between atoms: O_8  and  C_9
REMARK    4  A    between atoms: C_9  and  C_10
REMARK    5  A    between atoms: C_14  and  C_15
REMARK                            x       y       z     vdW  Elec       q    Type
REMARK                         _______ _______ _______ _____ _____    ______ ____
ROOT
ATOM      1  C   UNL     1      45.444   4.329  13.548  0.00  0.00    +0.000 C 
ENDROOT
BRANCH   1   2
ATOM      2  C   UNL     1      44.881   4.328  12.153  0.00  0.00    +0.000 A 
ATOM      3  C   UNL     1      43.727   5.044  11.863  0.00  0.00    +0.000 A 
ATOM      4  N   UNL     1      43.177   5.120  10.633  0.00  0.00    +0.000 NA
ATOM      5  C   UNL     1      43.815   4.452   9.641  0.00  0.00    +0.000 A 
ATOM      6  C   UNL     1      44.995   3.719   9.789  0.00  0.00    +0.000 A 
ATOM      7  C   UNL     1      45.524   3.685  11.088  0.00  0.00    +0.000 A 
BRANCH   6   8
ATOM      8  C   UNL     1      45.650   3.024   8.660  0.00  0.00    +0.000 A 
ATOM      9  C   UNL     1      45.920   1.641   8.700  0.00  0.00    +0.000 A 
ATOM     10  C   UNL     1      46.541   0.984   7.631  0.00  0.00    +0.000 A 
ATOM     11  C   UNL     1      46.895   1.694   6.489  0.00  0.00    +0.000 A 
ATOM     12  C   UNL     1      46.632   3.054   6.431  0.00  0.00    +0.000 A 
ATOM     13  F   UNL     1      46.965   3.744   5.332  0.00  0.00    +0.000 F 
ATOM     14  C   UNL     1      46.026   3.717   7.495  0.00  0.00    +0.000 A 
ENDBRANCH   6   8
ENDBRANCH   1   2
BRANCH   1  15
ATOM     15  O   UNL     1      46.866   4.151  13.514  0.00  0.00    +0.000 OA
BRANCH  15  19
ATOM     16  C   UNL     1      48.470   3.942  17.297  0.00  0.00    +0.000 A 
ATOM     17  C   UNL     1      48.073   5.180  16.787  0.00  0.00    +0.000 A 
ATOM     18  C   UNL     1      47.531   5.241  15.500  0.00  0.00    +0.000 A 
ATOM     19  C   UNL     1      47.405   4.063  14.779  0.00  0.00    +0.000 A 
ATOM     20  N   UNL     1      47.787   2.855  15.249  0.00  0.00    +0.000 NA
ATOM     21  C   UNL     1      48.320   2.821  16.492  0.00  0.00    +0.000 A 
BRANCH  16  23
ATOM     22  N   UNL     1      48.253   3.251  19.617  0.00  0.00    +0.000 N 
ATOM     23  C   UNL     1      49.060   3.760  18.639  0.00  0.00    +0.000 C 
ATOM     24  O   UNL     1      50.237   4.013  18.855  0.00  0.00    +0.000 OA
ATOM     25  H   UNL     1      48.710   3.019  20.491  0.00  0.00    +0.000 HD
ATOM     26  H   UNL     1      47.376   2.792  19.414  0.00  0.00    +0.000 HD
ENDBRANCH  16  23
ENDBRANCH  15  19
ENDBRANCH   1  15
TORSDOF 5
ENDMDL
MODEL 6
REMARK VINA RESULT:    -7.039      4.481      8.225
REMARK INTER + INTRA:          -9.719
REMARK INTER:                  -9.031
REMARK INTRA:                  -0.688
REMARK UNBOUND:                -0.622
REMARK  Name = 
REMARK  5 active torsions:
REMARK  status: ('A' for Active; 'I' for Inactive)
REMARK    1  A    between atoms: C_2  and  C_4
REMARK    2  A    between atoms: C_7  and  O_8
REMARK    3  A    between atoms: O_8  and  C_9
REMARK    4  A    between atoms: C_9  and  C_10
REMARK    5  A    between atoms: C_14  and  C_15
REMARK                            x       y       z     vdW  Elec       q    Type
REMARK                         _______ _______ _______ _____ _____    ______ ____
ROOT
ATOM      1  C   UNL     1      48.219   7.544  13.801  0.00  0.00    +0.000 C 
ENDROOT
BRANCH   1   2
ATOM      2  C   UNL     1      46.985   7.448  12.945  0.00  0.00    +0.000 A 
ATOM      3  C   UNL     1      46.108   8.521  12.857  0.00  0.00    +0.000 A 
ATOM      4  N   UNL     1      44.999   8.527  12.090  0.00  0.00    +0.000 NA
ATOM      5  C   UNL     1      44.755   7.406  11.367  0.00  0.00    +0.000 A 
ATOM      6  C   UNL     1      45.567   6.270  11.341  0.00  0.00    +0.000 A 
ATOM      7  C   UNL     1      46.710   6.327  12.152  0.00  0.00    +0.000 A 
BRANCH   6   8
ATOM      8  C   UNL     1      45.251   5.082  10.519  0.00  0.00    +0.000 A 
ATOM      9  C   UNL     1      44.531   3.989  11.043  0.00  0.00    +0.000 A 
ATOM     10  C   UNL     1      44.234   2.865  10.263  0.00  0.00    +0.000 A 
ATOM     11  C   UNL     1      44.640   2.813   8.934  0.00  0.00    +0.000 A 
ATOM     12  C   UNL     1      45.344   3.882   8.401  0.00  0.00    +0.000 A 
ATOM     13  F   UNL     1      45.734   3.841   7.119  0.00  0.00    +0.000 F 
ATOM     14  C   UNL     1      45.654   4.998   9.173  0.00  0.00    +0.000 A 
ENDBRANCH   6   8
ENDBRANCH   1   2
BRANCH   1  15
ATOM     15  O   UNL     1      48.694   6.235  14.142  0.00  0.00    +0.000 OA
BRANCH  15  19
ATOM     16  C   UNL     1      48.299   5.497  18.170  0.00  0.00    +0.000 A 
ATOM     17  C   UNL     1      48.751   6.747  17.742  0.00  0.00    +0.000 A 
ATOM     18  C   UNL     1      48.883   6.988  16.372  0.00  0.00    +0.000 A 
ATOM     19  C   UNL     1      48.555   5.971  15.487  0.00  0.00    +0.000 A 
ATOM     20  N   UNL     1      48.122   4.752  15.877  0.00  0.00    +0.000 NA
ATOM     21  C   UNL     1      48.012   4.538  17.209  0.00  0.00    +0.000 A 
BRANCH  16  23
ATOM     22  N   UNL     1      48.528   3.883  19.972  0.00  0.00    +0.000 N 
ATOM     23  C   UNL     1      48.126   5.131  19.590  0.00  0.00    +0.000 C 
ATOM     24  O   UNL     1      47.683   5.931  20.403  0.00  0.00    +0.000 OA
ATOM     25  H   UNL     1      48.516   3.699  20.968  0.00  0.00    +0.000 HD
ATOM     26  H   UNL     1      49.129   3.306  19.400  0.00  0.00    +0.000 HD
ENDBRANCH  16  23
ENDBRANCH  15  19
ENDBRANCH   1  15
TORSDOF 5
ENDMDL
MODEL 7
REMARK VINA RESULT:    -6.680      3.105      4.220
REMARK INTER + INTRA:          -9.254
REMARK INTER:                  -8.667
REMARK INTRA:                  -0.587
REMARK UNBOUND:                -0.622
REMARK  Name = 
REMARK  5 active torsions:
REMARK  status: ('A' for Active; 'I' for Inactive)
REMARK    1  A    between atoms: C_2  and  C_4
REMARK    2  A    between atoms: C_7  and  O_8
REMARK    3  A    between atoms: O_8  and  C_9
REMARK    4  A    between atoms: C_9  and  C_10
REMARK    5  A    between atoms: C_14  and  C_15
REMARK                            x       y       z     vdW  Elec       q    Type
REMARK                         _______ _______ _______ _____ _____    ______ ____
ROOT
ATOM      1  C   UNL     1      44.607   6.476  11.512  0.00  0.00    +0.000 C 
ENDROOT
BRANCH   1   2
ATOM      2  C   UNL     1      45.983   6.453  12.120  0.00  0.00    +0.000 A 
ATOM      3  C   UNL     1      47.058   7.012  11.440  0.00  0.00    +0.000 A 
ATOM      4  N   UNL     1      48.315   7.061  11.928  0.00  0.00    +0.000 NA
ATOM      5  C   UNL     1      48.508   6.530  13.161  0.00  0.00    +0.000 A 
ATOM      6  C   UNL     1      47.513   5.965  13.962  0.00  0.00    +0.000 A 
ATOM      7  C   UNL     1      46.225   5.952  13.405  0.00  0.00    +0.000 A 
BRANCH   6   8
ATOM      8  C   UNL     1      47.787   5.416  15.307  0.00  0.00    +0.000 A 
ATOM      9  C   UNL     1      48.648   6.070  16.212  0.00  0.00    +0.000 A 
ATOM     10  C   UNL     1      48.908   5.548  17.484  0.00  0.00    +0.000 A 
ATOM     11  C   UNL     1      48.301   4.364  17.888  0.00  0.00    +0.000 A 
ATOM     12  C   UNL     1      47.447   3.710  17.013  0.00  0.00    +0.000 A 
ATOM     13  F   UNL     1      46.854   2.571  17.397  0.00  0.00    +0.000 F 
ATOM     14  C   UNL     1      47.193   4.216  15.742  0.00  0.00    +0.000 A 
ENDBRANCH   6   8
ENDBRANCH   1   2
BRANCH   1  15
ATOM     15  O   UNL     1      44.081   5.146  11.417  0.00  0.00    +0.000 OA
BRANCH  15  19
ATOM     16  C   UNL     1      45.814   2.972   8.383  0.00  0.00    +0.000 A 
ATOM     17  C   UNL     1      45.305   2.307   9.501  0.00  0.00    +0.000 A 
ATOM     18  C   UNL     1      44.720   3.054  10.527  0.00  0.00    +0.000 A 
ATOM     19  C   UNL     1      44.664   4.433  10.392  0.00  0.00    +0.000 A 
ATOM     20  N   UNL     1      45.154   5.099   9.323  0.00  0.00    +0.000 NA
ATOM     21  C   UNL     1      45.727   4.357   8.347  0.00  0.00    +0.000 A 
BRANCH  16  23
ATOM     22  N   UNL     1      46.850   0.992   7.430  0.00  0.00    +0.000 N 
ATOM     23  C   UNL     1      46.456   2.286   7.244  0.00  0.00    +0.000 C 
ATOM     24  O   UNL     1      46.590   2.841   6.162  0.00  0.00    +0.000 OA
ATOM     25  H   UNL     1      47.173   0.504   6.603  0.00  0.00    +0.000 HD
ATOM     26  H   UNL     1      46.524   0.430   8.204  0.00  0.00    +0.000 HD
ENDBRANCH  16  23
ENDBRANCH  15  19
ENDBRANCH   1  15
TORSDOF 5
ENDMDL
MODEL 8
REMARK VINA RESULT:    -5.986      4.540      7.196
REMARK INTER + INTRA:          -8.357
REMARK INTER:                  -7.683
REMARK INTRA:                  -0.674
REMARK UNBOUND:                -0.622
REMARK  Name = 
REMARK  5 active torsions:
REMARK  status: ('A' for Active; 'I' for Inactive)
REMARK    1  A    between atoms: C_2  and  C_4
REMARK    2  A    between atoms: C_7  and  O_8
REMARK    3  A    between atoms: O_8  and  C_9
REMARK    4  A    between atoms: C_9  and  C_10
REMARK    5  A    between atoms: C_14  and  C_15
REMARK                            x       y       z     vdW  Elec       q    Type
REMARK                         _______ _______ _______ _____ _____    ______ ____
ROOT
ATOM      1  C   UNL     1      48.644   7.960  12.710  0.00  0.00    +0.000 C 
ENDROOT
BRANCH   1   2
ATOM      2  C   UNL     1      47.241   7.664  12.254  0.00  0.00    +0.000 A 
ATOM      3  C   UNL     1      46.223   8.581  12.482  0.00  0.00    +0.000 A 
ATOM      4  N   UNL     1      44.947   8.406  12.078  0.00  0.00    +0.000 NA
ATOM      5  C   UNL     1      44.675   7.259  11.407  0.00  0.00    +0.000 A 
ATOM      6  C   UNL     1      45.608   6.270  11.088  0.00  0.00    +0.000 A 
ATOM      7  C   UNL     1      46.918   6.513  11.525  0.00  0.00    +0.000 A 
BRANCH   6   8
ATOM      8  C   UNL     1      45.248   5.046  10.339  0.00  0.00    +0.000 A 
ATOM      9  C   UNL     1      44.517   4.001  10.939  0.00  0.00    +0.000 A 
ATOM     10  C   UNL     1      44.178   2.843  10.229  0.00  0.00    +0.000 A 
ATOM     11  C   UNL     1      44.553   2.708   8.897  0.00  0.00    +0.000 A 
ATOM     12  C   UNL     1      45.268   3.729   8.290  0.00  0.00    +0.000 A 
ATOM     13  F   UNL     1      45.628   3.609   7.005  0.00  0.00    +0.000 F 
ATOM     14  C   UNL     1      45.619   4.879   8.992  0.00  0.00    +0.000 A 
ENDBRANCH   6   8
ENDBRANCH   1   2
BRANCH   1  15
ATOM     15  O   UNL     1      49.119   9.172  12.109  0.00  0.00    +0.000 OA
BRANCH  15  19
ATOM     16  C   UNL     1      52.570   8.519   9.966  0.00  0.00    +0.000 A 
ATOM     17  C   UNL     1      51.816   7.428  10.404  0.00  0.00    +0.000 A 
ATOM     18  C   UNL     1      50.647   7.660  11.133  0.00  0.00    +0.000 A 
ATOM     19  C   UNL     1      50.277   8.972  11.390  0.00  0.00    +0.000 A 
ATOM     20  N   UNL     1      50.993  10.043  10.982  0.00  0.00    +0.000 NA
ATOM     21  C   UNL     1      52.128   9.794  10.289  0.00  0.00    +0.000 A 
BRANCH  16  23
ATOM     22  N   UNL     1      53.996   9.232   8.132  0.00  0.00    +0.000 N 
ATOM     23  C   UNL     1      53.823   8.392   9.195  0.00  0.00    +0.000 C 
ATOM     24  O   UNL     1      54.693   7.597   9.523  0.00  0.00    +0.000 OA
ATOM     25  H   UNL     1      54.910   9.212   7.696  0.00  0.00    +0.000 HD
ATOM     26  H   UNL     1      53.433  10.060   7.996  0.00  0.00    +0.000 HD
ENDBRANCH  16  23
ENDBRANCH  15  19
ENDBRANCH   1  15
TORSDOF 5
ENDMDL
