MODEL 1
REMARK VINA RESULT:    -7.938      0.000      0.000
REMARK INTER + INTRA:         -10.770
REMARK INTER:                 -10.491
REMARK INTRA:                  -0.279
REMARK UNBOUND:                -0.279
REMARK  Name = 
REMARK  6 active torsions:
REMARK  status: ('A' for Active; 'I' for Inactive)
REMARK    1  A    between atoms: N_1  and  C_2
REMARK    2  A    between atoms: C_2  and  C_3
REMARK    3  A    between atoms: C_3  and  C_4
REMARK    4  A    between atoms: C_7  and  C_8
REMARK    5  A    between atoms: C_8  and  N_9
REMARK    6  A    between atoms: C_15  and  N_16
REMARK                            x       y       z     vdW  Elec       q    Type
REMARK                         _______ _______ _______ _____ _____    ______ ____
ROOT
ATOM      1  C   UNL     1      44.540   5.029  11.417  0.00  0.00    +0.000 C 
ENDROOT
BRANCH   1   2
ATOM      2  N   UNL     1      45.547   5.929  11.969  0.00  0.00    +0.000 N 
ATOM      3  C   UNL     1      45.762   7.209  11.515  0.00  0.00    +0.000 A 
ATOM      4  C   UNL     1      46.690   7.805  12.339  0.00  0.00    +0.000 A 
ATOM      5  C   UNL     1      47.049   6.864  13.338  0.00  0.00    +0.000 A 
ATOM      6  C   UNL     1      47.919   6.916  14.448  0.00  0.00    +0.000 A 
ATOM      7  C   UNL     1      48.054   5.797  15.278  0.00  0.00    +0.000 A 
ATOM      8  C   UNL     1      47.337   4.631  14.998  0.00  0.00    +0.000 A 
ATOM      9  C   UNL     1      46.468   4.549  13.895  0.00  0.00    +0.000 A 
ATOM     10  C   UNL     1      46.333   5.688  13.082  0.00  0.00    +0.000 A 
BRANCH   8  11
ATOM     11  N   UNL     1      47.480   3.465  15.881  0.00  0.00    +0.000 N 
ATOM     12  O   UNL     1      46.717   3.378  16.854  0.00  0.00    +0.000 OA
ATOM     13  O   UNL     1      48.354   2.633  15.599  0.00  0.00    +0.000 OA
ENDBRANCH   8  11
ENDBRANCH   1   2
BRANCH   1  17
ATOM     14  C   UNL     1      45.890   3.222   7.799  0.00  0.00    +0.000 A 
ATOM     15  C   UNL     1      45.291   2.411   8.758  0.00  0.00    +0.000 A 
ATOM     16  C   UNL     1      44.843   2.987   9.945  0.00  0.00    +0.000 A 
ATOM     17  C   UNL     1      45.005   4.358  10.157  0.00  0.00    +0.000 A 
ATOM     18  C   UNL     1      45.624   5.085   9.145  0.00  0.00    +0.000 A 
ATOM     19  N   UNL     1      46.065   4.551   7.983  0.00  0.00    +0.000 NA
BRANCH  14  20
ATOM     20  C   UNL     1      46.397   2.633   6.507  0.00  0.00    +0.000 C 
BRANCH  20  21
ATOM     21  C   UNL     1      47.595   1.713   6.746  0.00  0.00    +0.000 C 
BRANCH  21  22
ATOM     22  N   UNL     1      48.593   1.859   5.683  0.00  0.00    +0.000 NA
ATOM     23  H   UNL     1      48.871   0.933   5.360  0.00  0.00    +0.000 HD
ATOM     24  H   UNL     1      49.436   2.285   6.071  0.00  0.00    +0.000 HD
ENDBRANCH  21  22
ENDBRANCH  20  21
ENDBRANCH  14  20
ENDBRANCH   1  17
TORSDOF 6
ENDMDL
MODEL 2
REMARK VINA RESULT:    -7.884      3.102      3.924
REMARK INTER + INTRA:         -10.698
REMARK INTER:                 -10.066
REMARK INTRA:                  -0.632
REMARK UNBOUND:                -0.279
REMARK  Name = 
REMARK  6 active torsions:
REMARK  status: ('A' for Active; 'I' for Inactive)
REMARK    1  A    between atoms: N_1  and  C_2
REMARK    2  A    between atoms: C_2  and  C_3
REMARK    3  A    between atoms: C_3  and  C_4
REMARK    4  A    between atoms: C_7  and  C_8
REMARK    5  A    between atoms: C_8  and  N_9
REMARK    6  A    between atoms: C_15  and  N_16
REMARK                            x       y       z     vdW  Elec       q    Type
REMARK                         _______ _______ _______ _____ _____    ______ ____
ROOT
ATOM      1  C   UNL     1      44.212   4.837  11.398  0.00  0.00    +0.000 C 
ENDROOT
BRANCH   1   2
ATOM      2  N   UNL     1      45.256   5.314  12.300  0.00  0.00    +0.000 N 
ATOM      3  C   UNL     1      46.102   4.486  13.000  0.00  0.00    +0.000 A 
ATOM      4  C   UNL     1      47.030   5.269  13.646  0.00  0.00    +0.000 A 
ATOM      5  C   UNL     1      46.753   6.623  13.324  0.00  0.00    +0.000 A 
ATOM      6  C   UNL     1      47.372   7.845  13.664  0.00  0.00    +0.000 A 
ATOM      7  C   UNL     1      46.857   9.047  13.166  0.00  0.00    +0.000 A 
ATOM      8  C   UNL     1      45.729   9.034  12.343  0.00  0.00    +0.000 A 
ATOM      9  C   UNL     1      45.087   7.832  11.992  0.00  0.00    +0.000 A 
ATOM     10  C   UNL     1      45.628   6.633  12.490  0.00  0.00    +0.000 A 
BRANCH   8  11
ATOM     11  N   UNL     1      45.201  10.302  11.819  0.00  0.00    +0.000 N 
ATOM     12  O   UNL     1      45.931  10.966  11.068  0.00  0.00    +0.000 OA
ATOM     13  O   UNL     1      44.055  10.632  12.155  0.00  0.00    +0.000 OA
ENDBRANCH   8  11
ENDBRANCH   1   2
BRANCH   1  17
ATOM     14  C   UNL     1      45.844   3.273   7.784  0.00  0.00    +0.000 A 
ATOM     15  C   UNL     1      45.148   2.408   8.623  0.00  0.00    +0.000 A 
ATOM     16  C   UNL     1      44.608   2.905   9.807  0.00  0.00    +0.000 A 
ATOM     17  C   UNL     1      44.774   4.252  10.137  0.00  0.00    +0.000 A 
ATOM     18  C   UNL     1      45.492   5.037   9.240  0.00  0.00    +0.000 A 
ATOM     19  N   UNL     1      46.025   4.581   8.083  0.00  0.00    +0.000 NA
BRANCH  14  20
ATOM     20  C   UNL     1      46.451   2.771   6.499  0.00  0.00    +0.000 C 
BRANCH  20  21
ATOM     21  C   UNL     1      47.593   1.789   6.770  0.00  0.00    +0.000 C 
BRANCH  21  22
ATOM     22  N   UNL     1      48.597   1.839   5.704  0.00  0.00    +0.000 NA
ATOM     23  H   UNL     1      49.469   1.442   6.051  0.00  0.00    +0.000 HD
ATOM     24  H   UNL     1      48.802   2.814   5.483  0.00  0.00    +0.000 HD
ENDBRANCH  21  22
ENDBRANCH  20  21
ENDBRANCH  14  20
ENDBRANCH   1  17
TORSDOF 6
ENDMDL
MODEL 3
REMARK VINA RESULT:    -7.355      1.545      1.980
REMARK INTER + INTRA:          -9.999
REMARK INTER:                  -9.604
REMARK INTRA:                  -0.395
REMARK UNBOUND:                -0.279
REMARK  Name = 
REMARK  6 active torsions:
REMARK  status: ('A' for Active; 'I' for Inactive)
REMARK    1  A    between atoms: N_1  and  C_2
REMARK    2  A    between atoms: C_2  and  C_3
REMARK    3  A    between atoms: C_3  and  C_4
REMARK    4  A    between atoms: C_7  and  C_8
REMARK    5  A    between atoms: C_8  and  N_9
REMARK    6  A    between atoms: C_15  and  N_16
REMARK                            x       y       z     vdW  Elec       q    Type
REMARK                         _______ _______ _______ _____ _____    ______ ____
ROOT
ATOM      1  C   UNL     1      44.259   4.896  11.363  0.00  0.00    +0.000 C 
ENDROOT
BRANCH   1   2
ATOM      2  N   UNL     1      44.623   6.297  11.550  0.00  0.00    +0.000 N 
ATOM      3  C   UNL     1      43.901   7.351  11.040  0.00  0.00    +0.000 A 
ATOM      4  C   UNL     1      44.458   8.518  11.511  0.00  0.00    +0.000 A 
ATOM      5  C   UNL     1      45.550   8.170  12.346  0.00  0.00    +0.000 A 
ATOM      6  C   UNL     1      46.462   8.927  13.113  0.00  0.00    +0.000 A 
ATOM      7  C   UNL     1      47.448   8.277  13.862  0.00  0.00    +0.000 A 
ATOM      8  C   UNL     1      47.532   6.883  13.842  0.00  0.00    +0.000 A 
ATOM      9  C   UNL     1      46.641   6.102  13.083  0.00  0.00    +0.000 A 
ATOM     10  C   UNL     1      45.648   6.773  12.349  0.00  0.00    +0.000 A 
BRANCH   8  11
ATOM     11  N   UNL     1      48.566   6.208  14.640  0.00  0.00    +0.000 N 
ATOM     12  O   UNL     1      49.682   6.744  14.714  0.00  0.00    +0.000 OA
ATOM     13  O   UNL     1      48.261   5.144  15.197  0.00  0.00    +0.000 OA
ENDBRANCH   8  11
ENDBRANCH   1   2
BRANCH   1  17
ATOM     14  C   UNL     1      45.930   3.363   7.754  0.00  0.00    +0.000 A 
ATOM     15  C   UNL     1      45.182   2.503   8.553  0.00  0.00    +0.000 A 
ATOM     16  C   UNL     1      44.629   2.989   9.735  0.00  0.00    +0.000 A 
ATOM     17  C   UNL     1      44.833   4.322  10.102  0.00  0.00    +0.000 A 
ATOM     18  C   UNL     1      45.601   5.102   9.244  0.00  0.00    +0.000 A 
ATOM     19  N   UNL     1      46.148   4.655   8.090  0.00  0.00    +0.000 NA
BRANCH  14  20
ATOM     20  C   UNL     1      46.553   2.869   6.473  0.00  0.00    +0.000 C 
BRANCH  20  21
ATOM     21  C   UNL     1      47.814   2.048   6.747  0.00  0.00    +0.000 C 
BRANCH  21  22
ATOM     22  N   UNL     1      48.563   1.803   5.513  0.00  0.00    +0.000 NA
ATOM     23  H   UNL     1      49.510   1.508   5.752  0.00  0.00    +0.000 HD
ATOM     24  H   UNL     1      48.665   2.680   5.002  0.00  0.00    +0.000 HD
ENDBRANCH  21  22
ENDBRANCH  20  21
ENDBRANCH  14  20
ENDBRANCH   1  17
TORSDOF 6
ENDMDL
MODEL 4
REMARK VINA RESULT:    -7.132      2.839      3.578
REMARK INTER + INTRA:          -9.704
REMARK INTER:                  -9.077
REMARK INTRA:                  -0.627
REMARK UNBOUND:                -0.279
REMARK  Name = 
REMARK  6 active torsions:
REMARK  status: ('A' for Active; 'I' for Inactive)
REMARK    1  A    between atoms: N_1  and  C_2
REMARK    2  A    between atoms: C_2  and  C_3
REMARK    3  A    between atoms: C_3  and  C_4
REMARK    4  A    between atoms: C_7  and  C_8
REMARK    5  A    between atoms: C_8  and  N_9
REMARK    6  A    between atoms: C_15  and  N_16
REMARK                            x       y       z     vdW  Elec       q    Type
REMARK                         _______ _______ _______ _____ _____    ______ ____
ROOT
ATOM      1  C   UNL     1      44.562   5.361  11.030  0.00  0.00    +0.000 C 
ENDROOT
BRANCH   1   2
ATOM      2  N   UNL     1      45.403   5.339  12.223  0.00  0.00    +0.000 N 
ATOM      3  C   UNL     1      45.359   4.347  13.173  0.00  0.00    +0.000 A 
ATOM      4  C   UNL     1      46.364   4.581  14.083  0.00  0.00    +0.000 A 
ATOM      5  C   UNL     1      47.056   5.750  13.673  0.00  0.00    +0.000 A 
ATOM      6  C   UNL     1      48.171   6.446  14.187  0.00  0.00    +0.000 A 
ATOM      7  C   UNL     1      48.638   7.591  13.532  0.00  0.00    +0.000 A 
ATOM      8  C   UNL     1      47.993   8.047  12.380  0.00  0.00    +0.000 A 
ATOM      9  C   UNL     1      46.875   7.378  11.849  0.00  0.00    +0.000 A 
ATOM     10  C   UNL     1      46.431   6.220  12.511  0.00  0.00    +0.000 A 
BRANCH   8  11
ATOM     11  N   UNL     1      48.496   9.246  11.696  0.00  0.00    +0.000 N 
ATOM     12  O   UNL     1      47.717  10.199  11.548  0.00  0.00    +0.000 OA
ATOM     13  O   UNL     1      49.674   9.237  11.310  0.00  0.00    +0.000 OA
ENDBRANCH   8  11
ENDBRANCH   1   2
BRANCH   1  17
ATOM     14  C   UNL     1      46.003   2.705   8.022  0.00  0.00    +0.000 A 
ATOM     15  C   UNL     1      46.267   4.064   7.884  0.00  0.00    +0.000 A 
ATOM     16  C   UNL     1      45.804   4.945   8.859  0.00  0.00    +0.000 A 
ATOM     17  C   UNL     1      45.082   4.456   9.951  0.00  0.00    +0.000 A 
ATOM     18  C   UNL     1      44.860   3.084   9.998  0.00  0.00    +0.000 A 
ATOM     19  N   UNL     1      45.300   2.207   9.066  0.00  0.00    +0.000 NA
BRANCH  14  20
ATOM     20  C   UNL     1      46.479   1.723   6.982  0.00  0.00    +0.000 C 
BRANCH  20  21
ATOM     21  C   UNL     1      48.003   1.745   6.852  0.00  0.00    +0.000 C 
BRANCH  21  22
ATOM     22  N   UNL     1      48.411   1.977   5.464  0.00  0.00    +0.000 NA
ATOM     23  H   UNL     1      48.401   2.979   5.278  0.00  0.00    +0.000 HD
ATOM     24  H   UNL     1      47.716   1.570   4.837  0.00  0.00    +0.000 HD
ENDBRANCH  21  22
ENDBRANCH  20  21
ENDBRANCH  14  20
ENDBRANCH   1  17
TORSDOF 6
ENDMDL
MODEL 5
REMARK VINA RESULT:    -6.761      3.295      7.018
REMARK INTER + INTRA:          -9.214
REMARK INTER:                  -8.377
REMARK INTRA:                  -0.837
REMARK UNBOUND:                -0.279
REMARK  Name = 
REMARK  6 active torsions:
REMARK  status: ('A' for Active; 'I' for Inactive)
REMARK    1  A    between atoms: N_1  and  C_2
REMARK    2  A    between atoms: C_2  and  C_3
REMARK    3  A    between atoms: C_3  and  C_4
REMARK    4  A    between atoms: C_7  and  C_8
REMARK    5  A    between atoms: C_8  and  N_9
REMARK    6  A    between atoms: C_15  and  N_16
REMARK                            x       y       z     vdW  Elec       q    Type
REMARK                         _______ _______ _______ _____ _____    ______ ____
ROOT
ATOM      1  C   UNL     1      45.252   7.142  11.728  0.00  0.00    +0.000 C 
ENDROOT
BRANCH   1   2
ATOM      2  N   UNL     1      44.672   5.806  11.830  0.00  0.00    +0.000 N 
ATOM      3  C   UNL     1      43.813   5.418  12.832  0.00  0.00    +0.000 A 
ATOM      4  C   UNL     1      43.370   4.147  12.546  0.00  0.00    +0.000 A 
ATOM      5  C   UNL     1      43.967   3.745  11.324  0.00  0.00    +0.000 A 
ATOM      6  C   UNL     1      43.868   2.578  10.536  0.00  0.00    +0.000 A 
ATOM      7  C   UNL     1      44.590   2.483   9.341  0.00  0.00    +0.000 A 
ATOM      8  C   UNL     1      45.413   3.537   8.938  0.00  0.00    +0.000 A 
ATOM      9  C   UNL     1      45.536   4.709   9.705  0.00  0.00    +0.000 A 
ATOM     10  C   UNL     1      44.791   4.793  10.895  0.00  0.00    +0.000 A 
BRANCH   8  11
ATOM     11  N   UNL     1      46.161   3.430   7.677  0.00  0.00    +0.000 N 
ATOM     12  O   UNL     1      46.491   4.481   7.109  0.00  0.00    +0.000 OA
ATOM     13  O   UNL     1      46.421   2.293   7.257  0.00  0.00    +0.000 OA
ENDBRANCH   8  11
ENDBRANCH   1   2
BRANCH   1  17
ATOM     14  C   UNL     1      48.826   7.447  14.031  0.00  0.00    +0.000 A 
ATOM     15  C   UNL     1      47.911   8.494  14.091  0.00  0.00    +0.000 A 
ATOM     16  C   UNL     1      46.738   8.408  13.344  0.00  0.00    +0.000 A 
ATOM     17  C   UNL     1      46.499   7.284  12.550  0.00  0.00    +0.000 A 
ATOM     18  C   UNL     1      47.476   6.294  12.548  0.00  0.00    +0.000 A 
ATOM     19  N   UNL     1      48.622   6.351  13.264  0.00  0.00    +0.000 NA
BRANCH  14  20
ATOM     20  C   UNL     1      50.112   7.508  14.816  0.00  0.00    +0.000 C 
BRANCH  20  21
ATOM     21  C   UNL     1      49.941   6.907  16.212  0.00  0.00    +0.000 C 
BRANCH  21  22
ATOM     22  N   UNL     1      49.237   5.623  16.153  0.00  0.00    +0.000 NA
ATOM     23  H   UNL     1      49.812   4.908  16.597  0.00  0.00    +0.000 HD
ATOM     24  H   UNL     1      49.142   5.338  15.177  0.00  0.00    +0.000 HD
ENDBRANCH  21  22
ENDBRANCH  20  21
ENDBRANCH  14  20
ENDBRANCH   1  17
TORSDOF 6
ENDMDL
MODEL 6
REMARK VINA RESULT:    -6.580      3.657      7.516
REMARK INTER + INTRA:          -8.974
REMARK INTER:                  -8.498
REMARK INTRA:                  -0.476
REMARK UNBOUND:                -0.279
REMARK  Name = 
REMARK  6 active torsions:
REMARK  status: ('A' for Active; 'I' for Inactive)
REMARK    1  A    between atoms: N_1  and  C_2
REMARK    2  A    between atoms: C_2  and  C_3
REMARK    3  A    between atoms: C_3  and  C_4
REMARK    4  A    between atoms: C_7  and  C_8
REMARK    5  A    between atoms: C_8  and  N_9
REMARK    6  A    between atoms: C_15  and  N_16
REMARK                            x       y       z     vdW  Elec       q    Type
REMARK                         _______ _______ _______ _____ _____    ______ ____
ROOT
ATOM      1  C   UNL     1      47.155   4.199  16.181  0.00  0.00    +0.000 C 
ENDROOT
BRANCH   1   2
ATOM      2  N   UNL     1      47.238   5.061  15.006  0.00  0.00    +0.000 N 
ATOM      3  C   UNL     1      48.195   6.032  14.833  0.00  0.00    +0.000 A 
ATOM      4  C   UNL     1      48.048   6.558  13.570  0.00  0.00    +0.000 A 
ATOM      5  C   UNL     1      46.972   5.880  12.942  0.00  0.00    +0.000 A 
ATOM      6  C   UNL     1      46.389   5.969  11.660  0.00  0.00    +0.000 A 
ATOM      7  C   UNL     1      45.318   5.134  11.323  0.00  0.00    +0.000 A 
ATOM      8  C   UNL     1      44.824   4.223  12.261  0.00  0.00    +0.000 A 
ATOM      9  C   UNL     1      45.381   4.116  13.548  0.00  0.00    +0.000 A 
ATOM     10  C   UNL     1      46.467   4.954  13.862  0.00  0.00    +0.000 A 
BRANCH   8  11
ATOM     11  N   UNL     1      43.705   3.344  11.894  0.00  0.00    +0.000 N 
ATOM     12  O   UNL     1      43.477   2.365  12.619  0.00  0.00    +0.000 OA
ATOM     13  O   UNL     1      43.050   3.636  10.883  0.00  0.00    +0.000 OA
ENDBRANCH   8  11
ENDBRANCH   1   2
BRANCH   1  17
ATOM     14  C   UNL     1      50.970   2.776  17.444  0.00  0.00    +0.000 A 
ATOM     15  C   UNL     1      50.600   4.072  17.793  0.00  0.00    +0.000 A 
ATOM     16  C   UNL     1      49.356   4.551  17.388  0.00  0.00    +0.000 A 
ATOM     17  C   UNL     1      48.506   3.733  16.640  0.00  0.00    +0.000 A 
ATOM     18  C   UNL     1      48.966   2.457  16.332  0.00  0.00    +0.000 A 
ATOM     19  N   UNL     1      50.168   1.967  16.714  0.00  0.00    +0.000 NA
BRANCH  14  20
ATOM     20  C   UNL     1      52.313   2.227  17.854  0.00  0.00    +0.000 C 
BRANCH  20  21
ATOM     21  C   UNL     1      52.469   0.765  17.431  0.00  0.00    +0.000 C 
BRANCH  21  22
ATOM     22  N   UNL     1      51.853  -0.136  18.407  0.00  0.00    +0.000 NA
ATOM     23  H   UNL     1      50.840  -0.031  18.363  0.00  0.00    +0.000 HD
ATOM     24  H   UNL     1      52.123   0.153  19.348  0.00  0.00    +0.000 HD
ENDBRANCH  21  22
ENDBRANCH  20  21
ENDBRANCH  14  20
ENDBRANCH   1  17
TORSDOF 6
ENDMDL
MODEL 7
REMARK VINA RESULT:    -6.342      3.600      7.165
REMARK INTER + INTRA:          -8.660
REMARK INTER:                  -7.783
REMARK INTRA:                  -0.878
REMARK UNBOUND:                -0.279
REMARK  Name = 
REMARK  6 active torsions:
REMARK  status: ('A' for Active; 'I' for Inactive)
REMARK    1  A    between atoms: N_1  and  C_2
REMARK    2  A    between atoms: C_2  and  C_3
REMARK    3  A    between atoms: C_3  and  C_4
REMARK    4  A    between atoms: C_7  and  C_8
REMARK    5  A    between atoms: C_8  and  N_9
REMARK    6  A    between atoms: C_15  and  N_16
REMARK                            x       y       z     vdW  Elec       q    Type
REMARK                         _______ _______ _______ _____ _____    ______ ____
ROOT
ATOM      1  C   UNL     1      47.846   6.091  12.934  0.00  0.00    +0.000 C 
ENDROOT
BRANCH   1   2
ATOM      2  N   UNL     1      46.543   6.675  12.630  0.00  0.00    +0.000 N 
ATOM      3  C   UNL     1      46.264   8.018  12.727  0.00  0.00    +0.000 A 
ATOM      4  C   UNL     1      44.990   8.226  12.249  0.00  0.00    +0.000 A 
ATOM      5  C   UNL     1      44.474   6.972  11.835  0.00  0.00    +0.000 A 
ATOM      6  C   UNL     1      43.253   6.573  11.250  0.00  0.00    +0.000 A 
ATOM      7  C   UNL     1      43.039   5.226  10.936  0.00  0.00    +0.000 A 
ATOM      8  C   UNL     1      44.029   4.281  11.212  0.00  0.00    +0.000 A 
ATOM      9  C   UNL     1      45.254   4.648  11.800  0.00  0.00    +0.000 A 
ATOM     10  C   UNL     1      45.456   6.008  12.094  0.00  0.00    +0.000 A 
BRANCH   8  11
ATOM     11  N   UNL     1      43.798   2.870  10.870  0.00  0.00    +0.000 N 
ATOM     12  O   UNL     1      43.029   2.219  11.591  0.00  0.00    +0.000 OA
ATOM     13  O   UNL     1      44.384   2.415   9.878  0.00  0.00    +0.000 OA
ENDBRANCH   8  11
ENDBRANCH   1   2
BRANCH   1  17
ATOM     14  C   UNL     1      48.149   4.753  16.970  0.00  0.00    +0.000 A 
ATOM     15  C   UNL     1      47.444   3.966  16.065  0.00  0.00    +0.000 A 
ATOM     16  C   UNL     1      47.338   4.389  14.742  0.00  0.00    +0.000 A 
ATOM     17  C   UNL     1      47.930   5.591  14.346  0.00  0.00    +0.000 A 
ATOM     18  C   UNL     1      48.606   6.314  15.324  0.00  0.00    +0.000 A 
ATOM     19  N   UNL     1      48.726   5.925  16.614  0.00  0.00    +0.000 NA
BRANCH  14  20
ATOM     20  C   UNL     1      48.277   4.334  18.412  0.00  0.00    +0.000 C 
BRANCH  20  21
ATOM     21  C   UNL     1      47.665   5.374  19.352  0.00  0.00    +0.000 C 
BRANCH  21  22
ATOM     22  N   UNL     1      46.309   5.735  18.929  0.00  0.00    +0.000 NA
ATOM     23  H   UNL     1      46.209   6.749  18.966  0.00  0.00    +0.000 HD
ATOM     24  H   UNL     1      45.638   5.363  19.602  0.00  0.00    +0.000 HD
ENDBRANCH  21  22
ENDBRANCH  20  21
ENDBRANCH  14  20
ENDBRANCH   1  17
TORSDOF 6
ENDMDL
MODEL 8
REMARK VINA RESULT:    -5.713      2.225      3.351
REMARK INTER + INTRA:          -7.828
REMARK INTER:                  -6.922
REMARK INTRA:                  -0.906
REMARK UNBOUND:                -0.279
REMARK  Name = 
REMARK  6 active torsions:
REMARK  status: ('A' for Active; 'I' for Inactive)
REMARK    1  A    between atoms: N_1  and  C_2
REMARK    2  A    between atoms: C_2  and  C_3
REMARK    3  A    between atoms: C_3  and  C_4
REMARK    4  A    between atoms: C_7  and  C_8
REMARK    5  A    between atoms: C_8  and  N_9
REMARK    6  A    between atoms: C_15  and  N_16
REMARK                            x       y       z     vdW  Elec       q    Type
REMARK                         _______ _______ _______ _____ _____    ______ ____
ROOT
ATOM      1  C   UNL     1      45.990   7.614  12.904  0.00  0.00    +0.000 C 
ENDROOT
BRANCH   1   2
ATOM      2  N   UNL     1      47.421   7.887  12.811  0.00  0.00    +0.000 N 
ATOM      3  C   UNL     1      47.993   8.642  11.815  0.00  0.00    +0.000 A 
ATOM      4  C   UNL     1      49.329   8.794  12.108  0.00  0.00    +0.000 A 
ATOM      5  C   UNL     1      49.583   8.122  13.331  0.00  0.00    +0.000 A 
ATOM      6  C   UNL     1      50.739   7.960  14.125  0.00  0.00    +0.000 A 
ATOM      7  C   UNL     1      50.667   7.232  15.318  0.00  0.00    +0.000 A 
ATOM      8  C   UNL     1      49.456   6.660  15.712  0.00  0.00    +0.000 A 
ATOM      9  C   UNL     1      48.289   6.798  14.939  0.00  0.00    +0.000 A 
ATOM     10  C   UNL     1      48.378   7.547  13.751  0.00  0.00    +0.000 A 
BRANCH   8  11
ATOM     11  N   UNL     1      49.389   5.904  16.971  0.00  0.00    +0.000 N 
ATOM     12  O   UNL     1      49.984   4.818  17.027  0.00  0.00    +0.000 OA
ATOM     13  O   UNL     1      48.744   6.399  17.906  0.00  0.00    +0.000 OA
ENDBRANCH   8  11
ENDBRANCH   1   2
BRANCH   1  17
ATOM     14  C   UNL     1      44.914   3.934  11.040  0.00  0.00    +0.000 A 
ATOM     15  C   UNL     1      45.277   3.912  12.383  0.00  0.00    +0.000 A 
ATOM     16  C   UNL     1      45.630   5.107  13.007  0.00  0.00    +0.000 A 
ATOM     17  C   UNL     1      45.620   6.300  12.281  0.00  0.00    +0.000 A 
ATOM     18  C   UNL     1      45.251   6.221  10.942  0.00  0.00    +0.000 A 
ATOM     19  N   UNL     1      44.903   5.075  10.313  0.00  0.00    +0.000 NA
BRANCH  14  20
ATOM     20  C   UNL     1      44.536   2.660  10.328  0.00  0.00    +0.000 C 
BRANCH  20  21
ATOM     21  C   UNL     1      45.165   2.592   8.935  0.00  0.00    +0.000 C 
BRANCH  21  22
ATOM     22  N   UNL     1      44.390   3.371   7.967  0.00  0.00    +0.000 NA
ATOM     23  H   UNL     1      44.939   4.179   7.675  0.00  0.00    +0.000 HD
ATOM     24  H   UNL     1      43.560   3.748   8.427  0.00  0.00    +0.000 HD
ENDBRANCH  21  22
ENDBRANCH  20  21
ENDBRANCH  14  20
ENDBRANCH   1  17
TORSDOF 6
ENDMDL
MODEL 9
REMARK VINA RESULT:    -5.407      4.129      7.077
REMARK INTER + INTRA:          -7.424
REMARK INTER:                  -6.686
REMARK INTRA:                  -0.737
REMARK UNBOUND:                -0.279
REMARK  Name = 
REMARK  6 active torsions:
REMARK  status: ('A' for Active; 'I' for Inactive)
REMARK    1  A    between atoms: N_1  and  C_2
REMARK    2  A    between atoms: C_2  and  C_3
REMARK    3  A    between atoms: C_3  and  C_4
REMARK    4  A    between atoms: C_7  and  C_8
REMARK    5  A    between atoms: C_8  and  N_9
REMARK    6  A    between atoms: C_15  and  N_16
REMARK                            x       y       z     vdW  Elec       q    Type
REMARK                         _______ _______ _______ _____ _____    ______ ____
ROOT
ATOM      1  C   UNL     1      48.889   5.059  17.932  0.00  0.00    +0.000 C 
ENDROOT
BRANCH   1   2
ATOM      2  N   UNL     1      50.319   5.350  17.878  0.00  0.00    +0.000 N 
ATOM      3  C   UNL     1      50.849   6.613  18.002  0.00  0.00    +0.000 A 
ATOM      4  C   UNL     1      52.221   6.500  18.030  0.00  0.00    +0.000 A 
ATOM      5  C   UNL     1      52.543   5.122  17.931  0.00  0.00    +0.000 A 
ATOM      6  C   UNL     1      53.762   4.411  17.934  0.00  0.00    +0.000 A 
ATOM      7  C   UNL     1      53.754   3.015  17.831  0.00  0.00    +0.000 A 
ATOM      8  C   UNL     1      52.540   2.333  17.715  0.00  0.00    +0.000 A 
ATOM      9  C   UNL     1      51.310   3.015  17.703  0.00  0.00    +0.000 A 
ATOM     10  C   UNL     1      51.339   4.416  17.823  0.00  0.00    +0.000 A 
BRANCH   8  11
ATOM     11  N   UNL     1      52.542   0.866  17.616  0.00  0.00    +0.000 N 
ATOM     12  O   UNL     1      51.580   0.253  18.102  0.00  0.00    +0.000 OA
ATOM     13  O   UNL     1      53.504   0.329  17.050  0.00  0.00    +0.000 OA
ENDBRANCH   8  11
ENDBRANCH   1   2
BRANCH   1  17
ATOM     14  C   UNL     1      47.019   5.102  14.101  0.00  0.00    +0.000 A 
ATOM     15  C   UNL     1      47.893   6.137  14.421  0.00  0.00    +0.000 A 
ATOM     16  C   UNL     1      48.513   6.136  15.669  0.00  0.00    +0.000 A 
ATOM     17  C   UNL     1      48.248   5.108  16.577  0.00  0.00    +0.000 A 
ATOM     18  C   UNL     1      47.354   4.123  16.171  0.00  0.00    +0.000 A 
ATOM     19  N   UNL     1      46.740   4.099  14.966  0.00  0.00    +0.000 NA
BRANCH  14  20
ATOM     20  C   UNL     1      46.322   5.074  12.765  0.00  0.00    +0.000 C 
BRANCH  20  21
ATOM     21  C   UNL     1      45.044   4.235  12.821  0.00  0.00    +0.000 C 
BRANCH  21  22
ATOM     22  N   UNL     1      45.330   2.820  12.576  0.00  0.00    +0.000 NA
ATOM     23  H   UNL     1      45.384   2.332  13.469  0.00  0.00    +0.000 HD
ATOM     24  H   UNL     1      46.255   2.733  12.154  0.00  0.00    +0.000 HD
ENDBRANCH  21  22
ENDBRANCH  20  21
ENDBRANCH  14  20
ENDBRANCH   1  17
TORSDOF 6
ENDMDL
