MODEL 1
REMARK VINA RESULT:    -8.064      0.000      0.000
REMARK INTER + INTRA:         -10.322
REMARK INTER:                  -9.950
REMARK INTRA:                  -0.371
REMARK UNBOUND:                -0.371
REMARK  Name = 
REMARK  4 active torsions:
REMARK  status: ('A' for Active; 'I' for Inactive)
REMARK    1  A    between atoms: C_2  and  C_4
REMARK    2  A    between atoms: C_7  and  N_8
REMARK    3  A    between atoms: N_8  and  C_9
REMARK    4  A    between atoms: C_9  and  C_10
REMARK                            x       y       z     vdW  Elec       q    Type
REMARK                         _______ _______ _______ _____ _____    ______ ____
ROOT
ATOM      1  C   UNL     1      46.518   4.572  13.633  0.00  0.00    +0.000 A 
ATOM      2  C   UNL     1      46.746   5.706  12.867  0.00  0.00    +0.000 A 
ATOM      3  N   UNL     1      46.173   5.889  11.646  0.00  0.00    +0.000 NA
ATOM      4  C   UNL     1      45.335   4.926  11.215  0.00  0.00    +0.000 A 
ATOM      5  C   UNL     1      45.139   3.784  12.004  0.00  0.00    +0.000 A 
ATOM      6  N   UNL     1      45.703   3.570  13.219  0.00  0.00    +0.000 NA
ENDROOT
BRANCH   1   8
ATOM      7  N   UNL     1      47.486   5.503  15.663  0.00  0.00    +0.000 N 
ATOM      8  C   UNL     1      47.208   4.379  14.934  0.00  0.00    +0.000 C 
ATOM      9  O   UNL     1      47.493   3.260  15.355  0.00  0.00    +0.000 OA
ATOM     10  H   UNL     1      47.868   5.387  16.592  0.00  0.00    +0.000 HD
ATOM     11  H   UNL     1      47.098   6.399  15.389  0.00  0.00    +0.000 HD
ENDBRANCH   1   8
BRANCH   4  12
ATOM     12  N   UNL     1      44.778   5.076   9.942  0.00  0.00    +0.000 N 
ATOM     13  H   UNL     1      45.470   5.518   9.342  0.00  0.00    +0.000 HD
BRANCH  12  14
ATOM     14  C   UNL     1      44.251   3.865   9.323  0.00  0.00    +0.000 C 
BRANCH  14  15
ATOM     15  C   UNL     1      45.333   3.198   8.518  0.00  0.00    +0.000 A 
ATOM     16  C   UNL     1      46.117   3.955   7.629  0.00  0.00    +0.000 A 
ATOM     17  C   UNL     1      47.115   3.348   6.866  0.00  0.00    +0.000 A 
ATOM     18  C   UNL     1      47.335   1.977   6.974  0.00  0.00    +0.000 A 
ATOM     19  C   UNL     1      46.555   1.226   7.847  0.00  0.00    +0.000 A 
ATOM     20  F   UNL     1      46.765  -0.093   7.950  0.00  0.00    +0.000 F 
ATOM     21  C   UNL     1      45.561   1.820   8.617  0.00  0.00    +0.000 A 
ENDBRANCH  14  15
ENDBRANCH  12  14
ENDBRANCH   4  12
TORSDOF 4
ENDMDL
MODEL 2
REMARK VINA RESULT:    -7.973      3.514      5.928
REMARK INTER + INTRA:         -10.209
REMARK INTER:                  -9.817
REMARK INTRA:                  -0.392
REMARK UNBOUND:                -0.371
REMARK  Name = 
REMARK  4 active torsions:
REMARK  status: ('A' for Active; 'I' for Inactive)
REMARK    1  A    between atoms: C_2  and  C_4
REMARK    2  A    between atoms: C_7  and  N_8
REMARK    3  A    between atoms: N_8  and  C_9
REMARK    4  A    between atoms: C_9  and  C_10
REMARK                            x       y       z     vdW  Elec       q    Type
REMARK                         _______ _______ _______ _____ _____    ______ ____
ROOT
ATOM      1  C   UNL     1      46.518   2.540   7.667  0.00  0.00    +0.000 A 
ATOM      2  C   UNL     1      46.473   3.919   7.517  0.00  0.00    +0.000 A 
ATOM      3  N   UNL     1      45.583   4.698   8.191  0.00  0.00    +0.000 NA
ATOM      4  C   UNL     1      44.754   4.072   9.050  0.00  0.00    +0.000 A 
ATOM      5  C   UNL     1      44.812   2.677   9.166  0.00  0.00    +0.000 A 
ATOM      6  N   UNL     1      45.680   1.875   8.501  0.00  0.00    +0.000 NA
ENDROOT
BRANCH   1   8
ATOM      7  N   UNL     1      48.591   2.337   6.408  0.00  0.00    +0.000 N 
ATOM      8  C   UNL     1      47.462   1.716   6.869  0.00  0.00    +0.000 C 
ATOM      9  O   UNL     1      47.259   0.524   6.657  0.00  0.00    +0.000 OA
ATOM     10  H   UNL     1      49.291   1.772   5.945  0.00  0.00    +0.000 HD
ATOM     11  H   UNL     1      48.830   3.268   6.730  0.00  0.00    +0.000 HD
ENDBRANCH   1   8
BRANCH   4  12
ATOM     12  N   UNL     1      43.802   4.853   9.711  0.00  0.00    +0.000 N 
ATOM     13  H   UNL     1      42.942   4.834   9.168  0.00  0.00    +0.000 HD
BRANCH  12  14
ATOM     14  C   UNL     1      43.544   4.509  11.105  0.00  0.00    +0.000 C 
BRANCH  14  15
ATOM     15  C   UNL     1      44.747   4.854  11.941  0.00  0.00    +0.000 A 
ATOM     16  C   UNL     1      45.229   6.175  11.968  0.00  0.00    +0.000 A 
ATOM     17  C   UNL     1      46.352   6.508  12.727  0.00  0.00    +0.000 A 
ATOM     18  C   UNL     1      47.011   5.524  13.459  0.00  0.00    +0.000 A 
ATOM     19  C   UNL     1      46.540   4.216  13.427  0.00  0.00    +0.000 A 
ATOM     20  F   UNL     1      47.175   3.269  14.130  0.00  0.00    +0.000 F 
ATOM     21  C   UNL     1      45.419   3.873  12.679  0.00  0.00    +0.000 A 
ENDBRANCH  14  15
ENDBRANCH  12  14
ENDBRANCH   4  12
TORSDOF 4
ENDMDL
MODEL 3
REMARK VINA RESULT:    -7.801      3.701      6.112
REMARK INTER + INTRA:          -9.997
REMARK INTER:                  -9.685
REMARK INTRA:                  -0.312
REMARK UNBOUND:                -0.371
REMARK  Name = 
REMARK  4 active torsions:
REMARK  status: ('A' for Active; 'I' for Inactive)
REMARK    1  A    between atoms: C_2  and  C_4
REMARK    2  A    between atoms: C_7  and  N_8
REMARK    3  A    between atoms: N_8  and  C_9
REMARK    4  A    between atoms: C_9  and  C_10
REMARK                            x       y       z     vdW  Elec       q    Type
REMARK                         _______ _______ _______ _____ _____    ______ ____
ROOT
ATOM      1  C   UNL     1      46.441   2.358   7.760  0.00  0.00    +0.000 A 
ATOM      2  C   UNL     1      46.444   3.724   7.520  0.00  0.00    +0.000 A 
ATOM      3  N   UNL     1      45.596   4.579   8.156  0.00  0.00    +0.000 NA
ATOM      4  C   UNL     1      44.759   4.042   9.066  0.00  0.00    +0.000 A 
ATOM      5  C   UNL     1      44.768   2.656   9.272  0.00  0.00    +0.000 A 
ATOM      6  N   UNL     1      45.594   1.780   8.648  0.00  0.00    +0.000 NA
ENDROOT
BRANCH   1   8
ATOM      7  N   UNL     1      48.482   1.994   6.484  0.00  0.00    +0.000 N 
ATOM      8  C   UNL     1      47.340   1.449   7.003  0.00  0.00    +0.000 C 
ATOM      9  O   UNL     1      47.089   0.253   6.872  0.00  0.00    +0.000 OA
ATOM     10  H   UNL     1      49.152   1.375   6.049  0.00  0.00    +0.000 HD
ATOM     11  H   UNL     1      48.761   2.935   6.741  0.00  0.00    +0.000 HD
ENDBRANCH   1   8
BRANCH   4  12
ATOM     12  N   UNL     1      43.849   4.899   9.690  0.00  0.00    +0.000 N 
ATOM     13  H   UNL     1      42.945   4.788   9.237  0.00  0.00    +0.000 HD
BRANCH  12  14
ATOM     14  C   UNL     1      43.725   4.763  11.137  0.00  0.00    +0.000 C 
BRANCH  14  15
ATOM     15  C   UNL     1      45.021   5.159  11.793  0.00  0.00    +0.000 A 
ATOM     16  C   UNL     1      45.550   4.374  12.832  0.00  0.00    +0.000 A 
ATOM     17  C   UNL     1      46.744   4.735  13.460  0.00  0.00    +0.000 A 
ATOM     18  C   UNL     1      47.415   5.888  13.063  0.00  0.00    +0.000 A 
ATOM     19  C   UNL     1      46.888   6.669  12.040  0.00  0.00    +0.000 A 
ATOM     20  F   UNL     1      47.533   7.780  11.660  0.00  0.00    +0.000 F 
ATOM     21  C   UNL     1      45.703   6.317  11.404  0.00  0.00    +0.000 A 
ENDBRANCH  14  15
ENDBRANCH  12  14
ENDBRANCH   4  12
TORSDOF 4
ENDMDL
MODEL 4
REMARK VINA RESULT:    -7.364      2.044      2.564
REMARK INTER + INTRA:          -9.458
REMARK INTER:                  -9.062
REMARK INTRA:                  -0.397
REMARK UNBOUND:                -0.371
REMARK  Name = 
REMARK  4 active torsions:
REMARK  status: ('A' for Active; 'I' for Inactive)
REMARK    1  A    between atoms: C_2  and  C_4
REMARK    2  A    between atoms: C_7  and  N_8
REMARK    3  A    between atoms: N_8  and  C_9
REMARK    4  A    between atoms: C_9  and  C_10
REMARK                            x       y       z     vdW  Elec       q    Type
REMARK                         _______ _______ _______ _____ _____    ______ ____
ROOT
ATOM      1  C   UNL     1      45.616   6.961  12.687  0.00  0.00    +0.000 A 
ATOM      2  C   UNL     1      44.561   6.705  11.822  0.00  0.00    +0.000 A 
ATOM      3  N   UNL     1      44.266   5.451  11.383  0.00  0.00    +0.000 NA
ATOM      4  C   UNL     1      45.030   4.445  11.853  0.00  0.00    +0.000 A 
ATOM      5  C   UNL     1      46.099   4.738  12.710  0.00  0.00    +0.000 A 
ATOM      6  N   UNL     1      46.422   5.977  13.157  0.00  0.00    +0.000 NA
ENDROOT
BRANCH   1   8
ATOM      7  N   UNL     1      45.023   9.319  12.808  0.00  0.00    +0.000 N 
ATOM      8  C   UNL     1      45.945   8.351  13.097  0.00  0.00    +0.000 C 
ATOM      9  O   UNL     1      46.984   8.618  13.696  0.00  0.00    +0.000 OA
ATOM     10  H   UNL     1      45.184  10.252  13.163  0.00  0.00    +0.000 HD
ATOM     11  H   UNL     1      44.102   9.063  12.469  0.00  0.00    +0.000 HD
ENDBRANCH   1   8
BRANCH   4  12
ATOM     12  N   UNL     1      44.771   3.159  11.371  0.00  0.00    +0.000 N 
ATOM     13  H   UNL     1      44.229   2.659  12.072  0.00  0.00    +0.000 HD
BRANCH  12  14
ATOM     14  C   UNL     1      44.128   3.079  10.065  0.00  0.00    +0.000 C 
BRANCH  14  15
ATOM     15  C   UNL     1      45.173   2.883   8.999  0.00  0.00    +0.000 A 
ATOM     16  C   UNL     1      45.643   3.986   8.264  0.00  0.00    +0.000 A 
ATOM     17  C   UNL     1      46.602   3.819   7.264  0.00  0.00    +0.000 A 
ATOM     18  C   UNL     1      47.094   2.548   6.980  0.00  0.00    +0.000 A 
ATOM     19  C   UNL     1      46.625   1.455   7.702  0.00  0.00    +0.000 A 
ATOM     20  F   UNL     1      47.097   0.232   7.428  0.00  0.00    +0.000 F 
ATOM     21  C   UNL     1      45.674   1.610   8.704  0.00  0.00    +0.000 A 
ENDBRANCH  14  15
ENDBRANCH  12  14
ENDBRANCH   4  12
TORSDOF 4
ENDMDL
MODEL 5
REMARK VINA RESULT:    -7.020      2.586      3.122
REMARK INTER + INTRA:          -9.032
REMARK INTER:                  -8.713
REMARK INTRA:                  -0.319
REMARK UNBOUND:                -0.371
REMARK  Name = 
REMARK  4 active torsions:
REMARK  status: ('A' for Active; 'I' for Inactive)
REMARK    1  A    between atoms: C_2  and  C_4
REMARK    2  A    between atoms: C_7  and  N_8
REMARK    3  A    between atoms: N_8  and  C_9
REMARK    4  A    between atoms: C_9  and  C_10
REMARK                            x       y       z     vdW  Elec       q    Type
REMARK                         _______ _______ _______ _____ _____    ______ ____
ROOT
ATOM      1  C   UNL     1      45.505   7.290  12.295  0.00  0.00    +0.000 A 
ATOM      2  C   UNL     1      44.434   6.486  12.655  0.00  0.00    +0.000 A 
ATOM      3  N   UNL     1      44.128   5.337  11.990  0.00  0.00    +0.000 NA
ATOM      4  C   UNL     1      44.940   4.988  10.972  0.00  0.00    +0.000 A 
ATOM      5  C   UNL     1      46.003   5.831  10.622  0.00  0.00    +0.000 A 
ATOM      6  N   UNL     1      46.326   6.985  11.259  0.00  0.00    +0.000 NA
ENDROOT
BRANCH   1   8
ATOM      7  N   UNL     1      44.836   9.557  12.877  0.00  0.00    +0.000 N 
ATOM      8  C   UNL     1      45.772   8.568  13.006  0.00  0.00    +0.000 C 
ATOM      9  O   UNL     1      46.771   8.723  13.703  0.00  0.00    +0.000 OA
ATOM     10  H   UNL     1      44.950  10.397  13.428  0.00  0.00    +0.000 HD
ATOM     11  H   UNL     1      43.941   9.361  12.443  0.00  0.00    +0.000 HD
ENDBRANCH   1   8
BRANCH   4  12
ATOM     12  N   UNL     1      44.610   3.839  10.249  0.00  0.00    +0.000 N 
ATOM     13  H   UNL     1      43.770   3.436  10.657  0.00  0.00    +0.000 HD
BRANCH  12  14
ATOM     14  C   UNL     1      44.458   4.007   8.808  0.00  0.00    +0.000 C 
BRANCH  14  15
ATOM     15  C   UNL     1      45.396   3.074   8.090  0.00  0.00    +0.000 A 
ATOM     16  C   UNL     1      45.669   1.802   8.624  0.00  0.00    +0.000 A 
ATOM     17  C   UNL     1      46.547   0.931   7.977  0.00  0.00    +0.000 A 
ATOM     18  C   UNL     1      47.169   1.325   6.795  0.00  0.00    +0.000 A 
ATOM     19  C   UNL     1      46.905   2.586   6.270  0.00  0.00    +0.000 A 
ATOM     20  F   UNL     1      47.506   2.965   5.134  0.00  0.00    +0.000 F 
ATOM     21  C   UNL     1      46.029   3.460   6.902  0.00  0.00    +0.000 A 
ENDBRANCH  14  15
ENDBRANCH  12  14
ENDBRANCH   4  12
TORSDOF 4
ENDMDL
MODEL 6
REMARK VINA RESULT:    -6.577      1.864      2.253
REMARK INTER + INTRA:          -8.486
REMARK INTER:                  -8.019
REMARK INTRA:                  -0.467
REMARK UNBOUND:                -0.371
REMARK  Name = 
REMARK  4 active torsions:
REMARK  status: ('A' for Active; 'I' for Inactive)
REMARK    1  A    between atoms: C_2  and  C_4
REMARK    2  A    between atoms: C_7  and  N_8
REMARK    3  A    between atoms: N_8  and  C_9
REMARK    4  A    between atoms: C_9  and  C_10
REMARK                            x       y       z     vdW  Elec       q    Type
REMARK                         _______ _______ _______ _____ _____    ______ ____
ROOT
ATOM      1  C   UNL     1      47.068   5.541  13.662  0.00  0.00    +0.000 A 
ATOM      2  C   UNL     1      46.028   6.256  13.085  0.00  0.00    +0.000 A 
ATOM      3  N   UNL     1      45.005   5.649  12.423  0.00  0.00    +0.000 NA
ATOM      4  C   UNL     1      45.024   4.302  12.375  0.00  0.00    +0.000 A 
ATOM      5  C   UNL     1      46.098   3.610  12.951  0.00  0.00    +0.000 A 
ATOM      6  N   UNL     1      47.135   4.188  13.609  0.00  0.00    +0.000 NA
ENDROOT
BRANCH   1   8
ATOM      7  N   UNL     1      48.765   7.287  13.647  0.00  0.00    +0.000 N 
ATOM      8  C   UNL     1      48.199   6.242  14.324  0.00  0.00    +0.000 C 
ATOM      9  O   UNL     1      48.592   5.920  15.443  0.00  0.00    +0.000 OA
ATOM     10  H   UNL     1      49.470   7.836  14.120  0.00  0.00    +0.000 HD
ATOM     11  H   UNL     1      48.326   7.650  12.807  0.00  0.00    +0.000 HD
ENDBRANCH   1   8
BRANCH   4  12
ATOM     12  N   UNL     1      44.008   3.667  11.656  0.00  0.00    +0.000 N 
ATOM     13  H   UNL     1      43.161   3.685  12.218  0.00  0.00    +0.000 HD
BRANCH  12  14
ATOM     14  C   UNL     1      43.752   4.181  10.315  0.00  0.00    +0.000 C 
BRANCH  14  15
ATOM     15  C   UNL     1      44.687   3.524   9.335  0.00  0.00    +0.000 A 
ATOM     16  C   UNL     1      44.862   2.129   9.357  0.00  0.00    +0.000 A 
ATOM     17  C   UNL     1      45.736   1.507   8.464  0.00  0.00    +0.000 A 
ATOM     18  C   UNL     1      46.452   2.272   7.547  0.00  0.00    +0.000 A 
ATOM     19  C   UNL     1      46.285   3.653   7.530  0.00  0.00    +0.000 A 
ATOM     20  F   UNL     1      46.975   4.389   6.648  0.00  0.00    +0.000 F 
ATOM     21  C   UNL     1      45.413   4.284   8.410  0.00  0.00    +0.000 A 
ENDBRANCH  14  15
ENDBRANCH  12  14
ENDBRANCH   4  12
TORSDOF 4
ENDMDL
MODEL 7
REMARK VINA RESULT:    -6.228      2.102      2.544
REMARK INTER + INTRA:          -8.056
REMARK INTER:                  -7.679
REMARK INTRA:                  -0.377
REMARK UNBOUND:                -0.371
REMARK  Name = 
REMARK  4 active torsions:
REMARK  status: ('A' for Active; 'I' for Inactive)
REMARK    1  A    between atoms: C_2  and  C_4
REMARK    2  A    between atoms: C_7  and  N_8
REMARK    3  A    between atoms: N_8  and  C_9
REMARK    4  A    between atoms: C_9  and  C_10
REMARK                            x       y       z     vdW  Elec       q    Type
REMARK                         _______ _______ _______ _____ _____    ______ ____
ROOT
ATOM      1  C   UNL     1      47.476   6.253  13.365  0.00  0.00    +0.000 A 
ATOM      2  C   UNL     1      46.294   6.897  13.029  0.00  0.00    +0.000 A 
ATOM      3  N   UNL     1      45.130   6.221  12.817  0.00  0.00    +0.000 NA
ATOM      4  C   UNL     1      45.163   4.884  12.981  0.00  0.00    +0.000 A 
ATOM      5  C   UNL     1      46.377   4.262  13.303  0.00  0.00    +0.000 A 
ATOM      6  N   UNL     1      47.553   4.907  13.511  0.00  0.00    +0.000 NA
ENDROOT
BRANCH   1   8
ATOM      7  N   UNL     1      49.291   7.045  14.781  0.00  0.00    +0.000 N 
ATOM      8  C   UNL     1      48.740   7.017  13.530  0.00  0.00    +0.000 C 
ATOM      9  O   UNL     1      49.285   7.576  12.581  0.00  0.00    +0.000 OA
ATOM     10  H   UNL     1      50.198   7.478  14.894  0.00  0.00    +0.000 HD
ATOM     11  H   UNL     1      48.927   6.445  15.513  0.00  0.00    +0.000 HD
ENDBRANCH   1   8
BRANCH   4  12
ATOM     12  N   UNL     1      43.990   4.173  12.718  0.00  0.00    +0.000 N 
ATOM     13  H   UNL     1      43.350   4.315  13.495  0.00  0.00    +0.000 HD
BRANCH  12  14
ATOM     14  C   UNL     1      43.334   4.461  11.447  0.00  0.00    +0.000 C 
BRANCH  14  15
ATOM     15  C   UNL     1      44.181   3.945  10.314  0.00  0.00    +0.000 A 
ATOM     16  C   UNL     1      44.893   4.846   9.502  0.00  0.00    +0.000 A 
ATOM     17  C   UNL     1      45.671   4.383   8.439  0.00  0.00    +0.000 A 
ATOM     18  C   UNL     1      45.739   3.019   8.171  0.00  0.00    +0.000 A 
ATOM     19  C   UNL     1      45.030   2.128   8.970  0.00  0.00    +0.000 A 
ATOM     20  F   UNL     1      45.095   0.815   8.710  0.00  0.00    +0.000 F 
ATOM     21  C   UNL     1      44.256   2.575  10.034  0.00  0.00    +0.000 A 
ENDBRANCH  14  15
ENDBRANCH  12  14
ENDBRANCH   4  12
TORSDOF 4
ENDMDL
MODEL 8
REMARK VINA RESULT:    -5.914      1.765      2.512
REMARK INTER + INTRA:          -7.668
REMARK INTER:                  -7.330
REMARK INTRA:                  -0.338
REMARK UNBOUND:                -0.371
REMARK  Name = 
REMARK  4 active torsions:
REMARK  status: ('A' for Active; 'I' for Inactive)
REMARK    1  A    between atoms: C_2  and  C_4
REMARK    2  A    between atoms: C_7  and  N_8
REMARK    3  A    between atoms: N_8  and  C_9
REMARK    4  A    between atoms: C_9  and  C_10
REMARK                            x       y       z     vdW  Elec       q    Type
REMARK                         _______ _______ _______ _____ _____    ______ ____
ROOT
ATOM      1  C   UNL     1      47.681   4.905  15.665  0.00  0.00    +0.000 A 
ATOM      2  C   UNL     1      48.117   6.046  15.008  0.00  0.00    +0.000 A 
ATOM      3  N   UNL     1      47.670   6.390  13.768  0.00  0.00    +0.000 NA
ATOM      4  C   UNL     1      46.749   5.582  13.207  0.00  0.00    +0.000 A 
ATOM      5  C   UNL     1      46.343   4.427  13.889  0.00  0.00    +0.000 A 
ATOM      6  N   UNL     1      46.776   4.055  15.119  0.00  0.00    +0.000 NA
ENDROOT
BRANCH   1   8
ATOM      7  N   UNL     1      48.722   3.259  17.125  0.00  0.00    +0.000 N 
ATOM      8  C   UNL     1      48.236   4.531  16.992  0.00  0.00    +0.000 C 
ATOM      9  O   UNL     1      48.285   5.333  17.921  0.00  0.00    +0.000 OA
ATOM     10  H   UNL     1      49.190   3.015  17.988  0.00  0.00    +0.000 HD
ATOM     11  H   UNL     1      48.832   2.665  16.311  0.00  0.00    +0.000 HD
ENDBRANCH   1   8
BRANCH   4  12
ATOM     12  N   UNL     1      46.319   5.894  11.915  0.00  0.00    +0.000 N 
ATOM     13  H   UNL     1      47.041   5.605  11.260  0.00  0.00    +0.000 HD
BRANCH  12  14
ATOM     14  C   UNL     1      45.019   5.361  11.523  0.00  0.00    +0.000 C 
BRANCH  14  15
ATOM     15  C   UNL     1      45.173   4.514  10.288  0.00  0.00    +0.000 A 
ATOM     16  C   UNL     1      45.775   5.051   9.137  0.00  0.00    +0.000 A 
ATOM     17  C   UNL     1      45.912   4.281   7.980  0.00  0.00    +0.000 A 
ATOM     18  C   UNL     1      45.440   2.971   7.958  0.00  0.00    +0.000 A 
ATOM     19  C   UNL     1      44.837   2.442   9.094  0.00  0.00    +0.000 A 
ATOM     20  F   UNL     1      44.381   1.182   9.072  0.00  0.00    +0.000 F 
ATOM     21  C   UNL     1      44.700   3.196  10.254  0.00  0.00    +0.000 A 
ENDBRANCH  14  15
ENDBRANCH  12  14
ENDBRANCH   4  12
TORSDOF 4
ENDMDL
MODEL 9
REMARK VINA RESULT:    -5.691      3.950      5.601
REMARK INTER + INTRA:          -7.393
REMARK INTER:                  -7.133
REMARK INTRA:                  -0.260
REMARK UNBOUND:                -0.371
REMARK  Name = 
REMARK  4 active torsions:
REMARK  status: ('A' for Active; 'I' for Inactive)
REMARK    1  A    between atoms: C_2  and  C_4
REMARK    2  A    between atoms: C_7  and  N_8
REMARK    3  A    between atoms: N_8  and  C_9
REMARK    4  A    between atoms: C_9  and  C_10
REMARK                            x       y       z     vdW  Elec       q    Type
REMARK                         _______ _______ _______ _____ _____    ______ ____
ROOT
ATOM      1  C   UNL     1      49.019   4.548  18.048  0.00  0.00    +0.000 A 
ATOM      2  C   UNL     1      49.045   5.409  16.960  0.00  0.00    +0.000 A 
ATOM      3  N   UNL     1      48.277   5.210  15.853  0.00  0.00    +0.000 NA
ATOM      4  C   UNL     1      47.453   4.143  15.867  0.00  0.00    +0.000 A 
ATOM      5  C   UNL     1      47.464   3.282  16.973  0.00  0.00    +0.000 A 
ATOM      6  N   UNL     1      48.224   3.451  18.085  0.00  0.00    +0.000 NA
ENDROOT
BRANCH   1   8
ATOM      7  N   UNL     1      51.057   4.014  19.268  0.00  0.00    +0.000 N 
ATOM      8  C   UNL     1      49.915   4.765  19.213  0.00  0.00    +0.000 C 
ATOM      9  O   UNL     1      49.662   5.603  20.076  0.00  0.00    +0.000 OA
ATOM     10  H   UNL     1      51.725   4.213  20.000  0.00  0.00    +0.000 HD
ATOM     11  H   UNL     1      51.338   3.453  18.471  0.00  0.00    +0.000 HD
ENDBRANCH   1   8
BRANCH   4  12
ATOM     12  N   UNL     1      46.697   3.897  14.718  0.00  0.00    +0.000 N 
ATOM     13  H   UNL     1      45.892   3.335  14.981  0.00  0.00    +0.000 HD
BRANCH  12  14
ATOM     14  C   UNL     1      46.285   5.070  13.956  0.00  0.00    +0.000 C 
BRANCH  14  15
ATOM     15  C   UNL     1      45.174   4.695  13.013  0.00  0.00    +0.000 A 
ATOM     16  C   UNL     1      45.280   3.533  12.228  0.00  0.00    +0.000 A 
ATOM     17  C   UNL     1      44.264   3.180  11.339  0.00  0.00    +0.000 A 
ATOM     18  C   UNL     1      43.136   3.986  11.218  0.00  0.00    +0.000 A 
ATOM     19  C   UNL     1      43.033   5.140  11.989  0.00  0.00    +0.000 A 
ATOM     20  F   UNL     1      41.948   5.917  11.871  0.00  0.00    +0.000 F 
ATOM     21  C   UNL     1      44.036   5.500  12.881  0.00  0.00    +0.000 A 
ENDBRANCH  14  15
ENDBRANCH  12  14
ENDBRANCH   4  12
TORSDOF 4
ENDMDL
