MODEL 1
REMARK VINA RESULT:    -8.185      0.000      0.000
REMARK INTER + INTRA:         -11.954
REMARK INTER:                 -11.056
REMARK INTRA:                  -0.898
REMARK UNBOUND:                -0.898
REMARK  Name = 
REMARK  6 active torsions:
REMARK  status: ('A' for Active; 'I' for Inactive)
REMARK    1  A    between atoms: C_2  and  C_25
REMARK    2  A    between atoms: N_3  and  C_4
REMARK    3  A    between atoms: C_4  and  C_5
REMARK    4  A    between atoms: C_8  and  C_9
REMARK    5  A    between atoms: C_9  and  N_10
REMARK    6  A    between atoms: C_11  and  C_13
REMARK                            x       y       z     vdW  Elec       q    Type
REMARK                         _______ _______ _______ _____ _____    ______ ____
ROOT
ATOM      1  C   UNL     1      44.874   5.969  11.040  0.00  0.00    +0.000 A 
ATOM      2  C   UNL     1      44.491   7.271  11.389  0.00  0.00    +0.000 A 
ATOM      3  C   UNL     1      45.282   8.043  12.247  0.00  0.00    +0.000 A 
ATOM      4  C   UNL     1      46.485   7.535  12.759  0.00  0.00    +0.000 A 
ATOM      5  C   UNL     1      46.867   6.233  12.410  0.00  0.00    +0.000 A 
ATOM      6  C   UNL     1      46.077   5.463  11.550  0.00  0.00    +0.000 A 
ENDROOT
BRANCH   1   7
ATOM      7  C   UNL     1      44.028   5.144  10.105  0.00  0.00    +0.000 C 
BRANCH   7  10
ATOM      8  O   UNL     1      44.549   2.404   9.880  0.00  0.00    +0.000 OA
ATOM      9  C   UNL     1      45.033   3.164   9.046  0.00  0.00    +0.000 C 
ATOM     10  N   UNL     1      44.831   4.525   9.081  0.00  0.00    +0.000 N 
ATOM     11  H   UNL     1      45.149   5.096   8.312  0.00  0.00    +0.000 HD
BRANCH   9  12
ATOM     12  C   UNL     1      45.851   2.699   7.945  0.00  0.00    +0.000 A 
ATOM     13  C   UNL     1      46.217   3.292   6.746  0.00  0.00    +0.000 A 
ATOM     14  C   UNL     1      47.052   2.391   6.041  0.00  0.00    +0.000 A 
ATOM     15  C   UNL     1      47.180   1.264   6.819  0.00  0.00    +0.000 A 
ATOM     16  N   UNL     1      46.456   1.459   7.964  0.00  0.00    +0.000 N 
ATOM     17  H   UNL     1      46.367   0.802   8.731  0.00  0.00    +0.000 HD
ENDBRANCH   9  12
ENDBRANCH   7  10
ENDBRANCH   1   7
BRANCH   4  18
ATOM     18  C   UNL     1      47.336   8.355  13.695  0.00  0.00    +0.000 C 
BRANCH  18  19
ATOM     19  N   UNL     1      47.691   7.606  14.875  0.00  0.00    +0.000 N 
ATOM     20  C   UNL     1      48.911   6.987  14.982  0.00  0.00    +0.000 C 
ATOM     21  O   UNL     1      49.768   7.085  14.107  0.00  0.00    +0.000 OA
ATOM     22  H   UNL     1      46.933   7.325  15.487  0.00  0.00    +0.000 HD
BRANCH  20  23
ATOM     23  C   UNL     1      49.170   6.248  16.225  0.00  0.00    +0.000 A 
ATOM     24  C   UNL     1      50.195   6.657  17.068  0.00  0.00    +0.000 A 
ATOM     25  S   UNL     1      50.321   5.730  18.493  0.00  0.00    +0.000 S 
ATOM     26  C   UNL     1      49.044   4.714  18.011  0.00  0.00    +0.000 A 
ATOM     27  N   UNL     1      48.648   3.671  18.788  0.00  0.00    +0.000 NA
ATOM     28  C   UNL     1      47.694   2.962  18.285  0.00  0.00    +0.000 A 
ATOM     29  N   UNL     1      47.097   3.204  17.074  0.00  0.00    +0.000 N 
ATOM     30  C   UNL     1      47.444   4.264  16.269  0.00  0.00    +0.000 A 
ATOM     31  O   UNL     1      46.860   4.478  15.212  0.00  0.00    +0.000 OA
ATOM     32  C   UNL     1      48.520   5.086  16.785  0.00  0.00    +0.000 A 
ATOM     33  H   UNL     1      46.350   2.615  16.738  0.00  0.00    +0.000 HD
ENDBRANCH  20  23
ENDBRANCH  18  19
ENDBRANCH   4  18
TORSDOF 6
ENDMDL
MODEL 2
REMARK VINA RESULT:    -7.643      1.847      2.215
REMARK INTER + INTRA:         -11.222
REMARK INTER:                 -10.258
REMARK INTRA:                  -0.963
REMARK UNBOUND:                -0.898
REMARK  Name = 
REMARK  6 active torsions:
REMARK  status: ('A' for Active; 'I' for Inactive)
REMARK    1  A    between atoms: C_2  and  C_25
REMARK    2  A    between atoms: N_3  and  C_4
REMARK    3  A    between atoms: C_4  and  C_5
REMARK    4  A    between atoms: C_8  and  C_9
REMARK    5  A    between atoms: C_9  and  N_10
REMARK    6  A    between atoms: C_11  and  C_13
REMARK                            x       y       z     vdW  Elec       q    Type
REMARK                         _______ _______ _______ _____ _____    ______ ____
ROOT
ATOM      1  C   UNL     1      44.671   4.846  11.703  0.00  0.00    +0.000 A 
ATOM      2  C   UNL     1      44.176   6.100  11.321  0.00  0.00    +0.000 A 
ATOM      3  C   UNL     1      44.794   7.276  11.759  0.00  0.00    +0.000 A 
ATOM      4  C   UNL     1      45.934   7.222  12.574  0.00  0.00    +0.000 A 
ATOM      5  C   UNL     1      46.427   5.968  12.957  0.00  0.00    +0.000 A 
ATOM      6  C   UNL     1      45.810   4.792  12.516  0.00  0.00    +0.000 A 
ENDROOT
BRANCH   1   7
ATOM      7  C   UNL     1      44.011   3.580  11.219  0.00  0.00    +0.000 C 
BRANCH   7  10
ATOM      8  O   UNL     1      44.315   4.143   8.495  0.00  0.00    +0.000 OA
ATOM      9  C   UNL     1      44.953   3.211   8.977  0.00  0.00    +0.000 C 
ATOM     10  N   UNL     1      44.863   2.862  10.305  0.00  0.00    +0.000 N 
ATOM     11  H   UNL     1      45.491   2.168  10.682  0.00  0.00    +0.000 HD
BRANCH   9  12
ATOM     12  C   UNL     1      45.866   2.401   8.196  0.00  0.00    +0.000 A 
ATOM     13  C   UNL     1      46.803   2.729   7.228  0.00  0.00    +0.000 A 
ATOM     14  C   UNL     1      47.438   1.537   6.803  0.00  0.00    +0.000 A 
ATOM     15  C   UNL     1      46.879   0.502   7.515  0.00  0.00    +0.000 A 
ATOM     16  N   UNL     1      45.935   1.032   8.354  0.00  0.00    +0.000 N 
ATOM     17  H   UNL     1      45.361   0.511   9.007  0.00  0.00    +0.000 HD
ENDBRANCH   9  12
ENDBRANCH   7  10
ENDBRANCH   1   7
BRANCH   4  18
ATOM     18  C   UNL     1      46.598   8.484  13.062  0.00  0.00    +0.000 C 
BRANCH  18  19
ATOM     19  N   UNL     1      47.064   8.342  14.419  0.00  0.00    +0.000 N 
ATOM     20  C   UNL     1      48.128   9.072  14.885  0.00  0.00    +0.000 C 
ATOM     21  O   UNL     1      48.696   9.909  14.188  0.00  0.00    +0.000 OA
ATOM     22  H   UNL     1      46.768   7.512  14.923  0.00  0.00    +0.000 HD
BRANCH  20  23
ATOM     23  C   UNL     1      48.521   8.848  16.283  0.00  0.00    +0.000 A 
ATOM     24  C   UNL     1      48.522   9.912  17.176  0.00  0.00    +0.000 A 
ATOM     25  S   UNL     1      48.944   9.469  18.768  0.00  0.00    +0.000 S 
ATOM     26  C   UNL     1      49.193   7.849  18.310  0.00  0.00    +0.000 A 
ATOM     27  N   UNL     1      49.600   6.921  19.217  0.00  0.00    +0.000 NA
ATOM     28  C   UNL     1      49.786   5.741  18.726  0.00  0.00    +0.000 A 
ATOM     29  N   UNL     1      49.597   5.405  17.410  0.00  0.00    +0.000 N 
ATOM     30  C   UNL     1      49.157   6.302  16.466  0.00  0.00    +0.000 A 
ATOM     31  O   UNL     1      48.956   5.958  15.305  0.00  0.00    +0.000 OA
ATOM     32  C   UNL     1      48.944   7.647  16.964  0.00  0.00    +0.000 A 
ATOM     33  H   UNL     1      49.753   4.461  17.090  0.00  0.00    +0.000 HD
ENDBRANCH  20  23
ENDBRANCH  18  19
ENDBRANCH   4  18
TORSDOF 6
ENDMDL
MODEL 3
REMARK VINA RESULT:    -7.565      4.652      9.488
REMARK INTER + INTRA:         -11.116
REMARK INTER:                 -10.344
REMARK INTRA:                  -0.772
REMARK UNBOUND:                -0.898
REMARK  Name = 
REMARK  6 active torsions:
REMARK  status: ('A' for Active; 'I' for Inactive)
REMARK    1  A    between atoms: C_2  and  C_25
REMARK    2  A    between atoms: N_3  and  C_4
REMARK    3  A    between atoms: C_4  and  C_5
REMARK    4  A    between atoms: C_8  and  C_9
REMARK    5  A    between atoms: C_9  and  N_10
REMARK    6  A    between atoms: C_11  and  C_13
REMARK                            x       y       z     vdW  Elec       q    Type
REMARK                         _______ _______ _______ _____ _____    ______ ____
ROOT
ATOM      1  C   UNL     1      51.345   2.902  17.765  0.00  0.00    +0.000 A 
ATOM      2  C   UNL     1      50.632   1.935  17.044  0.00  0.00    +0.000 A 
ATOM      3  C   UNL     1      49.273   2.109  16.765  0.00  0.00    +0.000 A 
ATOM      4  C   UNL     1      48.601   3.266  17.185  0.00  0.00    +0.000 A 
ATOM      5  C   UNL     1      49.314   4.232  17.907  0.00  0.00    +0.000 A 
ATOM      6  C   UNL     1      50.674   4.059  18.183  0.00  0.00    +0.000 A 
ENDROOT
BRANCH   1   7
ATOM      7  C   UNL     1      52.814   2.719  18.053  0.00  0.00    +0.000 C 
BRANCH   7  10
ATOM      8  O   UNL     1      54.525   0.894  16.800  0.00  0.00    +0.000 OA
ATOM      9  C   UNL     1      53.954   0.550  17.830  0.00  0.00    +0.000 C 
ATOM     10  N   UNL     1      53.093   1.381  18.511  0.00  0.00    +0.000 N 
ATOM     11  H   UNL     1      52.737   1.100  19.412  0.00  0.00    +0.000 HD
BRANCH   9  12
ATOM     12  C   UNL     1      54.139  -0.755  18.430  0.00  0.00    +0.000 A 
ATOM     13  C   UNL     1      55.273  -1.521  18.655  0.00  0.00    +0.000 A 
ATOM     14  C   UNL     1      54.879  -2.720  19.298  0.00  0.00    +0.000 A 
ATOM     15  C   UNL     1      53.514  -2.668  19.453  0.00  0.00    +0.000 A 
ATOM     16  N   UNL     1      53.077  -1.480  18.931  0.00  0.00    +0.000 N 
ATOM     17  H   UNL     1      52.116  -1.159  18.908  0.00  0.00    +0.000 HD
ENDBRANCH   9  12
ENDBRANCH   7  10
ENDBRANCH   1   7
BRANCH   4  18
ATOM     18  C   UNL     1      47.133   3.455  16.901  0.00  0.00    +0.000 C 
BRANCH  18  19
ATOM     19  N   UNL     1      46.916   4.486  15.916  0.00  0.00    +0.000 N 
ATOM     20  C   UNL     1      47.001   4.216  14.574  0.00  0.00    +0.000 C 
ATOM     21  O   UNL     1      47.215   3.082  14.152  0.00  0.00    +0.000 OA
ATOM     22  H   UNL     1      46.971   5.447  16.237  0.00  0.00    +0.000 HD
BRANCH  20  23
ATOM     23  C   UNL     1      46.765   5.340  13.658  0.00  0.00    +0.000 A 
ATOM     24  C   UNL     1      47.795   6.229  13.381  0.00  0.00    +0.000 A 
ATOM     25  S   UNL     1      47.372   7.439  12.255  0.00  0.00    +0.000 S 
ATOM     26  C   UNL     1      45.781   6.848  12.137  0.00  0.00    +0.000 A 
ATOM     27  N   UNL     1      44.866   7.459  11.337  0.00  0.00    +0.000 NA
ATOM     28  C   UNL     1      43.689   6.930  11.371  0.00  0.00    +0.000 A 
ATOM     29  N   UNL     1      43.345   5.842  12.131  0.00  0.00    +0.000 N 
ATOM     30  C   UNL     1      44.243   5.174  12.929  0.00  0.00    +0.000 A 
ATOM     31  O   UNL     1      43.913   4.176  13.563  0.00  0.00    +0.000 OA
ATOM     32  C   UNL     1      45.579   5.736  12.935  0.00  0.00    +0.000 A 
ATOM     33  H   UNL     1      42.407   5.470  12.108  0.00  0.00    +0.000 HD
ENDBRANCH  20  23
ENDBRANCH  18  19
ENDBRANCH   4  18
TORSDOF 6
ENDMDL
MODEL 4
REMARK VINA RESULT:    -7.319      4.646      9.485
REMARK INTER + INTRA:         -10.784
REMARK INTER:                  -9.732
REMARK INTRA:                  -1.052
REMARK UNBOUND:                -0.898
REMARK  Name = 
REMARK  6 active torsions:
REMARK  status: ('A' for Active; 'I' for Inactive)
REMARK    1  A    between atoms: C_2  and  C_25
REMARK    2  A    between atoms: N_3  and  C_4
REMARK    3  A    between atoms: C_4  and  C_5
REMARK    4  A    between atoms: C_8  and  C_9
REMARK    5  A    between atoms: C_9  and  N_10
REMARK    6  A    between atoms: C_11  and  C_13
REMARK                            x       y       z     vdW  Elec       q    Type
REMARK                         _______ _______ _______ _____ _____    ______ ____
ROOT
ATOM      1  C   UNL     1      51.424   2.834  17.734  0.00  0.00    +0.000 A 
ATOM      2  C   UNL     1      50.602   1.889  17.105  0.00  0.00    +0.000 A 
ATOM      3  C   UNL     1      49.259   2.176  16.838  0.00  0.00    +0.000 A 
ATOM      4  C   UNL     1      48.715   3.423  17.174  0.00  0.00    +0.000 A 
ATOM      5  C   UNL     1      49.537   4.367  17.803  0.00  0.00    +0.000 A 
ATOM      6  C   UNL     1      50.880   4.081  18.069  0.00  0.00    +0.000 A 
ENDROOT
BRANCH   1   7
ATOM      7  C   UNL     1      52.874   2.529  18.009  0.00  0.00    +0.000 C 
BRANCH   7  10
ATOM      8  O   UNL     1      54.537   0.575  16.891  0.00  0.00    +0.000 OA
ATOM      9  C   UNL     1      53.884   0.289  17.891  0.00  0.00    +0.000 C 
ATOM     10  N   UNL     1      53.040   1.186  18.505  0.00  0.00    +0.000 N 
ATOM     11  H   UNL     1      52.615   0.945  19.388  0.00  0.00    +0.000 HD
BRANCH   9  12
ATOM     12  C   UNL     1      53.950  -1.014  18.522  0.00  0.00    +0.000 A 
ATOM     13  C   UNL     1      55.004  -1.890  18.735  0.00  0.00    +0.000 A 
ATOM     14  C   UNL     1      54.506  -3.024  19.422  0.00  0.00    +0.000 A 
ATOM     15  C   UNL     1      53.160  -2.823  19.616  0.00  0.00    +0.000 A 
ATOM     16  N   UNL     1      52.834  -1.609  19.074  0.00  0.00    +0.000 N 
ATOM     17  H   UNL     1      51.912  -1.187  19.070  0.00  0.00    +0.000 HD
ENDBRANCH   9  12
ENDBRANCH   7  10
ENDBRANCH   1   7
BRANCH   4  18
ATOM     18  C   UNL     1      47.265   3.734  16.902  0.00  0.00    +0.000 C 
BRANCH  18  19
ATOM     19  N   UNL     1      47.125   4.705  15.845  0.00  0.00    +0.000 N 
ATOM     20  C   UNL     1      47.142   4.327  14.526  0.00  0.00    +0.000 C 
ATOM     21  O   UNL     1      47.225   3.148  14.190  0.00  0.00    +0.000 OA
ATOM     22  H   UNL     1      47.288   5.677  16.088  0.00  0.00    +0.000 HD
BRANCH  20  23
ATOM     23  C   UNL     1      46.995   5.397  13.531  0.00  0.00    +0.000 A 
ATOM     24  C   UNL     1      45.972   5.329  12.594  0.00  0.00    +0.000 A 
ATOM     25  S   UNL     1      45.905   6.677  11.552  0.00  0.00    +0.000 S 
ATOM     26  C   UNL     1      47.275   7.377  12.281  0.00  0.00    +0.000 A 
ATOM     27  N   UNL     1      47.775   8.561  11.838  0.00  0.00    +0.000 NA
ATOM     28  C   UNL     1      48.837   8.957  12.456  0.00  0.00    +0.000 A 
ATOM     29  N   UNL     1      49.442   8.276  13.481  0.00  0.00    +0.000 N 
ATOM     30  C   UNL     1      48.955   7.092  13.982  0.00  0.00    +0.000 A 
ATOM     31  O   UNL     1      49.495   6.531  14.929  0.00  0.00    +0.000 OA
ATOM     32  C   UNL     1      47.767   6.598  13.314  0.00  0.00    +0.000 A 
ATOM     33  H   UNL     1      50.269   8.643  13.929  0.00  0.00    +0.000 HD
ENDBRANCH  20  23
ENDBRANCH  18  19
ENDBRANCH   4  18
TORSDOF 6
ENDMDL
MODEL 5
REMARK VINA RESULT:    -7.069      3.810      8.363
REMARK INTER + INTRA:         -10.446
REMARK INTER:                  -9.418
REMARK INTRA:                  -1.028
REMARK UNBOUND:                -0.898
REMARK  Name = 
REMARK  6 active torsions:
REMARK  status: ('A' for Active; 'I' for Inactive)
REMARK    1  A    between atoms: C_2  and  C_25
REMARK    2  A    between atoms: N_3  and  C_4
REMARK    3  A    between atoms: C_4  and  C_5
REMARK    4  A    between atoms: C_8  and  C_9
REMARK    5  A    between atoms: C_9  and  N_10
REMARK    6  A    between atoms: C_11  and  C_13
REMARK                            x       y       z     vdW  Elec       q    Type
REMARK                         _______ _______ _______ _____ _____    ______ ____
ROOT
ATOM      1  C   UNL     1      49.771   4.720  17.625  0.00  0.00    +0.000 A 
ATOM      2  C   UNL     1      50.584   5.749  17.129  0.00  0.00    +0.000 A 
ATOM      3  C   UNL     1      50.139   6.573  16.090  0.00  0.00    +0.000 A 
ATOM      4  C   UNL     1      48.862   6.399  15.539  0.00  0.00    +0.000 A 
ATOM      5  C   UNL     1      48.050   5.371  16.034  0.00  0.00    +0.000 A 
ATOM      6  C   UNL     1      48.494   4.548  17.074  0.00  0.00    +0.000 A 
ENDROOT
BRANCH   1   7
ATOM      7  C   UNL     1      50.247   3.841  18.753  0.00  0.00    +0.000 C 
BRANCH   7  10
ATOM      8  O   UNL     1      50.596   1.516  17.235  0.00  0.00    +0.000 OA
ATOM      9  C   UNL     1      51.591   2.081  17.681  0.00  0.00    +0.000 C 
ATOM     10  N   UNL     1      51.513   3.227  18.439  0.00  0.00    +0.000 N 
ATOM     11  H   UNL     1      52.358   3.721  18.685  0.00  0.00    +0.000 HD
BRANCH   9  12
ATOM     12  C   UNL     1      52.937   1.601  17.442  0.00  0.00    +0.000 A 
ATOM     13  C   UNL     1      54.169   2.237  17.476  0.00  0.00    +0.000 A 
ATOM     14  C   UNL     1      55.170   1.281  17.178  0.00  0.00    +0.000 A 
ATOM     15  C   UNL     1      54.535   0.080  16.967  0.00  0.00    +0.000 A 
ATOM     16  N   UNL     1      53.191   0.281  17.131  0.00  0.00    +0.000 N 
ATOM     17  H   UNL     1      52.469  -0.425  17.044  0.00  0.00    +0.000 HD
ENDBRANCH   9  12
ENDBRANCH   7  10
ENDBRANCH   1   7
BRANCH   4  18
ATOM     18  C   UNL     1      48.380   7.275  14.410  0.00  0.00    +0.000 C 
BRANCH  18  19
ATOM     19  N   UNL     1      47.123   6.806  13.881  0.00  0.00    +0.000 N 
ATOM     20  C   UNL     1      46.898   6.748  12.529  0.00  0.00    +0.000 C 
ATOM     21  O   UNL     1      47.769   7.043  11.713  0.00  0.00    +0.000 OA
ATOM     22  H   UNL     1      46.334   6.784  14.520  0.00  0.00    +0.000 HD
BRANCH  20  23
ATOM     23  C   UNL     1      45.583   6.258  12.098  0.00  0.00    +0.000 A 
ATOM     24  C   UNL     1      44.661   7.145  11.557  0.00  0.00    +0.000 A 
ATOM     25  S   UNL     1      43.209   6.404  11.055  0.00  0.00    +0.000 S 
ATOM     26  C   UNL     1      43.739   4.878  11.592  0.00  0.00    +0.000 A 
ATOM     27  N   UNL     1      42.943   3.782  11.476  0.00  0.00    +0.000 NA
ATOM     28  C   UNL     1      43.454   2.698  11.957  0.00  0.00    +0.000 A 
ATOM     29  N   UNL     1      44.692   2.611  12.539  0.00  0.00    +0.000 N 
ATOM     30  C   UNL     1      45.543   3.686  12.650  0.00  0.00    +0.000 A 
ATOM     31  O   UNL     1      46.662   3.565  13.137  0.00  0.00    +0.000 OA
ATOM     32  C   UNL     1      45.011   4.932  12.134  0.00  0.00    +0.000 A 
ATOM     33  H   UNL     1      45.038   1.731  12.891  0.00  0.00    +0.000 HD
ENDBRANCH  20  23
ENDBRANCH  18  19
ENDBRANCH   4  18
TORSDOF 6
ENDMDL
MODEL 6
REMARK VINA RESULT:    -7.037      1.349      1.734
REMARK INTER + INTRA:         -10.403
REMARK INTER:                  -9.374
REMARK INTRA:                  -1.030
REMARK UNBOUND:                -0.898
REMARK  Name = 
REMARK  6 active torsions:
REMARK  status: ('A' for Active; 'I' for Inactive)
REMARK    1  A    between atoms: C_2  and  C_25
REMARK    2  A    between atoms: N_3  and  C_4
REMARK    3  A    between atoms: C_4  and  C_5
REMARK    4  A    between atoms: C_8  and  C_9
REMARK    5  A    between atoms: C_9  and  N_10
REMARK    6  A    between atoms: C_11  and  C_13
REMARK                            x       y       z     vdW  Elec       q    Type
REMARK                         _______ _______ _______ _____ _____    ______ ____
ROOT
ATOM      1  C   UNL     1      45.489   6.634  11.500  0.00  0.00    +0.000 A 
ATOM      2  C   UNL     1      46.765   6.149  11.820  0.00  0.00    +0.000 A 
ATOM      3  C   UNL     1      47.648   6.914  12.588  0.00  0.00    +0.000 A 
ATOM      4  C   UNL     1      47.267   8.173  13.071  0.00  0.00    +0.000 A 
ATOM      5  C   UNL     1      45.992   8.658  12.751  0.00  0.00    +0.000 A 
ATOM      6  C   UNL     1      45.108   7.892  11.985  0.00  0.00    +0.000 A 
ENDROOT
BRANCH   1   7
ATOM      7  C   UNL     1      44.533   5.802  10.683  0.00  0.00    +0.000 C 
BRANCH   7  10
ATOM      8  O   UNL     1      43.942   3.152  10.008  0.00  0.00    +0.000 OA
ATOM      9  C   UNL     1      44.872   3.710   9.434  0.00  0.00    +0.000 C 
ATOM     10  N   UNL     1      45.235   5.010   9.705  0.00  0.00    +0.000 N 
ATOM     11  H   UNL     1      45.927   5.465   9.129  0.00  0.00    +0.000 HD
BRANCH   9  12
ATOM     12  C   UNL     1      45.667   3.058   8.414  0.00  0.00    +0.000 A 
ATOM     13  C   UNL     1      46.232   3.526   7.237  0.00  0.00    +0.000 A 
ATOM     14  C   UNL     1      46.929   2.456   6.623  0.00  0.00    +0.000 A 
ATOM     15  C   UNL     1      46.777   1.355   7.431  0.00  0.00    +0.000 A 
ATOM     16  N   UNL     1      46.018   1.727   8.509  0.00  0.00    +0.000 N 
ATOM     17  H   UNL     1      45.745   1.127   9.279  0.00  0.00    +0.000 HD
ENDBRANCH   9  12
ENDBRANCH   7  10
ENDBRANCH   1   7
BRANCH   4  18
ATOM     18  C   UNL     1      48.219   9.010  13.888  0.00  0.00    +0.000 C 
BRANCH  18  19
ATOM     19  N   UNL     1      48.859   8.226  14.915  0.00  0.00    +0.000 N 
ATOM     20  C   UNL     1      48.650   8.490  16.245  0.00  0.00    +0.000 C 
ATOM     21  O   UNL     1      47.876   9.368  16.619  0.00  0.00    +0.000 OA
ATOM     22  H   UNL     1      49.660   7.668  14.636  0.00  0.00    +0.000 HD
BRANCH  20  23
ATOM     23  C   UNL     1      49.354   7.632  17.207  0.00  0.00    +0.000 A 
ATOM     24  C   UNL     1      50.198   8.204  18.150  0.00  0.00    +0.000 A 
ATOM     25  S   UNL     1      50.888   7.075  19.227  0.00  0.00    +0.000 S 
ATOM     26  C   UNL     1      50.124   5.775  18.438  0.00  0.00    +0.000 A 
ATOM     27  N   UNL     1      50.317   4.495  18.855  0.00  0.00    +0.000 NA
ATOM     28  C   UNL     1      49.709   3.605  18.144  0.00  0.00    +0.000 A 
ATOM     29  N   UNL     1      48.921   3.880  17.056  0.00  0.00    +0.000 N 
ATOM     30  C   UNL     1      48.674   5.160  16.618  0.00  0.00    +0.000 A 
ATOM     31  O   UNL     1      47.928   5.375  15.668  0.00  0.00    +0.000 OA
ATOM     32  C   UNL     1      49.344   6.198  17.377  0.00  0.00    +0.000 A 
ATOM     33  H   UNL     1      48.466   3.139  16.546  0.00  0.00    +0.000 HD
ENDBRANCH  20  23
ENDBRANCH  18  19
ENDBRANCH   4  18
TORSDOF 6
ENDMDL
MODEL 7
REMARK VINA RESULT:    -6.971      1.925      2.305
REMARK INTER + INTRA:         -10.314
REMARK INTER:                  -9.439
REMARK INTRA:                  -0.875
REMARK UNBOUND:                -0.898
REMARK  Name = 
REMARK  6 active torsions:
REMARK  status: ('A' for Active; 'I' for Inactive)
REMARK    1  A    between atoms: C_2  and  C_25
REMARK    2  A    between atoms: N_3  and  C_4
REMARK    3  A    between atoms: C_4  and  C_5
REMARK    4  A    between atoms: C_8  and  C_9
REMARK    5  A    between atoms: C_9  and  N_10
REMARK    6  A    between atoms: C_11  and  C_13
REMARK                            x       y       z     vdW  Elec       q    Type
REMARK                         _______ _______ _______ _____ _____    ______ ____
ROOT
ATOM      1  C   UNL     1      45.623   4.971  12.121  0.00  0.00    +0.000 A 
ATOM      2  C   UNL     1      46.002   4.558  13.405  0.00  0.00    +0.000 A 
ATOM      3  C   UNL     1      46.886   5.326  14.171  0.00  0.00    +0.000 A 
ATOM      4  C   UNL     1      47.395   6.534  13.675  0.00  0.00    +0.000 A 
ATOM      5  C   UNL     1      47.017   6.945  12.390  0.00  0.00    +0.000 A 
ATOM      6  C   UNL     1      46.131   6.179  11.626  0.00  0.00    +0.000 A 
ENDROOT
BRANCH   1   7
ATOM      7  C   UNL     1      44.660   4.149  11.303  0.00  0.00    +0.000 C 
BRANCH   7  10
ATOM      8  O   UNL     1      44.246   4.266   8.538  0.00  0.00    +0.000 OA
ATOM      9  C   UNL     1      45.086   3.483   8.973  0.00  0.00    +0.000 C 
ATOM     10  N   UNL     1      45.353   3.358  10.317  0.00  0.00    +0.000 N 
ATOM     11  H   UNL     1      46.130   2.789  10.620  0.00  0.00    +0.000 HD
BRANCH   9  12
ATOM     12  C   UNL     1      45.880   2.629   8.114  0.00  0.00    +0.000 A 
ATOM     13  C   UNL     1      46.610   2.889   6.963  0.00  0.00    +0.000 A 
ATOM     14  C   UNL     1      47.213   1.681   6.537  0.00  0.00    +0.000 A 
ATOM     15  C   UNL     1      46.842   0.704   7.431  0.00  0.00    +0.000 A 
ATOM     16  N   UNL     1      46.042   1.284   8.379  0.00  0.00    +0.000 N 
ATOM     17  H   UNL     1      45.621   0.812   9.171  0.00  0.00    +0.000 HD
ENDBRANCH   9  12
ENDBRANCH   7  10
ENDBRANCH   1   7
BRANCH   4  18
ATOM     18  C   UNL     1      48.359   7.360  14.488  0.00  0.00    +0.000 C 
BRANCH  18  19
ATOM     19  N   UNL     1      48.770   6.664  15.683  0.00  0.00    +0.000 N 
ATOM     20  C   UNL     1      50.075   6.685  16.104  0.00  0.00    +0.000 C 
ATOM     21  O   UNL     1      50.937   7.333  15.515  0.00  0.00    +0.000 OA
ATOM     22  H   UNL     1      48.141   5.952  16.040  0.00  0.00    +0.000 HD
BRANCH  20  23
ATOM     23  C   UNL     1      50.385   5.941  17.332  0.00  0.00    +0.000 A 
ATOM     24  C   UNL     1      51.510   5.129  17.379  0.00  0.00    +0.000 A 
ATOM     25  S   UNL     1      51.756   4.385  18.894  0.00  0.00    +0.000 S 
ATOM     26  C   UNL     1      50.337   5.081  19.527  0.00  0.00    +0.000 A 
ATOM     27  N   UNL     1      49.942   4.825  20.802  0.00  0.00    +0.000 NA
ATOM     28  C   UNL     1      48.829   5.386  21.139  0.00  0.00    +0.000 A 
ATOM     29  N   UNL     1      48.077   6.184  20.316  0.00  0.00    +0.000 N 
ATOM     30  C   UNL     1      48.453   6.495  19.030  0.00  0.00    +0.000 A 
ATOM     31  O   UNL     1      47.780   7.248  18.334  0.00  0.00    +0.000 OA
ATOM     32  C   UNL     1      49.693   5.879  18.598  0.00  0.00    +0.000 A 
ATOM     33  H   UNL     1      47.218   6.600  20.642  0.00  0.00    +0.000 HD
ENDBRANCH  20  23
ENDBRANCH  18  19
ENDBRANCH   4  18
TORSDOF 6
ENDMDL
MODEL 8
REMARK VINA RESULT:    -6.690      3.490      8.234
REMARK INTER + INTRA:          -9.934
REMARK INTER:                  -9.039
REMARK INTRA:                  -0.894
REMARK UNBOUND:                -0.898
REMARK  Name = 
REMARK  6 active torsions:
REMARK  status: ('A' for Active; 'I' for Inactive)
REMARK    1  A    between atoms: C_2  and  C_25
REMARK    2  A    between atoms: N_3  and  C_4
REMARK    3  A    between atoms: C_4  and  C_5
REMARK    4  A    between atoms: C_8  and  C_9
REMARK    5  A    between atoms: C_9  and  N_10
REMARK    6  A    between atoms: C_11  and  C_13
REMARK                            x       y       z     vdW  Elec       q    Type
REMARK                         _______ _______ _______ _____ _____    ______ ____
ROOT
ATOM      1  C   UNL     1      49.459   6.477  16.533  0.00  0.00    +0.000 A 
ATOM      2  C   UNL     1      48.421   5.813  15.866  0.00  0.00    +0.000 A 
ATOM      3  C   UNL     1      48.042   6.195  14.574  0.00  0.00    +0.000 A 
ATOM      4  C   UNL     1      48.708   7.236  13.914  0.00  0.00    +0.000 A 
ATOM      5  C   UNL     1      49.746   7.900  14.581  0.00  0.00    +0.000 A 
ATOM      6  C   UNL     1      50.126   7.517  15.872  0.00  0.00    +0.000 A 
ENDROOT
BRANCH   1   7
ATOM      7  C   UNL     1      49.874   6.056  17.919  0.00  0.00    +0.000 C 
BRANCH   7  10
ATOM      8  O   UNL     1      49.230   3.341  18.132  0.00  0.00    +0.000 OA
ATOM      9  C   UNL     1      50.407   3.655  17.986  0.00  0.00    +0.000 C 
ATOM     10  N   UNL     1      50.815   4.965  17.875  0.00  0.00    +0.000 N 
ATOM     11  H   UNL     1      51.775   5.171  17.640  0.00  0.00    +0.000 HD
BRANCH   9  12
ATOM     12  C   UNL     1      51.474   2.679  17.906  0.00  0.00    +0.000 A 
ATOM     13  C   UNL     1      52.840   2.775  18.128  0.00  0.00    +0.000 A 
ATOM     14  C   UNL     1      53.414   1.496  17.923  0.00  0.00    +0.000 A 
ATOM     15  C   UNL     1      52.393   0.642  17.579  0.00  0.00    +0.000 A 
ATOM     16  N   UNL     1      51.228   1.362  17.574  0.00  0.00    +0.000 N 
ATOM     17  H   UNL     1      50.305   0.998  17.362  0.00  0.00    +0.000 HD
ENDBRANCH   9  12
ENDBRANCH   7  10
ENDBRANCH   1   7
BRANCH   4  18
ATOM     18  C   UNL     1      48.297   7.662  12.527  0.00  0.00    +0.000 C 
BRANCH  18  19
ATOM     19  N   UNL     1      47.579   6.613  11.846  0.00  0.00    +0.000 N 
ATOM     20  C   UNL     1      46.265   6.771  11.484  0.00  0.00    +0.000 C 
ATOM     21  O   UNL     1      45.660   7.823  11.677  0.00  0.00    +0.000 OA
ATOM     22  H   UNL     1      47.977   5.681  11.888  0.00  0.00    +0.000 HD
BRANCH  20  23
ATOM     23  C   UNL     1      45.629   5.640  10.798  0.00  0.00    +0.000 A 
ATOM     24  C   UNL     1      45.735   5.524   9.417  0.00  0.00    +0.000 A 
ATOM     25  S   UNL     1      44.992   4.124   8.787  0.00  0.00    +0.000 S 
ATOM     26  C   UNL     1      44.456   3.648  10.331  0.00  0.00    +0.000 A 
ATOM     27  N   UNL     1      43.720   2.517  10.496  0.00  0.00    +0.000 NA
ATOM     28  C   UNL     1      43.348   2.296  11.713  0.00  0.00    +0.000 A 
ATOM     29  N   UNL     1      43.649   3.103  12.780  0.00  0.00    +0.000 N 
ATOM     30  C   UNL     1      44.415   4.239  12.664  0.00  0.00    +0.000 A 
ATOM     31  O   UNL     1      44.703   4.916  13.646  0.00  0.00    +0.000 OA
ATOM     32  C   UNL     1      44.849   4.539  11.314  0.00  0.00    +0.000 A 
ATOM     33  H   UNL     1      43.333   2.871  13.709  0.00  0.00    +0.000 HD
ENDBRANCH  20  23
ENDBRANCH  18  19
ENDBRANCH   4  18
TORSDOF 6
ENDMDL
MODEL 9
REMARK VINA RESULT:    -6.632      4.918      7.571
REMARK INTER + INTRA:          -9.856
REMARK INTER:                  -8.998
REMARK INTRA:                  -0.858
REMARK UNBOUND:                -0.898
REMARK  Name = 
REMARK  6 active torsions:
REMARK  status: ('A' for Active; 'I' for Inactive)
REMARK    1  A    between atoms: C_2  and  C_25
REMARK    2  A    between atoms: N_3  and  C_4
REMARK    3  A    between atoms: C_4  and  C_5
REMARK    4  A    between atoms: C_8  and  C_9
REMARK    5  A    between atoms: C_9  and  N_10
REMARK    6  A    between atoms: C_11  and  C_13
REMARK                            x       y       z     vdW  Elec       q    Type
REMARK                         _______ _______ _______ _____ _____    ______ ____
ROOT
ATOM      1  C   UNL     1      50.537   8.968  11.370  0.00  0.00    +0.000 A 
ATOM      2  C   UNL     1      50.108   7.677  11.705  0.00  0.00    +0.000 A 
ATOM      3  C   UNL     1      48.781   7.440  12.079  0.00  0.00    +0.000 A 
ATOM      4  C   UNL     1      47.849   8.487  12.105  0.00  0.00    +0.000 A 
ATOM      5  C   UNL     1      48.279   9.777  11.770  0.00  0.00    +0.000 A 
ATOM      6  C   UNL     1      49.605  10.013  11.394  0.00  0.00    +0.000 A 
ENDROOT
BRANCH   1   7
ATOM      7  C   UNL     1      51.965   9.219  10.955  0.00  0.00    +0.000 C 
BRANCH   7  10
ATOM      8  O   UNL     1      53.906   7.213  11.143  0.00  0.00    +0.000 OA
ATOM      9  C   UNL     1      53.328   7.372  10.072  0.00  0.00    +0.000 C 
ATOM     10  N   UNL     1      52.362   8.336   9.888  0.00  0.00    +0.000 N 
ATOM     11  H   UNL     1      51.834   8.354   9.029  0.00  0.00    +0.000 HD
BRANCH   9  12
ATOM     12  C   UNL     1      53.601   6.556   8.906  0.00  0.00    +0.000 A 
ATOM     13  C   UNL     1      52.890   6.344   7.734  0.00  0.00    +0.000 A 
ATOM     14  C   UNL     1      53.634   5.457   6.918  0.00  0.00    +0.000 A 
ATOM     15  C   UNL     1      54.783   5.142   7.603  0.00  0.00    +0.000 A 
ATOM     16  N   UNL     1      54.757   5.810   8.798  0.00  0.00    +0.000 N 
ATOM     17  H   UNL     1      55.475   5.778   9.513  0.00  0.00    +0.000 HD
ENDBRANCH   9  12
ENDBRANCH   7  10
ENDBRANCH   1   7
BRANCH   4  18
ATOM     18  C   UNL     1      46.420   8.242  12.520  0.00  0.00    +0.000 C 
BRANCH  18  19
ATOM     19  N   UNL     1      46.010   6.892  12.220  0.00  0.00    +0.000 N 
ATOM     20  C   UNL     1      44.807   6.633  11.613  0.00  0.00    +0.000 C 
ATOM     21  O   UNL     1      44.053   7.535  11.255  0.00  0.00    +0.000 OA
ATOM     22  H   UNL     1      46.496   6.145  12.706  0.00  0.00    +0.000 HD
BRANCH  20  23
ATOM     23  C   UNL     1      44.487   5.223  11.357  0.00  0.00    +0.000 A 
ATOM     24  C   UNL     1      43.735   4.509  12.280  0.00  0.00    +0.000 A 
ATOM     25  S   UNL     1      43.404   2.905  11.802  0.00  0.00    +0.000 S 
ATOM     26  C   UNL     1      44.299   3.091  10.366  0.00  0.00    +0.000 A 
ATOM     27  N   UNL     1      44.439   2.060   9.491  0.00  0.00    +0.000 NA
ATOM     28  C   UNL     1      45.174   2.327   8.464  0.00  0.00    +0.000 A 
ATOM     29  N   UNL     1      45.778   3.535   8.231  0.00  0.00    +0.000 N 
ATOM     30  C   UNL     1      45.640   4.614   9.072  0.00  0.00    +0.000 A 
ATOM     31  O   UNL     1      46.159   5.695   8.811  0.00  0.00    +0.000 OA
ATOM     32  C   UNL     1      44.832   4.363  10.248  0.00  0.00    +0.000 A 
ATOM     33  H   UNL     1      46.336   3.683   7.403  0.00  0.00    +0.000 HD
ENDBRANCH  20  23
ENDBRANCH  18  19
ENDBRANCH   4  18
TORSDOF 6
ENDMDL
