MODEL 1
REMARK VINA RESULT:    -7.264      0.000      0.000
REMARK INTER + INTRA:         -10.819
REMARK INTER:                  -9.812
REMARK INTRA:                  -1.007
REMARK UNBOUND:                -1.007
REMARK  Name = 
REMARK  6 active torsions:
REMARK  status: ('A' for Active; 'I' for Inactive)
REMARK    1  A    between atoms: C_2  and  C_20
REMARK    2  A    between atoms: N_3  and  C_4
REMARK    3  A    between atoms: C_4  and  C_5
REMARK    4  A    between atoms: C_8  and  C_9
REMARK    5  A    between atoms: C_9  and  N_10
REMARK    6  A    between atoms: C_11  and  C_13
REMARK                            x       y       z     vdW  Elec       q    Type
REMARK                         _______ _______ _______ _____ _____    ______ ____
ROOT
ATOM      1  C   UNL     1      46.309   4.346  13.449  0.00  0.00    +0.000 A 
ATOM      2  C   UNL     1      45.648   3.260  12.858  0.00  0.00    +0.000 A 
ATOM      3  C   UNL     1      44.949   3.414  11.654  0.00  0.00    +0.000 A 
ATOM      4  C   UNL     1      44.915   4.653  11.001  0.00  0.00    +0.000 A 
ATOM      5  C   UNL     1      45.597   5.733  11.579  0.00  0.00    +0.000 A 
ATOM      6  C   UNL     1      46.295   5.578  12.784  0.00  0.00    +0.000 A 
ENDROOT
BRANCH   1   7
ATOM      7  C   UNL     1      47.057   4.179  14.751  0.00  0.00    +0.000 C 
BRANCH   7  10
ATOM      8  O   UNL     1      48.996   4.561  16.736  0.00  0.00    +0.000 OA
ATOM      9  C   UNL     1      48.519   5.545  16.178  0.00  0.00    +0.000 C 
ATOM     10  N   UNL     1      47.510   5.449  15.252  0.00  0.00    +0.000 N 
ATOM     11  H   UNL     1      47.306   6.253  14.669  0.00  0.00    +0.000 HD
BRANCH   9  12
ATOM     12  C   UNL     1      48.967   6.903  16.497  0.00  0.00    +0.000 A 
ATOM     13  C   UNL     1      48.911   7.378  17.803  0.00  0.00    +0.000 A 
ATOM     14  S   UNL     1      49.452   8.989  17.968  0.00  0.00    +0.000 S 
ATOM     15  C   UNL     1      49.828   9.093  16.311  0.00  0.00    +0.000 A 
ATOM     16  N   UNL     1      50.369  10.223  15.781  0.00  0.00    +0.000 NA
ATOM     17  C   UNL     1      50.632  10.149  14.519  0.00  0.00    +0.000 A 
ATOM     18  N   UNL     1      50.400   9.047  13.737  0.00  0.00    +0.000 N 
ATOM     19  C   UNL     1      49.829   7.898  14.221  0.00  0.00    +0.000 A 
ATOM     20  O   UNL     1      49.588   6.952  13.478  0.00  0.00    +0.000 OA
ATOM     21  C   UNL     1      49.526   7.923  15.639  0.00  0.00    +0.000 A 
ATOM     22  H   UNL     1      50.616   9.055  12.751  0.00  0.00    +0.000 HD
ENDBRANCH   9  12
ENDBRANCH   7  10
ENDBRANCH   1   7
BRANCH   4  23
ATOM     23  C   UNL     1      44.165   4.823   9.703  0.00  0.00    +0.000 C 
BRANCH  23  24
ATOM     24  N   UNL     1      44.462   3.778   8.750  0.00  0.00    +0.000 N 
ATOM     25  C   UNL     1      45.567   3.877   7.919  0.00  0.00    +0.000 C 
ATOM     26  O   UNL     1      46.358   4.813   7.983  0.00  0.00    +0.000 OA
ATOM     27  H   UNL     1      43.769   3.061   8.570  0.00  0.00    +0.000 HD
BRANCH  25  28
ATOM     28  C   UNL     1      45.692   2.712   6.910  0.00  0.00    +0.000 C 
ATOM     29  C   UNL     1      46.728   2.946   5.823  0.00  0.00    +0.000 C 
ATOM     30  C   UNL     1      48.026   2.499   6.464  0.00  0.00    +0.000 C 
ATOM     31  C   UNL     1      47.613   1.403   7.432  0.00  0.00    +0.000 C 
ATOM     32  N   UNL     1      46.154   1.480   7.592  0.00  0.00    +0.000 NA
ATOM     33  H   UNL     1      45.917   1.513   8.583  0.00  0.00    +0.000 HD
ENDBRANCH  25  28
ENDBRANCH  23  24
ENDBRANCH   4  23
TORSDOF 6
ENDMDL
MODEL 2
REMARK VINA RESULT:    -7.106      1.541      2.437
REMARK INTER + INTRA:         -10.606
REMARK INTER:                  -9.875
REMARK INTRA:                  -0.731
REMARK UNBOUND:                -1.007
REMARK  Name = 
REMARK  6 active torsions:
REMARK  status: ('A' for Active; 'I' for Inactive)
REMARK    1  A    between atoms: C_2  and  C_20
REMARK    2  A    between atoms: N_3  and  C_4
REMARK    3  A    between atoms: C_4  and  C_5
REMARK    4  A    between atoms: C_8  and  C_9
REMARK    5  A    between atoms: C_9  and  N_10
REMARK    6  A    between atoms: C_11  and  C_13
REMARK                            x       y       z     vdW  Elec       q    Type
REMARK                         _______ _______ _______ _____ _____    ______ ____
ROOT
ATOM      1  C   UNL     1      46.366   4.364  13.495  0.00  0.00    +0.000 A 
ATOM      2  C   UNL     1      45.798   3.252  12.859  0.00  0.00    +0.000 A 
ATOM      3  C   UNL     1      45.082   3.397  11.663  0.00  0.00    +0.000 A 
ATOM      4  C   UNL     1      44.938   4.654  11.065  0.00  0.00    +0.000 A 
ATOM      5  C   UNL     1      45.528   5.764  11.688  0.00  0.00    +0.000 A 
ATOM      6  C   UNL     1      46.242   5.618  12.884  0.00  0.00    +0.000 A 
ENDROOT
BRANCH   1   7
ATOM      7  C   UNL     1      47.132   4.207  14.788  0.00  0.00    +0.000 C 
BRANCH   7  10
ATOM      8  O   UNL     1      49.140   4.683  16.681  0.00  0.00    +0.000 OA
ATOM      9  C   UNL     1      48.532   5.641  16.211  0.00  0.00    +0.000 C 
ATOM     10  N   UNL     1      47.483   5.489  15.338  0.00  0.00    +0.000 N 
ATOM     11  H   UNL     1      47.163   6.297  14.817  0.00  0.00    +0.000 HD
BRANCH   9  12
ATOM     12  C   UNL     1      48.859   7.019  16.586  0.00  0.00    +0.000 A 
ATOM     13  C   UNL     1      49.579   7.836  15.720  0.00  0.00    +0.000 A 
ATOM     14  S   UNL     1      49.882   9.395  16.346  0.00  0.00    +0.000 S 
ATOM     15  C   UNL     1      49.018   9.053  17.772  0.00  0.00    +0.000 A 
ATOM     16  N   UNL     1      48.865   9.992  18.745  0.00  0.00    +0.000 NA
ATOM     17  C   UNL     1      48.161   9.604  19.755  0.00  0.00    +0.000 A 
ATOM     18  N   UNL     1      47.599   8.360  19.885  0.00  0.00    +0.000 N 
ATOM     19  C   UNL     1      47.753   7.374  18.945  0.00  0.00    +0.000 A 
ATOM     20  O   UNL     1      47.279   6.256  19.120  0.00  0.00    +0.000 OA
ATOM     21  C   UNL     1      48.524   7.762  17.780  0.00  0.00    +0.000 A 
ATOM     22  H   UNL     1      47.069   8.113  20.707  0.00  0.00    +0.000 HD
ENDBRANCH   9  12
ENDBRANCH   7  10
ENDBRANCH   1   7
BRANCH   4  23
ATOM     23  C   UNL     1      44.171   4.815   9.776  0.00  0.00    +0.000 C 
BRANCH  23  24
ATOM     24  N   UNL     1      44.460   3.766   8.824  0.00  0.00    +0.000 N 
ATOM     25  C   UNL     1      45.542   3.874   7.966  0.00  0.00    +0.000 C 
ATOM     26  O   UNL     1      46.321   4.823   8.003  0.00  0.00    +0.000 OA
ATOM     27  H   UNL     1      43.774   3.037   8.667  0.00  0.00    +0.000 HD
BRANCH  25  28
ATOM     28  C   UNL     1      45.660   2.703   6.963  0.00  0.00    +0.000 C 
ATOM     29  C   UNL     1      46.669   2.942   5.851  0.00  0.00    +0.000 C 
ATOM     30  C   UNL     1      47.986   2.516   6.466  0.00  0.00    +0.000 C 
ATOM     31  C   UNL     1      47.608   1.423   7.452  0.00  0.00    +0.000 C 
ATOM     32  N   UNL     1      46.153   1.483   7.644  0.00  0.00    +0.000 NA
ATOM     33  H   UNL     1      45.938   1.521   8.639  0.00  0.00    +0.000 HD
ENDBRANCH  25  28
ENDBRANCH  23  24
ENDBRANCH   4  23
TORSDOF 6
ENDMDL
MODEL 3
REMARK VINA RESULT:    -7.091      3.011      4.845
REMARK INTER + INTRA:         -10.585
REMARK INTER:                  -8.995
REMARK INTRA:                  -1.590
REMARK UNBOUND:                -1.007
REMARK  Name = 
REMARK  6 active torsions:
REMARK  status: ('A' for Active; 'I' for Inactive)
REMARK    1  A    between atoms: C_2  and  C_20
REMARK    2  A    between atoms: N_3  and  C_4
REMARK    3  A    between atoms: C_4  and  C_5
REMARK    4  A    between atoms: C_8  and  C_9
REMARK    5  A    between atoms: C_9  and  N_10
REMARK    6  A    between atoms: C_11  and  C_13
REMARK                            x       y       z     vdW  Elec       q    Type
REMARK                         _______ _______ _______ _____ _____    ______ ____
ROOT
ATOM      1  C   UNL     1      48.526   8.020  13.323  0.00  0.00    +0.000 A 
ATOM      2  C   UNL     1      47.538   8.962  13.645  0.00  0.00    +0.000 A 
ATOM      3  C   UNL     1      46.297   8.949  12.996  0.00  0.00    +0.000 A 
ATOM      4  C   UNL     1      46.005   7.980  12.029  0.00  0.00    +0.000 A 
ATOM      5  C   UNL     1      46.984   7.022  11.726  0.00  0.00    +0.000 A 
ATOM      6  C   UNL     1      48.226   7.036  12.374  0.00  0.00    +0.000 A 
ENDROOT
BRANCH   1   7
ATOM      7  C   UNL     1      49.867   8.039  14.019  0.00  0.00    +0.000 C 
BRANCH   7  10
ATOM      8  O   UNL     1      49.254   8.548  16.704  0.00  0.00    +0.000 OA
ATOM      9  C   UNL     1      49.521   7.398  16.366  0.00  0.00    +0.000 C 
ATOM     10  N   UNL     1      49.907   7.078  15.088  0.00  0.00    +0.000 N 
ATOM     11  H   UNL     1      49.902   6.104  14.808  0.00  0.00    +0.000 HD
BRANCH   9  12
ATOM     12  C   UNL     1      49.486   6.287  17.321  0.00  0.00    +0.000 A 
ATOM     13  C   UNL     1      50.248   6.330  18.484  0.00  0.00    +0.000 A 
ATOM     14  S   UNL     1      50.093   4.933  19.453  0.00  0.00    +0.000 S 
ATOM     15  C   UNL     1      48.965   4.244  18.382  0.00  0.00    +0.000 A 
ATOM     16  N   UNL     1      48.398   3.034  18.639  0.00  0.00    +0.000 NA
ATOM     17  C   UNL     1      47.537   2.650  17.756  0.00  0.00    +0.000 A 
ATOM     18  N   UNL     1      47.194   3.364  16.637  0.00  0.00    +0.000 N 
ATOM     19  C   UNL     1      47.760   4.572  16.323  0.00  0.00    +0.000 A 
ATOM     20  O   UNL     1      47.466   5.157  15.286  0.00  0.00    +0.000 OA
ATOM     21  C   UNL     1      48.726   5.058  17.290  0.00  0.00    +0.000 A 
ATOM     22  H   UNL     1      46.521   3.003  15.977  0.00  0.00    +0.000 HD
ENDBRANCH   9  12
ENDBRANCH   7  10
ENDBRANCH   1   7
BRANCH   4  23
ATOM     23  C   UNL     1      44.669   7.961  11.330  0.00  0.00    +0.000 C 
BRANCH  23  24
ATOM     24  N   UNL     1      44.369   6.675  10.741  0.00  0.00    +0.000 N 
ATOM     25  C   UNL     1      43.542   5.777  11.396  0.00  0.00    +0.000 C 
ATOM     26  O   UNL     1      42.996   6.041  12.463  0.00  0.00    +0.000 OA
ATOM     27  H   UNL     1      44.900   6.364   9.936  0.00  0.00    +0.000 HD
BRANCH  25  28
ATOM     28  C   UNL     1      43.390   4.424  10.663  0.00  0.00    +0.000 C 
ATOM     29  C   UNL     1      44.713   3.760  10.314  0.00  0.00    +0.000 C 
ATOM     30  C   UNL     1      45.080   3.008  11.578  0.00  0.00    +0.000 C 
ATOM     31  C   UNL     1      43.744   2.638  12.199  0.00  0.00    +0.000 C 
ATOM     32  N   UNL     1      42.708   3.436  11.531  0.00  0.00    +0.000 NA
ATOM     33  H   UNL     1      42.136   3.912  12.228  0.00  0.00    +0.000 HD
ENDBRANCH  25  28
ENDBRANCH  23  24
ENDBRANCH   4  23
TORSDOF 6
ENDMDL
MODEL 4
REMARK VINA RESULT:    -7.077      4.983      9.364
REMARK INTER + INTRA:         -10.567
REMARK INTER:                  -9.653
REMARK INTRA:                  -0.914
REMARK UNBOUND:                -1.007
REMARK  Name = 
REMARK  6 active torsions:
REMARK  status: ('A' for Active; 'I' for Inactive)
REMARK    1  A    between atoms: C_2  and  C_20
REMARK    2  A    between atoms: N_3  and  C_4
REMARK    3  A    between atoms: C_4  and  C_5
REMARK    4  A    between atoms: C_8  and  C_9
REMARK    5  A    between atoms: C_9  and  N_10
REMARK    6  A    between atoms: C_11  and  C_13
REMARK                            x       y       z     vdW  Elec       q    Type
REMARK                         _______ _______ _______ _____ _____    ______ ____
ROOT
ATOM      1  C   UNL     1      48.639   3.640  17.042  0.00  0.00    +0.000 A 
ATOM      2  C   UNL     1      49.090   4.939  17.316  0.00  0.00    +0.000 A 
ATOM      3  C   UNL     1      50.409   5.168  17.728  0.00  0.00    +0.000 A 
ATOM      4  C   UNL     1      51.314   4.106  17.853  0.00  0.00    +0.000 A 
ATOM      5  C   UNL     1      50.869   2.810  17.554  0.00  0.00    +0.000 A 
ATOM      6  C   UNL     1      49.549   2.582  17.144  0.00  0.00    +0.000 A 
ENDROOT
BRANCH   1   7
ATOM      7  C   UNL     1      47.214   3.395  16.604  0.00  0.00    +0.000 C 
BRANCH   7  10
ATOM      8  O   UNL     1      47.250   3.161  13.813  0.00  0.00    +0.000 OA
ATOM      9  C   UNL     1      46.767   4.172  14.315  0.00  0.00    +0.000 C 
ATOM     10  N   UNL     1      46.781   4.399  15.669  0.00  0.00    +0.000 N 
ATOM     11  H   UNL     1      46.186   5.127  16.047  0.00  0.00    +0.000 HD
BRANCH   9  12
ATOM     12  C   UNL     1      46.177   5.234  13.495  0.00  0.00    +0.000 A 
ATOM     13  C   UNL     1      46.884   6.403  13.237  0.00  0.00    +0.000 A 
ATOM     14  S   UNL     1      46.019   7.527  12.286  0.00  0.00    +0.000 S 
ATOM     15  C   UNL     1      44.692   6.472  12.142  0.00  0.00    +0.000 A 
ATOM     16  N   UNL     1      43.594   6.816  11.415  0.00  0.00    +0.000 NA
ATOM     17  C   UNL     1      42.679   5.906  11.367  0.00  0.00    +0.000 A 
ATOM     18  N   UNL     1      42.760   4.684  11.984  0.00  0.00    +0.000 N 
ATOM     19  C   UNL     1      43.832   4.307  12.751  0.00  0.00    +0.000 A 
ATOM     20  O   UNL     1      43.844   3.226  13.330  0.00  0.00    +0.000 OA
ATOM     21  C   UNL     1      44.897   5.288  12.826  0.00  0.00    +0.000 A 
ATOM     22  H   UNL     1      42.003   4.018  11.919  0.00  0.00    +0.000 HD
ENDBRANCH   9  12
ENDBRANCH   7  10
ENDBRANCH   1   7
BRANCH   4  23
ATOM     23  C   UNL     1      52.736   4.348  18.294  0.00  0.00    +0.000 C 
BRANCH  23  24
ATOM     24  N   UNL     1      53.630   3.287  17.889  0.00  0.00    +0.000 N 
ATOM     25  C   UNL     1      54.191   2.441  18.833  0.00  0.00    +0.000 C 
ATOM     26  O   UNL     1      53.925   2.519  20.029  0.00  0.00    +0.000 OA
ATOM     27  H   UNL     1      53.981   3.271  16.939  0.00  0.00    +0.000 HD
BRANCH  25  28
ATOM     28  C   UNL     1      55.181   1.415  18.237  0.00  0.00    +0.000 C 
ATOM     29  C   UNL     1      55.169   0.066  18.938  0.00  0.00    +0.000 C 
ATOM     30  C   UNL     1      54.031  -0.676  18.266  0.00  0.00    +0.000 C 
ATOM     31  C   UNL     1      54.003  -0.123  16.851  0.00  0.00    +0.000 C 
ATOM     32  N   UNL     1      54.821   1.097  16.835  0.00  0.00    +0.000 NA
ATOM     33  H   UNL     1      54.290   1.863  16.423  0.00  0.00    +0.000 HD
ENDBRANCH  25  28
ENDBRANCH  23  24
ENDBRANCH   4  23
TORSDOF 6
ENDMDL
MODEL 5
REMARK VINA RESULT:    -7.050      4.899      6.717
REMARK INTER + INTRA:         -10.531
REMARK INTER:                  -9.528
REMARK INTRA:                  -1.002
REMARK UNBOUND:                -1.007
REMARK  Name = 
REMARK  6 active torsions:
REMARK  status: ('A' for Active; 'I' for Inactive)
REMARK    1  A    between atoms: C_2  and  C_20
REMARK    2  A    between atoms: N_3  and  C_4
REMARK    3  A    between atoms: C_4  and  C_5
REMARK    4  A    between atoms: C_8  and  C_9
REMARK    5  A    between atoms: C_9  and  N_10
REMARK    6  A    between atoms: C_11  and  C_13
REMARK                            x       y       z     vdW  Elec       q    Type
REMARK                         _______ _______ _______ _____ _____    ______ ____
ROOT
ATOM      1  C   UNL     1      49.214   7.551  11.981  0.00  0.00    +0.000 A 
ATOM      2  C   UNL     1      49.239   7.009  13.274  0.00  0.00    +0.000 A 
ATOM      3  C   UNL     1      48.124   6.340  13.794  0.00  0.00    +0.000 A 
ATOM      4  C   UNL     1      46.966   6.175  13.023  0.00  0.00    +0.000 A 
ATOM      5  C   UNL     1      46.950   6.694  11.721  0.00  0.00    +0.000 A 
ATOM      6  C   UNL     1      48.065   7.366  11.203  0.00  0.00    +0.000 A 
ENDROOT
BRANCH   1   7
ATOM      7  C   UNL     1      50.415   8.279  11.425  0.00  0.00    +0.000 C 
BRANCH   7  10
ATOM      8  O   UNL     1      52.410   8.786   9.526  0.00  0.00    +0.000 OA
ATOM      9  C   UNL     1      52.415   7.709  10.116  0.00  0.00    +0.000 C 
ATOM     10  N   UNL     1      51.430   7.352  11.003  0.00  0.00    +0.000 N 
ATOM     11  H   UNL     1      51.592   6.563  11.618  0.00  0.00    +0.000 HD
BRANCH   9  12
ATOM     12  C   UNL     1      53.458   6.707   9.880  0.00  0.00    +0.000 A 
ATOM     13  C   UNL     1      54.400   6.422  10.862  0.00  0.00    +0.000 A 
ATOM     14  S   UNL     1      55.546   5.248  10.388  0.00  0.00    +0.000 S 
ATOM     15  C   UNL     1      54.794   5.040   8.876  0.00  0.00    +0.000 A 
ATOM     16  N   UNL     1      55.266   4.139   7.972  0.00  0.00    +0.000 NA
ATOM     17  C   UNL     1      54.579   4.066   6.882  0.00  0.00    +0.000 A 
ATOM     18  N   UNL     1      53.464   4.817   6.609  0.00  0.00    +0.000 N 
ATOM     19  C   UNL     1      52.971   5.757   7.476  0.00  0.00    +0.000 A 
ATOM     20  O   UNL     1      52.002   6.446   7.175  0.00  0.00    +0.000 OA
ATOM     21  C   UNL     1      53.698   5.870   8.726  0.00  0.00    +0.000 A 
ATOM     22  H   UNL     1      52.976   4.722   5.730  0.00  0.00    +0.000 HD
ENDBRANCH   9  12
ENDBRANCH   7  10
ENDBRANCH   1   7
BRANCH   4  23
ATOM     23  C   UNL     1      45.764   5.452  13.578  0.00  0.00    +0.000 C 
BRANCH  23  24
ATOM     24  N   UNL     1      44.862   5.002  12.542  0.00  0.00    +0.000 N 
ATOM     25  C   UNL     1      44.844   3.672  12.154  0.00  0.00    +0.000 C 
ATOM     26  O   UNL     1      45.545   2.819  12.690  0.00  0.00    +0.000 OA
ATOM     27  H   UNL     1      44.368   5.688  11.984  0.00  0.00    +0.000 HD
BRANCH  25  28
ATOM     28  C   UNL     1      43.877   3.379  10.984  0.00  0.00    +0.000 C 
ATOM     29  C   UNL     1      43.865   4.455   9.909  0.00  0.00    +0.000 C 
ATOM     30  C   UNL     1      45.027   4.077   9.012  0.00  0.00    +0.000 C 
ATOM     31  C   UNL     1      45.106   2.563   9.114  0.00  0.00    +0.000 C 
ATOM     32  N   UNL     1      44.289   2.152  10.263  0.00  0.00    +0.000 NA
ATOM     33  H   UNL     1      44.834   1.547  10.875  0.00  0.00    +0.000 HD
ENDBRANCH  25  28
ENDBRANCH  23  24
ENDBRANCH   4  23
TORSDOF 6
ENDMDL
MODEL 6
REMARK VINA RESULT:    -7.031      3.623      8.910
REMARK INTER + INTRA:         -10.504
REMARK INTER:                  -9.349
REMARK INTRA:                  -1.155
REMARK UNBOUND:                -1.007
REMARK  Name = 
REMARK  6 active torsions:
REMARK  status: ('A' for Active; 'I' for Inactive)
REMARK    1  A    between atoms: C_2  and  C_20
REMARK    2  A    between atoms: N_3  and  C_4
REMARK    3  A    between atoms: C_4  and  C_5
REMARK    4  A    between atoms: C_8  and  C_9
REMARK    5  A    between atoms: C_9  and  N_10
REMARK    6  A    between atoms: C_11  and  C_13
REMARK                            x       y       z     vdW  Elec       q    Type
REMARK                         _______ _______ _______ _____ _____    ______ ____
ROOT
ATOM      1  C   UNL     1      48.992   7.876  13.127  0.00  0.00    +0.000 A 
ATOM      2  C   UNL     1      50.349   8.197  13.273  0.00  0.00    +0.000 A 
ATOM      3  C   UNL     1      51.018   7.952  14.479  0.00  0.00    +0.000 A 
ATOM      4  C   UNL     1      50.352   7.359  15.558  0.00  0.00    +0.000 A 
ATOM      5  C   UNL     1      49.002   7.014  15.403  0.00  0.00    +0.000 A 
ATOM      6  C   UNL     1      48.333   7.261  14.198  0.00  0.00    +0.000 A 
ENDROOT
BRANCH   1   7
ATOM      7  C   UNL     1      48.270   8.147  11.828  0.00  0.00    +0.000 C 
BRANCH   7  10
ATOM      8  O   UNL     1      45.486   7.837  11.791  0.00  0.00    +0.000 OA
ATOM      9  C   UNL     1      46.187   6.941  11.330  0.00  0.00    +0.000 C 
ATOM     10  N   UNL     1      47.559   6.979  11.380  0.00  0.00    +0.000 N 
ATOM     11  H   UNL     1      48.085   6.336  10.801  0.00  0.00    +0.000 HD
BRANCH   9  12
ATOM     12  C   UNL     1      45.603   5.739  10.728  0.00  0.00    +0.000 A 
ATOM     13  C   UNL     1      45.807   5.451   9.383  0.00  0.00    +0.000 A 
ATOM     14  S   UNL     1      45.024   4.025   8.864  0.00  0.00    +0.000 S 
ATOM     15  C   UNL     1      44.429   3.714  10.427  0.00  0.00    +0.000 A 
ATOM     16  N   UNL     1      43.685   2.605  10.690  0.00  0.00    +0.000 NA
ATOM     17  C   UNL     1      43.327   2.482  11.924  0.00  0.00    +0.000 A 
ATOM     18  N   UNL     1      43.643   3.370  12.921  0.00  0.00    +0.000 N 
ATOM     19  C   UNL     1      44.364   4.514  12.697  0.00  0.00    +0.000 A 
ATOM     20  O   UNL     1      44.581   5.310  13.605  0.00  0.00    +0.000 OA
ATOM     21  C   UNL     1      44.803   4.694  11.327  0.00  0.00    +0.000 A 
ATOM     22  H   UNL     1      43.322   3.223  13.867  0.00  0.00    +0.000 HD
ENDBRANCH   9  12
ENDBRANCH   7  10
ENDBRANCH   1   7
BRANCH   4  23
ATOM     23  C   UNL     1      51.069   7.090  16.858  0.00  0.00    +0.000 C 
BRANCH  23  24
ATOM     24  N   UNL     1      50.254   6.359  17.801  0.00  0.00    +0.000 N 
ATOM     25  C   UNL     1      50.277   4.974  17.825  0.00  0.00    +0.000 C 
ATOM     26  O   UNL     1      51.011   4.314  17.095  0.00  0.00    +0.000 OA
ATOM     27  H   UNL     1      49.540   6.852  18.324  0.00  0.00    +0.000 HD
BRANCH  25  28
ATOM     28  C   UNL     1      49.289   4.354  18.840  0.00  0.00    +0.000 C 
ATOM     29  C   UNL     1      47.943   5.057  18.899  0.00  0.00    +0.000 C 
ATOM     30  C   UNL     1      47.155   4.415  17.775  0.00  0.00    +0.000 C 
ATOM     31  C   UNL     1      47.703   3.001  17.689  0.00  0.00    +0.000 C 
ATOM     32  N   UNL     1      48.954   2.962  18.456  0.00  0.00    +0.000 NA
ATOM     33  H   UNL     1      49.698   2.564  17.885  0.00  0.00    +0.000 HD
ENDBRANCH  25  28
ENDBRANCH  23  24
ENDBRANCH   4  23
TORSDOF 6
ENDMDL
MODEL 7
REMARK VINA RESULT:    -6.839      3.207      8.993
REMARK INTER + INTRA:         -10.246
REMARK INTER:                  -9.017
REMARK INTRA:                  -1.229
REMARK UNBOUND:                -1.007
REMARK  Name = 
REMARK  6 active torsions:
REMARK  status: ('A' for Active; 'I' for Inactive)
REMARK    1  A    between atoms: C_2  and  C_20
REMARK    2  A    between atoms: N_3  and  C_4
REMARK    3  A    between atoms: C_4  and  C_5
REMARK    4  A    between atoms: C_8  and  C_9
REMARK    5  A    between atoms: C_9  and  N_10
REMARK    6  A    between atoms: C_11  and  C_13
REMARK                            x       y       z     vdW  Elec       q    Type
REMARK                         _______ _______ _______ _____ _____    ______ ____
ROOT
ATOM      1  C   UNL     1      48.410   7.655  13.082  0.00  0.00    +0.000 A 
ATOM      2  C   UNL     1      49.576   8.433  13.128  0.00  0.00    +0.000 A 
ATOM      3  C   UNL     1      50.427   8.386  14.239  0.00  0.00    +0.000 A 
ATOM      4  C   UNL     1      50.145   7.541  15.320  0.00  0.00    +0.000 A 
ATOM      5  C   UNL     1      48.992   6.744  15.263  0.00  0.00    +0.000 A 
ATOM      6  C   UNL     1      48.141   6.794  14.152  0.00  0.00    +0.000 A 
ENDROOT
BRANCH   1   7
ATOM      7  C   UNL     1      47.490   7.713  11.885  0.00  0.00    +0.000 C 
BRANCH   7  10
ATOM      8  O   UNL     1      44.706   7.408  11.934  0.00  0.00    +0.000 OA
ATOM      9  C   UNL     1      45.404   6.428  11.690  0.00  0.00    +0.000 C 
ATOM     10  N   UNL     1      46.776   6.475  11.724  0.00  0.00    +0.000 N 
ATOM     11  H   UNL     1      47.299   5.713  11.308  0.00  0.00    +0.000 HD
BRANCH   9  12
ATOM     12  C   UNL     1      44.816   5.120  11.386  0.00  0.00    +0.000 A 
ATOM     13  C   UNL     1      43.999   4.479  12.312  0.00  0.00    +0.000 A 
ATOM     14  S   UNL     1      43.434   2.957  11.785  0.00  0.00    +0.000 S 
ATOM     15  C   UNL     1      44.216   3.122  10.283  0.00  0.00    +0.000 A 
ATOM     16  N   UNL     1      44.114   2.160   9.326  0.00  0.00    +0.000 NA
ATOM     17  C   UNL     1      44.733   2.432   8.226  0.00  0.00    +0.000 A 
ATOM     18  N   UNL     1      45.449   3.579   7.996  0.00  0.00    +0.000 N 
ATOM     19  C   UNL     1      45.604   4.561   8.941  0.00  0.00    +0.000 A 
ATOM     20  O   UNL     1      46.296   5.548   8.716  0.00  0.00    +0.000 OA
ATOM     21  C   UNL     1      44.916   4.311  10.192  0.00  0.00    +0.000 A 
ATOM     22  H   UNL     1      45.922   3.728   7.117  0.00  0.00    +0.000 HD
ENDBRANCH   9  12
ENDBRANCH   7  10
ENDBRANCH   1   7
BRANCH   4  23
ATOM     23  C   UNL     1      51.060   7.484  16.517  0.00  0.00    +0.000 C 
BRANCH  23  24
ATOM     24  N   UNL     1      50.708   6.424  17.435  0.00  0.00    +0.000 N 
ATOM     25  C   UNL     1      51.525   5.313  17.573  0.00  0.00    +0.000 C 
ATOM     26  O   UNL     1      52.590   5.199  16.971  0.00  0.00    +0.000 OA
ATOM     27  H   UNL     1      49.782   6.412  17.846  0.00  0.00    +0.000 HD
BRANCH  25  28
ATOM     28  C   UNL     1      50.962   4.243  18.536  0.00  0.00    +0.000 C 
ATOM     29  C   UNL     1      49.447   4.264  18.663  0.00  0.00    +0.000 C 
ATOM     30  C   UNL     1      48.977   3.425  17.493  0.00  0.00    +0.000 C 
ATOM     31  C   UNL     1      50.092   2.415  17.280  0.00  0.00    +0.000 C 
ATOM     32  N   UNL     1      51.263   2.882  18.035  0.00  0.00    +0.000 NA
ATOM     33  H   UNL     1      52.080   2.901  17.426  0.00  0.00    +0.000 HD
ENDBRANCH  25  28
ENDBRANCH  23  24
ENDBRANCH   4  23
TORSDOF 6
ENDMDL
MODEL 8
REMARK VINA RESULT:    -6.495      4.781      9.102
REMARK INTER + INTRA:          -9.780
REMARK INTER:                  -9.133
REMARK INTRA:                  -0.647
REMARK UNBOUND:                -1.007
REMARK  Name = 
REMARK  6 active torsions:
REMARK  status: ('A' for Active; 'I' for Inactive)
REMARK    1  A    between atoms: C_2  and  C_20
REMARK    2  A    between atoms: N_3  and  C_4
REMARK    3  A    between atoms: C_4  and  C_5
REMARK    4  A    between atoms: C_8  and  C_9
REMARK    5  A    between atoms: C_9  and  N_10
REMARK    6  A    between atoms: C_11  and  C_13
REMARK                            x       y       z     vdW  Elec       q    Type
REMARK                         _______ _______ _______ _____ _____    ______ ____
ROOT
ATOM      1  C   UNL     1      49.522   6.667  16.145  0.00  0.00    +0.000 A 
ATOM      2  C   UNL     1      48.875   5.732  16.965  0.00  0.00    +0.000 A 
ATOM      3  C   UNL     1      49.610   4.845  17.762  0.00  0.00    +0.000 A 
ATOM      4  C   UNL     1      51.010   4.889  17.775  0.00  0.00    +0.000 A 
ATOM      5  C   UNL     1      51.657   5.841  16.975  0.00  0.00    +0.000 A 
ATOM      6  C   UNL     1      50.920   6.726  16.177  0.00  0.00    +0.000 A 
ENDROOT
BRANCH   1   7
ATOM      7  C   UNL     1      48.727   7.618  15.281  0.00  0.00    +0.000 C 
BRANCH   7  10
ATOM      8  O   UNL     1      48.885   6.244  12.846  0.00  0.00    +0.000 OA
ATOM      9  C   UNL     1      47.826   6.226  13.467  0.00  0.00    +0.000 C 
ATOM     10  N   UNL     1      47.642   6.936  14.628  0.00  0.00    +0.000 N 
ATOM     11  H   UNL     1      46.842   6.719  15.210  0.00  0.00    +0.000 HD
BRANCH   9  12
ATOM     12  C   UNL     1      46.664   5.474  12.987  0.00  0.00    +0.000 A 
ATOM     13  C   UNL     1      46.598   4.094  13.148  0.00  0.00    +0.000 A 
ATOM     14  S   UNL     1      45.180   3.398  12.500  0.00  0.00    +0.000 S 
ATOM     15  C   UNL     1      44.580   4.918  12.028  0.00  0.00    +0.000 A 
ATOM     16  N   UNL     1      43.366   5.040  11.425  0.00  0.00    +0.000 NA
ATOM     17  C   UNL     1      43.026   6.255  11.150  0.00  0.00    +0.000 A 
ATOM     18  N   UNL     1      43.791   7.361  11.420  0.00  0.00    +0.000 N 
ATOM     19  C   UNL     1      45.032   7.283  11.998  0.00  0.00    +0.000 A 
ATOM     20  O   UNL     1      45.709   8.290  12.175  0.00  0.00    +0.000 OA
ATOM     21  C   UNL     1      45.457   5.940  12.340  0.00  0.00    +0.000 A 
ATOM     22  H   UNL     1      43.474   8.286  11.169  0.00  0.00    +0.000 HD
ENDBRANCH   9  12
ENDBRANCH   7  10
ENDBRANCH   1   7
BRANCH   4  23
ATOM     23  C   UNL     1      51.806   3.938  18.634  0.00  0.00    +0.000 C 
BRANCH  23  24
ATOM     24  N   UNL     1      52.001   2.652  18.003  0.00  0.00    +0.000 N 
ATOM     25  C   UNL     1      53.061   1.841  18.374  0.00  0.00    +0.000 C 
ATOM     26  O   UNL     1      53.844   2.146  19.270  0.00  0.00    +0.000 OA
ATOM     27  H   UNL     1      51.466   2.421  17.174  0.00  0.00    +0.000 HD
BRANCH  25  28
ATOM     28  C   UNL     1      53.166   0.539  17.547  0.00  0.00    +0.000 C 
ATOM     29  C   UNL     1      54.507   0.353  16.854  0.00  0.00    +0.000 C 
ATOM     30  C   UNL     1      55.376  -0.282  17.921  0.00  0.00    +0.000 C 
ATOM     31  C   UNL     1      54.406  -1.088  18.768  0.00  0.00    +0.000 C 
ATOM     32  N   UNL     1      53.047  -0.648  18.426  0.00  0.00    +0.000 NA
ATOM     33  H   UNL     1      52.538  -0.409  19.276  0.00  0.00    +0.000 HD
ENDBRANCH  25  28
ENDBRANCH  23  24
ENDBRANCH   4  23
TORSDOF 6
ENDMDL
MODEL 9
REMARK VINA RESULT:    -6.477      2.192      3.639
REMARK INTER + INTRA:          -9.756
REMARK INTER:                  -8.447
REMARK INTRA:                  -1.309
REMARK UNBOUND:                -1.007
REMARK  Name = 
REMARK  6 active torsions:
REMARK  status: ('A' for Active; 'I' for Inactive)
REMARK    1  A    between atoms: C_2  and  C_20
REMARK    2  A    between atoms: N_3  and  C_4
REMARK    3  A    between atoms: C_4  and  C_5
REMARK    4  A    between atoms: C_8  and  C_9
REMARK    5  A    between atoms: C_9  and  N_10
REMARK    6  A    between atoms: C_11  and  C_13
REMARK                            x       y       z     vdW  Elec       q    Type
REMARK                         _______ _______ _______ _____ _____    ______ ____
ROOT
ATOM      1  C   UNL     1      47.556   7.539  12.350  0.00  0.00    +0.000 A 
ATOM      2  C   UNL     1      47.411   6.646  11.279  0.00  0.00    +0.000 A 
ATOM      3  C   UNL     1      46.162   6.089  10.973  0.00  0.00    +0.000 A 
ATOM      4  C   UNL     1      45.026   6.432  11.716  0.00  0.00    +0.000 A 
ATOM      5  C   UNL     1      45.166   7.345  12.771  0.00  0.00    +0.000 A 
ATOM      6  C   UNL     1      46.416   7.899  13.078  0.00  0.00    +0.000 A 
ENDROOT
BRANCH   1   7
ATOM      7  C   UNL     1      48.905   8.133  12.683  0.00  0.00    +0.000 C 
BRANCH   7  10
ATOM      8  O   UNL     1      48.925   9.113  15.307  0.00  0.00    +0.000 OA
ATOM      9  C   UNL     1      49.391   7.998  15.088  0.00  0.00    +0.000 C 
ATOM     10  N   UNL     1      49.490   7.477  13.822  0.00  0.00    +0.000 N 
ATOM     11  H   UNL     1      49.673   6.486  13.716  0.00  0.00    +0.000 HD
BRANCH   9  12
ATOM     12  C   UNL     1      49.917   7.159  16.168  0.00  0.00    +0.000 A 
ATOM     13  C   UNL     1      50.961   7.608  16.969  0.00  0.00    +0.000 A 
ATOM     14  S   UNL     1      51.450   6.478  18.152  0.00  0.00    +0.000 S 
ATOM     15  C   UNL     1      50.251   5.370  17.672  0.00  0.00    +0.000 A 
ATOM     16  N   UNL     1      50.098   4.177  18.309  0.00  0.00    +0.000 NA
ATOM     17  C   UNL     1      49.129   3.452  17.859  0.00  0.00    +0.000 A 
ATOM     18  N   UNL     1      48.300   3.809  16.826  0.00  0.00    +0.000 N 
ATOM     19  C   UNL     1      48.436   4.986  16.136  0.00  0.00    +0.000 A 
ATOM     20  O   UNL     1      47.709   5.246  15.183  0.00  0.00    +0.000 OA
ATOM     21  C   UNL     1      49.502   5.846  16.611  0.00  0.00    +0.000 A 
ATOM     22  H   UNL     1      47.567   3.190  16.511  0.00  0.00    +0.000 HD
ENDBRANCH   9  12
ENDBRANCH   7  10
ENDBRANCH   1   7
BRANCH   4  23
ATOM     23  C   UNL     1      43.678   5.838  11.388  0.00  0.00    +0.000 C 
BRANCH  23  24
ATOM     24  N   UNL     1      43.705   5.032  10.189  0.00  0.00    +0.000 N 
ATOM     25  C   UNL     1      44.004   3.680  10.256  0.00  0.00    +0.000 C 
ATOM     26  O   UNL     1      44.210   3.103  11.319  0.00  0.00    +0.000 OA
ATOM     27  H   UNL     1      43.675   5.489   9.285  0.00  0.00    +0.000 HD
BRANCH  25  28
ATOM     28  C   UNL     1      44.064   2.988   8.875  0.00  0.00    +0.000 C 
ATOM     29  C   UNL     1      44.796   3.793   7.812  0.00  0.00    +0.000 C 
ATOM     30  C   UNL     1      46.252   3.432   8.031  0.00  0.00    +0.000 C 
ATOM     31  C   UNL     1      46.213   2.009   8.563  0.00  0.00    +0.000 C 
ATOM     32  N   UNL     1      44.828   1.722   8.960  0.00  0.00    +0.000 NA
ATOM     33  H   UNL     1      44.811   1.361   9.913  0.00  0.00    +0.000 HD
ENDBRANCH  25  28
ENDBRANCH  23  24
ENDBRANCH   4  23
TORSDOF 6
ENDMDL
