MODEL 1
REMARK VINA RESULT:    -8.344      0.000      0.000
REMARK INTER + INTRA:         -11.527
REMARK INTER:                 -10.783
REMARK INTRA:                  -0.744
REMARK UNBOUND:                -0.744
REMARK  Name = 
REMARK  5 active torsions:
REMARK  status: ('A' for Active; 'I' for Inactive)
REMARK    1  A    between atoms: C_2  and  C_18
REMARK    2  A    between atoms: N_3  and  C_4
REMARK    3  A    between atoms: C_4  and  C_5
REMARK    4  A    between atoms: C_8  and  C_9
REMARK    5  A    between atoms: C_9  and  C_10
REMARK                            x       y       z     vdW  Elec       q    Type
REMARK                         _______ _______ _______ _____ _____    ______ ____
ROOT
ATOM      1  O   UNL     1      46.360   3.579  13.998  0.00  0.00    +0.000 OA
ATOM      2  C   UNL     1      46.432   4.777  14.258  0.00  0.00    +0.000 C 
ATOM      3  N   UNL     1      45.476   5.678  13.867  0.00  0.00    +0.000 N 
ATOM      4  H   UNL     1      45.627   6.665  14.045  0.00  0.00    +0.000 HD
ENDROOT
BRANCH   2   5
ATOM      5  C   UNL     1      47.534   5.335  15.052  0.00  0.00    +0.000 A 
ATOM      6  C   UNL     1      48.340   6.336  14.525  0.00  0.00    +0.000 A 
ATOM      7  S   UNL     1      49.578   6.842  15.586  0.00  0.00    +0.000 S 
ATOM      8  C   UNL     1      49.047   5.780  16.805  0.00  0.00    +0.000 A 
ATOM      9  N   UNL     1      49.669   5.734  18.017  0.00  0.00    +0.000 NA
ATOM     10  C   UNL     1      49.139   4.912  18.857  0.00  0.00    +0.000 A 
ATOM     11  N   UNL     1      48.053   4.122  18.600  0.00  0.00    +0.000 N 
ATOM     12  C   UNL     1      47.439   4.081  17.372  0.00  0.00    +0.000 A 
ATOM     13  O   UNL     1      46.548   3.267  17.143  0.00  0.00    +0.000 OA
ATOM     14  C   UNL     1      47.963   5.024  16.399  0.00  0.00    +0.000 A 
ATOM     15  H   UNL     1      47.703   3.476  19.290  0.00  0.00    +0.000 HD
ENDBRANCH   2   5
BRANCH   3  16
ATOM     16  C   UNL     1      44.326   5.350  13.063  0.00  0.00    +0.000 C 
BRANCH  16  17
ATOM     17  C   UNL     1      44.477   5.802  11.599  0.00  0.00    +0.000 C 
ATOM     18  C   UNL     1      45.828   5.403  10.977  0.00  0.00    +0.000 C 
ATOM     19  C   UNL     1      45.950   3.897  10.753  0.00  0.00    +0.000 C 
ATOM     20  C   UNL     1      44.804   3.323   9.900  0.00  0.00    +0.000 C 
ATOM     21  C   UNL     1      43.439   3.745  10.477  0.00  0.00    +0.000 C 
ATOM     22  C   UNL     1      43.327   5.250  10.743  0.00  0.00    +0.000 C 
BRANCH  20  23
ATOM     23  C   UNL     1      44.900   3.701   8.402  0.00  0.00    +0.000 C 
BRANCH  23  24
ATOM     24  C   UNL     1      45.916   2.903   7.622  0.00  0.00    +0.000 A 
ATOM     25  C   UNL     1      46.328   1.635   8.044  0.00  0.00    +0.000 A 
ATOM     26  C   UNL     1      47.297   0.971   7.307  0.00  0.00    +0.000 A 
ATOM     27  N   UNL     1      47.865   1.468   6.188  0.00  0.00    +0.000 NA
ATOM     28  C   UNL     1      47.437   2.682   5.784  0.00  0.00    +0.000 A 
ATOM     29  C   UNL     1      46.478   3.426   6.456  0.00  0.00    +0.000 A 
ENDBRANCH  23  24
ENDBRANCH  20  23
ENDBRANCH  16  17
ENDBRANCH   3  16
TORSDOF 5
ENDMDL
MODEL 2
REMARK VINA RESULT:    -8.164      1.996      3.100
REMARK INTER + INTRA:         -11.295
REMARK INTER:                 -10.243
REMARK INTRA:                  -1.052
REMARK UNBOUND:                -0.744
REMARK  Name = 
REMARK  5 active torsions:
REMARK  status: ('A' for Active; 'I' for Inactive)
REMARK    1  A    between atoms: C_2  and  C_18
REMARK    2  A    between atoms: N_3  and  C_4
REMARK    3  A    between atoms: C_4  and  C_5
REMARK    4  A    between atoms: C_8  and  C_9
REMARK    5  A    between atoms: C_9  and  C_10
REMARK                            x       y       z     vdW  Elec       q    Type
REMARK                         _______ _______ _______ _____ _____    ______ ____
ROOT
ATOM      1  O   UNL     1      46.476   4.257  14.283  0.00  0.00    +0.000 OA
ATOM      2  C   UNL     1      46.654   5.453  14.062  0.00  0.00    +0.000 C 
ATOM      3  N   UNL     1      45.703   6.247  13.477  0.00  0.00    +0.000 N 
ATOM      4  H   UNL     1      45.935   7.208  13.251  0.00  0.00    +0.000 HD
ENDROOT
BRANCH   2   5
ATOM      5  C   UNL     1      47.894   6.138  14.451  0.00  0.00    +0.000 A 
ATOM      6  C   UNL     1      48.378   6.024  15.748  0.00  0.00    +0.000 A 
ATOM      7  S   UNL     1      49.814   6.905  16.018  0.00  0.00    +0.000 S 
ATOM      8  C   UNL     1      49.869   7.424  14.398  0.00  0.00    +0.000 A 
ATOM      9  N   UNL     1      50.890   8.204  13.944  0.00  0.00    +0.000 NA
ATOM     10  C   UNL     1      50.824   8.491  12.689  0.00  0.00    +0.000 A 
ATOM     11  N   UNL     1      49.828   8.083  11.844  0.00  0.00    +0.000 N 
ATOM     12  C   UNL     1      48.743   7.357  12.271  0.00  0.00    +0.000 A 
ATOM     13  O   UNL     1      47.809   7.119  11.511  0.00  0.00    +0.000 OA
ATOM     14  C   UNL     1      48.788   6.962  13.668  0.00  0.00    +0.000 A 
ATOM     15  H   UNL     1      49.816   8.366  10.877  0.00  0.00    +0.000 HD
ENDBRANCH   2   5
BRANCH   3  16
ATOM     16  C   UNL     1      44.428   5.776  12.998  0.00  0.00    +0.000 C 
BRANCH  16  17
ATOM     17  C   UNL     1      44.308   5.843  11.465  0.00  0.00    +0.000 C 
ATOM     18  C   UNL     1      45.586   5.388  10.736  0.00  0.00    +0.000 C 
ATOM     19  C   UNL     1      45.835   3.887  10.869  0.00  0.00    +0.000 C 
ATOM     20  C   UNL     1      44.643   3.036  10.392  0.00  0.00    +0.000 C 
ATOM     21  C   UNL     1      43.343   3.501  11.075  0.00  0.00    +0.000 C 
ATOM     22  C   UNL     1      43.109   5.013  10.981  0.00  0.00    +0.000 C 
BRANCH  20  23
ATOM     23  C   UNL     1      44.472   3.020   8.853  0.00  0.00    +0.000 C 
BRANCH  23  24
ATOM     24  C   UNL     1      45.666   2.486   8.100  0.00  0.00    +0.000 A 
ATOM     25  C   UNL     1      46.058   1.148   8.206  0.00  0.00    +0.000 A 
ATOM     26  C   UNL     1      47.190   0.730   7.523  0.00  0.00    +0.000 A 
ATOM     27  N   UNL     1      47.939   1.536   6.742  0.00  0.00    +0.000 NA
ATOM     28  C   UNL     1      47.532   2.818   6.634  0.00  0.00    +0.000 A 
ATOM     29  C   UNL     1      46.419   3.332   7.282  0.00  0.00    +0.000 A 
ENDBRANCH  23  24
ENDBRANCH  20  23
ENDBRANCH  16  17
ENDBRANCH   3  16
TORSDOF 5
ENDMDL
MODEL 3
REMARK VINA RESULT:    -8.130      3.165      3.863
REMARK INTER + INTRA:         -11.250
REMARK INTER:                 -11.161
REMARK INTRA:                  -0.089
REMARK UNBOUND:                -0.744
REMARK  Name = 
REMARK  5 active torsions:
REMARK  status: ('A' for Active; 'I' for Inactive)
REMARK    1  A    between atoms: C_2  and  C_18
REMARK    2  A    between atoms: N_3  and  C_4
REMARK    3  A    between atoms: C_4  and  C_5
REMARK    4  A    between atoms: C_8  and  C_9
REMARK    5  A    between atoms: C_9  and  C_10
REMARK                            x       y       z     vdW  Elec       q    Type
REMARK                         _______ _______ _______ _____ _____    ______ ____
ROOT
ATOM      1  O   UNL     1      46.176   5.438  13.743  0.00  0.00    +0.000 OA
ATOM      2  C   UNL     1      45.597   6.354  13.164  0.00  0.00    +0.000 C 
ATOM      3  N   UNL     1      44.260   6.313  12.865  0.00  0.00    +0.000 N 
ATOM      4  H   UNL     1      43.854   7.065  12.320  0.00  0.00    +0.000 HD
ENDROOT
BRANCH   2   5
ATOM      5  C   UNL     1      46.289   7.593  12.785  0.00  0.00    +0.000 A 
ATOM      6  C   UNL     1      45.566   8.757  12.561  0.00  0.00    +0.000 A 
ATOM      7  S   UNL     1      46.538  10.085  12.111  0.00  0.00    +0.000 S 
ATOM      8  C   UNL     1      47.963   9.166  12.253  0.00  0.00    +0.000 A 
ATOM      9  N   UNL     1      49.185   9.724  12.030  0.00  0.00    +0.000 NA
ATOM     10  C   UNL     1      50.179   8.923  12.209  0.00  0.00    +0.000 A 
ATOM     11  N   UNL     1      50.068   7.610  12.579  0.00  0.00    +0.000 N 
ATOM     12  C   UNL     1      48.856   6.986  12.745  0.00  0.00    +0.000 A 
ATOM     13  O   UNL     1      48.797   5.777  12.954  0.00  0.00    +0.000 OA
ATOM     14  C   UNL     1      47.700   7.854  12.604  0.00  0.00    +0.000 A 
ATOM     15  H   UNL     1      50.883   7.025  12.674  0.00  0.00    +0.000 HD
ENDBRANCH   2   5
BRANCH   3  16
ATOM     16  C   UNL     1      43.399   5.187  13.127  0.00  0.00    +0.000 C 
BRANCH  16  17
ATOM     17  C   UNL     1      42.854   4.544  11.838  0.00  0.00    +0.000 C 
ATOM     18  C   UNL     1      43.174   5.359  10.572  0.00  0.00    +0.000 C 
ATOM     19  C   UNL     1      44.659   5.333  10.215  0.00  0.00    +0.000 C 
ATOM     20  C   UNL     1      45.213   3.904  10.059  0.00  0.00    +0.000 C 
ATOM     21  C   UNL     1      44.867   3.055  11.297  0.00  0.00    +0.000 C 
ATOM     22  C   UNL     1      43.386   3.111  11.684  0.00  0.00    +0.000 C 
BRANCH  20  23
ATOM     23  C   UNL     1      44.740   3.197   8.766  0.00  0.00    +0.000 C 
BRANCH  23  24
ATOM     24  C   UNL     1      45.849   2.562   7.963  0.00  0.00    +0.000 A 
ATOM     25  C   UNL     1      46.570   3.289   7.012  0.00  0.00    +0.000 A 
ATOM     26  C   UNL     1      47.548   2.636   6.276  0.00  0.00    +0.000 A 
ATOM     27  N   UNL     1      47.861   1.332   6.429  0.00  0.00    +0.000 NA
ATOM     28  C   UNL     1      47.170   0.653   7.368  0.00  0.00    +0.000 A 
ATOM     29  C   UNL     1      46.171   1.215   8.150  0.00  0.00    +0.000 A 
ENDBRANCH  23  24
ENDBRANCH  20  23
ENDBRANCH  16  17
ENDBRANCH   3  16
TORSDOF 5
ENDMDL
MODEL 4
REMARK VINA RESULT:    -8.088      1.658      2.424
REMARK INTER + INTRA:         -11.197
REMARK INTER:                 -11.379
REMARK INTRA:                   0.181
REMARK UNBOUND:                -0.744
REMARK  Name = 
REMARK  5 active torsions:
REMARK  status: ('A' for Active; 'I' for Inactive)
REMARK    1  A    between atoms: C_2  and  C_18
REMARK    2  A    between atoms: N_3  and  C_4
REMARK    3  A    between atoms: C_4  and  C_5
REMARK    4  A    between atoms: C_8  and  C_9
REMARK    5  A    between atoms: C_9  and  C_10
REMARK                            x       y       z     vdW  Elec       q    Type
REMARK                         _______ _______ _______ _____ _____    ______ ____
ROOT
ATOM      1  O   UNL     1      46.159   4.015  14.028  0.00  0.00    +0.000 OA
ATOM      2  C   UNL     1      46.008   5.120  13.512  0.00  0.00    +0.000 C 
ATOM      3  N   UNL     1      44.783   5.592  13.119  0.00  0.00    +0.000 N 
ATOM      4  H   UNL     1      44.730   6.479  12.631  0.00  0.00    +0.000 HD
ENDROOT
BRANCH   2   5
ATOM      5  C   UNL     1      47.130   6.046  13.319  0.00  0.00    +0.000 A 
ATOM      6  C   UNL     1      47.279   6.724  12.115  0.00  0.00    +0.000 A 
ATOM      7  S   UNL     1      48.651   7.738  12.070  0.00  0.00    +0.000 S 
ATOM      8  C   UNL     1      49.064   7.349  13.675  0.00  0.00    +0.000 A 
ATOM      9  N   UNL     1      50.145   7.915  14.279  0.00  0.00    +0.000 NA
ATOM     10  C   UNL     1      50.319   7.558  15.506  0.00  0.00    +0.000 A 
ATOM     11  N   UNL     1      49.519   6.680  16.186  0.00  0.00    +0.000 N 
ATOM     12  C   UNL     1      48.461   6.032  15.597  0.00  0.00    +0.000 A 
ATOM     13  O   UNL     1      47.846   5.158  16.202  0.00  0.00    +0.000 OA
ATOM     14  C   UNL     1      48.189   6.431  14.228  0.00  0.00    +0.000 A 
ATOM     15  H   UNL     1      49.724   6.418  17.137  0.00  0.00    +0.000 HD
ENDBRANCH   2   5
BRANCH   3  16
ATOM     16  C   UNL     1      43.555   4.840  13.196  0.00  0.00    +0.000 C 
BRANCH  16  17
ATOM     17  C   UNL     1      42.995   4.474  11.810  0.00  0.00    +0.000 C 
ATOM     18  C   UNL     1      43.419   5.457  10.705  0.00  0.00    +0.000 C 
ATOM     19  C   UNL     1      44.906   5.359  10.370  0.00  0.00    +0.000 C 
ATOM     20  C   UNL     1      45.340   3.934   9.982  0.00  0.00    +0.000 C 
ATOM     21  C   UNL     1      44.888   2.923  11.052  0.00  0.00    +0.000 C 
ATOM     22  C   UNL     1      43.406   3.045  11.422  0.00  0.00    +0.000 C 
BRANCH  20  23
ATOM     23  C   UNL     1      44.846   3.498   8.581  0.00  0.00    +0.000 C 
BRANCH  23  24
ATOM     24  C   UNL     1      45.883   2.782   7.750  0.00  0.00    +0.000 A 
ATOM     25  C   UNL     1      46.438   3.370   6.609  0.00  0.00    +0.000 A 
ATOM     26  C   UNL     1      47.354   2.643   5.864  0.00  0.00    +0.000 A 
ATOM     27  N   UNL     1      47.760   1.395   6.180  0.00  0.00    +0.000 NA
ATOM     28  C   UNL     1      47.231   0.854   7.297  0.00  0.00    +0.000 A 
ATOM     29  C   UNL     1      46.305   1.498   8.103  0.00  0.00    +0.000 A 
ENDBRANCH  23  24
ENDBRANCH  20  23
ENDBRANCH  16  17
ENDBRANCH   3  16
TORSDOF 5
ENDMDL
MODEL 5
REMARK VINA RESULT:    -7.715      2.157      2.821
REMARK INTER + INTRA:         -10.715
REMARK INTER:                 -10.374
REMARK INTRA:                  -0.341
REMARK UNBOUND:                -0.744
REMARK  Name = 
REMARK  5 active torsions:
REMARK  status: ('A' for Active; 'I' for Inactive)
REMARK    1  A    between atoms: C_2  and  C_18
REMARK    2  A    between atoms: N_3  and  C_4
REMARK    3  A    between atoms: C_4  and  C_5
REMARK    4  A    between atoms: C_8  and  C_9
REMARK    5  A    between atoms: C_9  and  C_10
REMARK                            x       y       z     vdW  Elec       q    Type
REMARK                         _______ _______ _______ _____ _____    ______ ____
ROOT
ATOM      1  O   UNL     1      46.659   3.359  17.169  0.00  0.00    +0.000 OA
ATOM      2  C   UNL     1      47.482   4.109  16.648  0.00  0.00    +0.000 C 
ATOM      3  N   UNL     1      47.211   4.833  15.517  0.00  0.00    +0.000 N 
ATOM      4  H   UNL     1      47.953   5.376  15.090  0.00  0.00    +0.000 HD
ENDROOT
BRANCH   2   5
ATOM      5  C   UNL     1      48.814   4.324  17.229  0.00  0.00    +0.000 A 
ATOM      6  C   UNL     1      49.122   5.531  17.844  0.00  0.00    +0.000 A 
ATOM      7  S   UNL     1      50.720   5.602  18.439  0.00  0.00    +0.000 S 
ATOM      8  C   UNL     1      51.038   4.005  17.944  0.00  0.00    +0.000 A 
ATOM      9  N   UNL     1      52.245   3.422  18.185  0.00  0.00    +0.000 NA
ATOM     10  C   UNL     1      52.335   2.198  17.789  0.00  0.00    +0.000 A 
ATOM     11  N   UNL     1      51.335   1.503  17.164  0.00  0.00    +0.000 N 
ATOM     12  C   UNL     1      50.129   2.071  16.836  0.00  0.00    +0.000 A 
ATOM     13  O   UNL     1      49.307   1.454  16.164  0.00  0.00    +0.000 OA
ATOM     14  C   UNL     1      49.953   3.436  17.302  0.00  0.00    +0.000 A 
ATOM     15  H   UNL     1      51.477   0.555  16.850  0.00  0.00    +0.000 HD
ENDBRANCH   2   5
BRANCH   3  16
ATOM     16  C   UNL     1      45.978   4.756  14.774  0.00  0.00    +0.000 C 
BRANCH  16  17
ATOM     17  C   UNL     1      46.118   5.281  13.334  0.00  0.00    +0.000 C 
ATOM     18  C   UNL     1      46.396   4.170  12.306  0.00  0.00    +0.000 C 
ATOM     19  C   UNL     1      45.192   3.257  12.087  0.00  0.00    +0.000 C 
ATOM     20  C   UNL     1      43.923   4.027  11.678  0.00  0.00    +0.000 C 
ATOM     21  C   UNL     1      43.647   5.175  12.667  0.00  0.00    +0.000 C 
ATOM     22  C   UNL     1      44.865   6.069  12.923  0.00  0.00    +0.000 C 
BRANCH  20  23
ATOM     23  C   UNL     1      43.967   4.562  10.225  0.00  0.00    +0.000 C 
BRANCH  23  24
ATOM     24  C   UNL     1      44.816   3.741   9.286  0.00  0.00    +0.000 A 
ATOM     25  C   UNL     1      44.769   2.344   9.290  0.00  0.00    +0.000 A 
ATOM     26  C   UNL     1      45.606   1.647   8.432  0.00  0.00    +0.000 A 
ATOM     27  N   UNL     1      46.464   2.236   7.573  0.00  0.00    +0.000 NA
ATOM     28  C   UNL     1      46.479   3.585   7.567  0.00  0.00    +0.000 A 
ATOM     29  C   UNL     1      45.685   4.370   8.390  0.00  0.00    +0.000 A 
ENDBRANCH  23  24
ENDBRANCH  20  23
ENDBRANCH  16  17
ENDBRANCH   3  16
TORSDOF 5
ENDMDL
MODEL 6
REMARK VINA RESULT:    -7.591      3.083      3.797
REMARK INTER + INTRA:         -10.555
REMARK INTER:                  -9.987
REMARK INTRA:                  -0.568
REMARK UNBOUND:                -0.744
REMARK  Name = 
REMARK  5 active torsions:
REMARK  status: ('A' for Active; 'I' for Inactive)
REMARK    1  A    between atoms: C_2  and  C_18
REMARK    2  A    between atoms: N_3  and  C_4
REMARK    3  A    between atoms: C_4  and  C_5
REMARK    4  A    between atoms: C_8  and  C_9
REMARK    5  A    between atoms: C_9  and  C_10
REMARK                            x       y       z     vdW  Elec       q    Type
REMARK                         _______ _______ _______ _____ _____    ______ ____
ROOT
ATOM      1  O   UNL     1      45.035   7.944  11.183  0.00  0.00    +0.000 OA
ATOM      2  C   UNL     1      45.740   7.844  12.183  0.00  0.00    +0.000 C 
ATOM      3  N   UNL     1      45.549   6.872  13.130  0.00  0.00    +0.000 N 
ATOM      4  H   UNL     1      46.114   6.885  13.971  0.00  0.00    +0.000 HD
ENDROOT
BRANCH   2   5
ATOM      5  C   UNL     1      46.881   8.737  12.422  0.00  0.00    +0.000 A 
ATOM      6  C   UNL     1      46.739  10.110  12.265  0.00  0.00    +0.000 A 
ATOM      7  S   UNL     1      48.175  10.981  12.565  0.00  0.00    +0.000 S 
ATOM      8  C   UNL     1      49.022   9.561  12.966  0.00  0.00    +0.000 A 
ATOM      9  N   UNL     1      50.326   9.607  13.357  0.00  0.00    +0.000 NA
ATOM     10  C   UNL     1      50.832   8.462  13.666  0.00  0.00    +0.000 A 
ATOM     11  N   UNL     1      50.161   7.270  13.612  0.00  0.00    +0.000 N 
ATOM     12  C   UNL     1      48.869   7.166  13.157  0.00  0.00    +0.000 A 
ATOM     13  O   UNL     1      48.345   6.066  13.003  0.00  0.00    +0.000 OA
ATOM     14  C   UNL     1      48.233   8.433  12.840  0.00  0.00    +0.000 A 
ATOM     15  H   UNL     1      50.621   6.403  13.838  0.00  0.00    +0.000 HD
ENDBRANCH   2   5
BRANCH   3  16
ATOM     16  C   UNL     1      44.477   5.908  13.105  0.00  0.00    +0.000 C 
BRANCH  16  17
ATOM     17  C   UNL     1      44.969   4.481  12.805  0.00  0.00    +0.000 C 
ATOM     18  C   UNL     1      43.824   3.485  12.547  0.00  0.00    +0.000 C 
ATOM     19  C   UNL     1      43.103   3.747  11.226  0.00  0.00    +0.000 C 
ATOM     20  C   UNL     1      44.055   3.758  10.016  0.00  0.00    +0.000 C 
ATOM     21  C   UNL     1      45.236   4.715  10.267  0.00  0.00    +0.000 C 
ATOM     22  C   UNL     1      45.936   4.483  11.611  0.00  0.00    +0.000 C 
BRANCH  20  23
ATOM     23  C   UNL     1      44.571   2.352   9.624  0.00  0.00    +0.000 C 
BRANCH  23  24
ATOM     24  C   UNL     1      45.503   2.339   8.436  0.00  0.00    +0.000 A 
ATOM     25  C   UNL     1      46.338   1.249   8.174  0.00  0.00    +0.000 A 
ATOM     26  C   UNL     1      47.202   1.318   7.092  0.00  0.00    +0.000 A 
ATOM     27  N   UNL     1      47.281   2.376   6.257  0.00  0.00    +0.000 NA
ATOM     28  C   UNL     1      46.451   3.408   6.512  0.00  0.00    +0.000 A 
ATOM     29  C   UNL     1      45.556   3.436   7.572  0.00  0.00    +0.000 A 
ENDBRANCH  23  24
ENDBRANCH  20  23
ENDBRANCH  16  17
ENDBRANCH   3  16
TORSDOF 5
ENDMDL
MODEL 7
REMARK VINA RESULT:    -7.584      1.629      2.415
REMARK INTER + INTRA:         -10.545
REMARK INTER:                  -9.621
REMARK INTRA:                  -0.924
REMARK UNBOUND:                -0.744
REMARK  Name = 
REMARK  5 active torsions:
REMARK  status: ('A' for Active; 'I' for Inactive)
REMARK    1  A    between atoms: C_2  and  C_18
REMARK    2  A    between atoms: N_3  and  C_4
REMARK    3  A    between atoms: C_4  and  C_5
REMARK    4  A    between atoms: C_8  and  C_9
REMARK    5  A    between atoms: C_9  and  C_10
REMARK                            x       y       z     vdW  Elec       q    Type
REMARK                         _______ _______ _______ _____ _____    ______ ____
ROOT
ATOM      1  O   UNL     1      47.624   5.344  13.439  0.00  0.00    +0.000 OA
ATOM      2  C   UNL     1      46.995   4.940  14.414  0.00  0.00    +0.000 C 
ATOM      3  N   UNL     1      45.637   4.757  14.395  0.00  0.00    +0.000 N 
ATOM      4  H   UNL     1      45.164   4.493  15.251  0.00  0.00    +0.000 HD
ENDROOT
BRANCH   2   5
ATOM      5  C   UNL     1      47.662   4.573  15.671  0.00  0.00    +0.000 A 
ATOM      6  C   UNL     1      47.546   3.284  16.174  0.00  0.00    +0.000 A 
ATOM      7  S   UNL     1      48.370   3.053  17.650  0.00  0.00    +0.000 S 
ATOM      8  C   UNL     1      48.954   4.651  17.641  0.00  0.00    +0.000 A 
ATOM      9  N   UNL     1      49.771   5.107  18.632  0.00  0.00    +0.000 NA
ATOM     10  C   UNL     1      50.168   6.324  18.479  0.00  0.00    +0.000 A 
ATOM     11  N   UNL     1      49.818   7.135  17.434  0.00  0.00    +0.000 N 
ATOM     12  C   UNL     1      48.942   6.744  16.451  0.00  0.00    +0.000 A 
ATOM     13  O   UNL     1      48.555   7.542  15.602  0.00  0.00    +0.000 OA
ATOM     14  C   UNL     1      48.500   5.364  16.546  0.00  0.00    +0.000 A 
ATOM     15  H   UNL     1      50.138   8.090  17.386  0.00  0.00    +0.000 HD
ENDBRANCH   2   5
BRANCH   3  16
ATOM     16  C   UNL     1      44.787   5.075  13.275  0.00  0.00    +0.000 C 
BRANCH  16  17
ATOM     17  C   UNL     1      44.380   3.830  12.467  0.00  0.00    +0.000 C 
ATOM     18  C   UNL     1      43.194   4.083  11.518  0.00  0.00    +0.000 C 
ATOM     19  C   UNL     1      43.562   4.991  10.347  0.00  0.00    +0.000 C 
ATOM     20  C   UNL     1      44.763   4.468   9.537  0.00  0.00    +0.000 C 
ATOM     21  C   UNL     1      45.950   4.165  10.470  0.00  0.00    +0.000 C 
ATOM     22  C   UNL     1      45.577   3.289  11.671  0.00  0.00    +0.000 C 
BRANCH  20  23
ATOM     23  C   UNL     1      44.429   3.233   8.665  0.00  0.00    +0.000 C 
BRANCH  23  24
ATOM     24  C   UNL     1      45.621   2.622   7.969  0.00  0.00    +0.000 A 
ATOM     25  C   UNL     1      46.363   3.339   7.026  0.00  0.00    +0.000 A 
ATOM     26  C   UNL     1      47.420   2.706   6.390  0.00  0.00    +0.000 A 
ATOM     27  N   UNL     1      47.793   1.433   6.635  0.00  0.00    +0.000 NA
ATOM     28  C   UNL     1      47.080   0.764   7.565  0.00  0.00    +0.000 A 
ATOM     29  C   UNL     1      46.003   1.308   8.251  0.00  0.00    +0.000 A 
ENDBRANCH  23  24
ENDBRANCH  20  23
ENDBRANCH  16  17
ENDBRANCH   3  16
TORSDOF 5
ENDMDL
MODEL 8
REMARK VINA RESULT:    -7.030      2.797      4.543
REMARK INTER + INTRA:          -9.830
REMARK INTER:                  -9.280
REMARK INTRA:                  -0.550
REMARK UNBOUND:                -0.744
REMARK  Name = 
REMARK  5 active torsions:
REMARK  status: ('A' for Active; 'I' for Inactive)
REMARK    1  A    between atoms: C_2  and  C_18
REMARK    2  A    between atoms: N_3  and  C_4
REMARK    3  A    between atoms: C_4  and  C_5
REMARK    4  A    between atoms: C_8  and  C_9
REMARK    5  A    between atoms: C_9  and  C_10
REMARK                            x       y       z     vdW  Elec       q    Type
REMARK                         _______ _______ _______ _____ _____    ______ ____
ROOT
ATOM      1  O   UNL     1      48.043   4.710  16.924  0.00  0.00    +0.000 OA
ATOM      2  C   UNL     1      49.155   5.208  16.768  0.00  0.00    +0.000 C 
ATOM      3  N   UNL     1      49.361   6.340  16.023  0.00  0.00    +0.000 N 
ATOM      4  H   UNL     1      50.309   6.661  15.867  0.00  0.00    +0.000 HD
ENDROOT
BRANCH   2   5
ATOM      5  C   UNL     1      50.353   4.651  17.410  0.00  0.00    +0.000 A 
ATOM      6  C   UNL     1      51.183   5.467  18.169  0.00  0.00    +0.000 A 
ATOM      7  S   UNL     1      52.532   4.648  18.817  0.00  0.00    +0.000 S 
ATOM      8  C   UNL     1      52.027   3.165  18.152  0.00  0.00    +0.000 A 
ATOM      9  N   UNL     1      52.737   2.022  18.362  0.00  0.00    +0.000 NA
ATOM     10  C   UNL     1      52.219   0.967  17.831  0.00  0.00    +0.000 A 
ATOM     11  N   UNL     1      51.063   0.947  17.100  0.00  0.00    +0.000 N 
ATOM     12  C   UNL     1      50.352   2.084  16.802  0.00  0.00    +0.000 A 
ATOM     13  O   UNL     1      49.392   2.041  16.038  0.00  0.00    +0.000 OA
ATOM     14  C   UNL     1      50.863   3.297  17.416  0.00  0.00    +0.000 A 
ATOM     15  H   UNL     1      50.724   0.093  16.684  0.00  0.00    +0.000 HD
ENDBRANCH   2   5
BRANCH   3  16
ATOM     16  C   UNL     1      48.331   7.033  15.290  0.00  0.00    +0.000 C 
BRANCH  16  17
ATOM     17  C   UNL     1      48.354   6.711  13.785  0.00  0.00    +0.000 C 
ATOM     18  C   UNL     1      47.592   5.422  13.428  0.00  0.00    +0.000 C 
ATOM     19  C   UNL     1      46.081   5.567  13.595  0.00  0.00    +0.000 C 
ATOM     20  C   UNL     1      45.500   6.745  12.792  0.00  0.00    +0.000 C 
ATOM     21  C   UNL     1      46.274   8.041  13.098  0.00  0.00    +0.000 C 
ATOM     22  C   UNL     1      47.794   7.889  12.973  0.00  0.00    +0.000 C 
BRANCH  20  23
ATOM     23  C   UNL     1      45.454   6.489  11.265  0.00  0.00    +0.000 C 
BRANCH  23  24
ATOM     24  C   UNL     1      44.907   5.137  10.878  0.00  0.00    +0.000 A 
ATOM     25  C   UNL     1      45.317   4.491   9.708  0.00  0.00    +0.000 A 
ATOM     26  C   UNL     1      44.744   3.270   9.385  0.00  0.00    +0.000 A 
ATOM     27  N   UNL     1      43.815   2.650  10.144  0.00  0.00    +0.000 NA
ATOM     28  C   UNL     1      43.449   3.278  11.281  0.00  0.00    +0.000 A 
ATOM     29  C   UNL     1      43.960   4.503  11.686  0.00  0.00    +0.000 A 
ENDBRANCH  23  24
ENDBRANCH  20  23
ENDBRANCH  16  17
ENDBRANCH   3  16
TORSDOF 5
ENDMDL
MODEL 9
REMARK VINA RESULT:    -6.649      4.666      7.682
REMARK INTER + INTRA:          -9.337
REMARK INTER:                  -8.374
REMARK INTRA:                  -0.963
REMARK UNBOUND:                -0.744
REMARK  Name = 
REMARK  5 active torsions:
REMARK  status: ('A' for Active; 'I' for Inactive)
REMARK    1  A    between atoms: C_2  and  C_18
REMARK    2  A    between atoms: N_3  and  C_4
REMARK    3  A    between atoms: C_4  and  C_5
REMARK    4  A    between atoms: C_8  and  C_9
REMARK    5  A    between atoms: C_9  and  C_10
REMARK                            x       y       z     vdW  Elec       q    Type
REMARK                         _______ _______ _______ _____ _____    ______ ____
ROOT
ATOM      1  O   UNL     1      44.180   7.572  11.297  0.00  0.00    +0.000 OA
ATOM      2  C   UNL     1      44.764   6.637  11.841  0.00  0.00    +0.000 C 
ATOM      3  N   UNL     1      45.722   6.823  12.804  0.00  0.00    +0.000 N 
ATOM      4  H   UNL     1      46.222   6.018  13.162  0.00  0.00    +0.000 HD
ENDROOT
BRANCH   2   5
ATOM      5  C   UNL     1      44.446   5.237  11.532  0.00  0.00    +0.000 A 
ATOM      6  C   UNL     1      43.669   4.487  12.406  0.00  0.00    +0.000 A 
ATOM      7  S   UNL     1      43.423   2.880  11.889  0.00  0.00    +0.000 S 
ATOM      8  C   UNL     1      44.299   3.145  10.455  0.00  0.00    +0.000 A 
ATOM      9  N   UNL     1      44.446   2.158   9.528  0.00  0.00    +0.000 NA
ATOM     10  C   UNL     1      45.101   2.508   8.474  0.00  0.00    +0.000 A 
ATOM     11  N   UNL     1      45.634   3.750   8.261  0.00  0.00    +0.000 N 
ATOM     12  C   UNL     1      45.573   4.754   9.196  0.00  0.00    +0.000 A 
ATOM     13  O   UNL     1      46.171   5.812   9.021  0.00  0.00    +0.000 OA
ATOM     14  C   UNL     1      44.804   4.431  10.385  0.00  0.00    +0.000 A 
ATOM     15  H   UNL     1      46.163   3.955   7.428  0.00  0.00    +0.000 HD
ENDBRANCH   2   5
BRANCH   3  16
ATOM     16  C   UNL     1      46.202   8.110  13.241  0.00  0.00    +0.000 C 
BRANCH  16  17
ATOM     17  C   UNL     1      47.667   8.069  13.711  0.00  0.00    +0.000 C 
ATOM     18  C   UNL     1      48.515   7.024  12.964  0.00  0.00    +0.000 C 
ATOM     19  C   UNL     1      48.766   7.403  11.506  0.00  0.00    +0.000 C 
ATOM     20  C   UNL     1      49.412   8.792  11.351  0.00  0.00    +0.000 C 
ATOM     21  C   UNL     1      48.605   9.851  12.126  0.00  0.00    +0.000 C 
ATOM     22  C   UNL     1      48.315   9.456  13.578  0.00  0.00    +0.000 C 
BRANCH  20  23
ATOM     23  C   UNL     1      50.902   8.831  11.770  0.00  0.00    +0.000 C 
BRANCH  23  24
ATOM     24  C   UNL     1      51.874   8.653  10.629  0.00  0.00    +0.000 A 
ATOM     25  C   UNL     1      52.381   9.748   9.924  0.00  0.00    +0.000 A 
ATOM     26  C   UNL     1      53.237   9.515   8.858  0.00  0.00    +0.000 A 
ATOM     27  N   UNL     1      53.628   8.285   8.461  0.00  0.00    +0.000 NA
ATOM     28  C   UNL     1      53.146   7.242   9.168  0.00  0.00    +0.000 A 
ATOM     29  C   UNL     1      52.282   7.373  10.245  0.00  0.00    +0.000 A 
ENDBRANCH  23  24
ENDBRANCH  20  23
ENDBRANCH  16  17
ENDBRANCH   3  16
TORSDOF 5
ENDMDL
