MODEL 1
REMARK VINA RESULT:    -7.836      0.000      0.000
REMARK INTER + INTRA:         -12.847
REMARK INTER:                 -11.501
REMARK INTRA:                  -1.347
REMARK UNBOUND:                -1.347
REMARK  Name = 
REMARK  9 active torsions:
REMARK  status: ('A' for Active; 'I' for Inactive)
REMARK    1  A    between atoms: C_1  and  O_2
REMARK    2  A    between atoms: O_2  and  C_3
REMARK    3  A    between atoms: C_10  and  C_11
REMARK    4  A    between atoms: N_13  and  C_14
REMARK    5  A    between atoms: C_14  and  C_15
REMARK    6  A    between atoms: C_18  and  C_19
REMARK    7  A    between atoms: C_19  and  N_20
REMARK    8  A    between atoms: N_20  and  C_21
REMARK    9  A    between atoms: C_21  and  C_22
REMARK                            x       y       z     vdW  Elec       q    Type
REMARK                         _______ _______ _______ _____ _____    ______ ____
ROOT
ATOM      1  C   UNL     1      46.885   8.006  13.187  0.00  0.00    +0.000 C 
ENDROOT
BRANCH   1   2
ATOM      2  C   UNL     1      46.075   7.035  12.346  0.00  0.00    +0.000 A 
ATOM      3  C   UNL     1      44.869   6.551  12.862  0.00  0.00    +0.000 A 
ATOM      4  C   UNL     1      44.139   5.548  12.212  0.00  0.00    +0.000 A 
ATOM      5  C   UNL     1      44.506   5.089  10.946  0.00  0.00    +0.000 A 
ATOM      6  C   UNL     1      45.637   5.678  10.357  0.00  0.00    +0.000 A 
ATOM      7  C   UNL     1      46.433   6.606  11.063  0.00  0.00    +0.000 A 
BRANCH   5   8
ATOM      8  C   UNL     1      43.747   3.966  10.253  0.00  0.00    +0.000 C 
BRANCH   8   9
ATOM      9  N   UNL     1      44.385   2.655  10.430  0.00  0.00    +0.000 NA
ATOM     10  H   UNL     1      43.848   2.092  11.085  0.00  0.00    +0.000 HD
BRANCH   9  11
ATOM     11  C   UNL     1      44.542   1.917   9.170  0.00  0.00    +0.000 C 
BRANCH  11  12
ATOM     12  C   UNL     1      45.964   2.121   8.593  0.00  0.00    +0.000 C 
ATOM     13  C   UNL     1      45.981   3.110   7.436  0.00  0.00    +0.000 C 
ATOM     14  C   UNL     1      47.319   2.843   6.777  0.00  0.00    +0.000 C 
ATOM     15  C   UNL     1      47.573   1.363   7.022  0.00  0.00    +0.000 C 
ATOM     16  N   UNL     1      46.536   0.917   7.964  0.00  0.00    +0.000 NA
ATOM     17  H   UNL     1      46.919   0.279   8.658  0.00  0.00    +0.000 HD
ENDBRANCH  11  12
ENDBRANCH   9  11
ENDBRANCH   8   9
ENDBRANCH   5   8
ENDBRANCH   1   2
BRANCH   1  20
ATOM     18  C   UNL     1      48.676   6.800  14.427  0.00  0.00    +0.000 C 
ATOM     19  O   UNL     1      49.367   6.682  13.411  0.00  0.00    +0.000 OA
ATOM     20  N   UNL     1      47.456   7.427  14.398  0.00  0.00    +0.000 N 
ATOM     21  H   UNL     1      46.914   7.496  15.250  0.00  0.00    +0.000 HD
BRANCH  18  29
ATOM     22  C   UNL     1      47.551   4.266  16.495  0.00  0.00    +0.000 A 
ATOM     23  N   UNL     1      47.335   3.345  17.436  0.00  0.00    +0.000 NA
ATOM     24  C   UNL     1      48.176   3.276  18.469  0.00  0.00    +0.000 A 
ATOM     25  N   UNL     1      49.238   4.052  18.674  0.00  0.00    +0.000 NA
ATOM     26  C   UNL     1      49.417   4.963  17.708  0.00  0.00    +0.000 A 
ATOM     27  S   UNL     1      50.729   6.054  17.801  0.00  0.00    +0.000 S 
ATOM     28  C   UNL     1      50.286   6.793  16.335  0.00  0.00    +0.000 A 
ATOM     29  C   UNL     1      49.153   6.244  15.730  0.00  0.00    +0.000 A 
ATOM     30  C   UNL     1      48.634   5.164  16.564  0.00  0.00    +0.000 A 
BRANCH  22  32
ATOM     31  C   UNL     1      47.175   3.565  14.335  0.00  0.00    +0.000 C 
ATOM     32  O   UNL     1      46.665   4.307  15.441  0.00  0.00    +0.000 OA
ENDBRANCH  22  32
ENDBRANCH  18  29
ENDBRANCH   1  20
TORSDOF 8
ENDMDL
MODEL 2
REMARK VINA RESULT:    -7.576      1.500      1.812
REMARK INTER + INTRA:         -12.466
REMARK INTER:                 -11.408
REMARK INTRA:                  -1.058
REMARK UNBOUND:                -1.347
REMARK  Name = 
REMARK  9 active torsions:
REMARK  status: ('A' for Active; 'I' for Inactive)
REMARK    1  A    between atoms: C_1  and  O_2
REMARK    2  A    between atoms: O_2  and  C_3
REMARK    3  A    between atoms: C_10  and  C_11
REMARK    4  A    between atoms: N_13  and  C_14
REMARK    5  A    between atoms: C_14  and  C_15
REMARK    6  A    between atoms: C_18  and  C_19
REMARK    7  A    between atoms: C_19  and  N_20
REMARK    8  A    between atoms: N_20  and  C_21
REMARK    9  A    between atoms: C_21  and  C_22
REMARK                            x       y       z     vdW  Elec       q    Type
REMARK                         _______ _______ _______ _____ _____    ______ ____
ROOT
ATOM      1  C   UNL     1      47.867   7.015  13.205  0.00  0.00    +0.000 C 
ENDROOT
BRANCH   1   2
ATOM      2  C   UNL     1      46.870   6.030  12.621  0.00  0.00    +0.000 A 
ATOM      3  C   UNL     1      46.395   6.251  11.324  0.00  0.00    +0.000 A 
ATOM      4  C   UNL     1      45.371   5.471  10.771  0.00  0.00    +0.000 A 
ATOM      5  C   UNL     1      44.879   4.346  11.434  0.00  0.00    +0.000 A 
ATOM      6  C   UNL     1      45.456   4.033  12.675  0.00  0.00    +0.000 A 
ATOM      7  C   UNL     1      46.407   4.885  13.278  0.00  0.00    +0.000 A 
BRANCH   5   8
ATOM      8  C   UNL     1      43.733   3.521  10.862  0.00  0.00    +0.000 C 
BRANCH   8   9
ATOM      9  N   UNL     1      43.889   3.250   9.427  0.00  0.00    +0.000 NA
ATOM     10  H   UNL     1      44.445   3.983   8.994  0.00  0.00    +0.000 HD
BRANCH   9  11
ATOM     11  C   UNL     1      44.505   1.946   9.153  0.00  0.00    +0.000 C 
BRANCH  11  12
ATOM     12  C   UNL     1      45.938   2.126   8.593  0.00  0.00    +0.000 C 
ATOM     13  C   UNL     1      45.983   3.104   7.428  0.00  0.00    +0.000 C 
ATOM     14  C   UNL     1      47.326   2.815   6.790  0.00  0.00    +0.000 C 
ATOM     15  C   UNL     1      47.558   1.333   7.051  0.00  0.00    +0.000 C 
ATOM     16  N   UNL     1      46.502   0.910   7.982  0.00  0.00    +0.000 NA
ATOM     17  H   UNL     1      46.867   0.272   8.688  0.00  0.00    +0.000 HD
ENDBRANCH  11  12
ENDBRANCH   9  11
ENDBRANCH   8   9
ENDBRANCH   5   8
ENDBRANCH   1   2
BRANCH   1  20
ATOM     18  C   UNL     1      49.032   7.041  15.405  0.00  0.00    +0.000 C 
ATOM     19  O   UNL     1      50.142   6.952  14.873  0.00  0.00    +0.000 OA
ATOM     20  N   UNL     1      47.879   7.073  14.662  0.00  0.00    +0.000 N 
ATOM     21  H   UNL     1      46.986   7.135  15.135  0.00  0.00    +0.000 HD
BRANCH  18  29
ATOM     22  C   UNL     1      48.898   4.639  17.891  0.00  0.00    +0.000 A 
ATOM     23  N   UNL     1      48.846   3.922  19.015  0.00  0.00    +0.000 NA
ATOM     24  C   UNL     1      48.761   4.565  20.181  0.00  0.00    +0.000 A 
ATOM     25  N   UNL     1      48.717   5.885  20.352  0.00  0.00    +0.000 NA
ATOM     26  C   UNL     1      48.769   6.566  19.199  0.00  0.00    +0.000 A 
ATOM     27  S   UNL     1      48.719   8.274  19.217  0.00  0.00    +0.000 S 
ATOM     28  C   UNL     1      48.830   8.347  17.523  0.00  0.00    +0.000 A 
ATOM     29  C   UNL     1      48.914   7.103  16.894  0.00  0.00    +0.000 A 
ATOM     30  C   UNL     1      48.862   6.047  17.901  0.00  0.00    +0.000 A 
BRANCH  22  32
ATOM     31  C   UNL     1      47.827   3.135  16.515  0.00  0.00    +0.000 C 
ATOM     32  O   UNL     1      48.988   3.943  16.706  0.00  0.00    +0.000 OA
ENDBRANCH  22  32
ENDBRANCH  18  29
ENDBRANCH   1  20
TORSDOF 8
ENDMDL
MODEL 3
REMARK VINA RESULT:    -7.184      2.235      3.441
REMARK INTER + INTRA:         -11.891
REMARK INTER:                 -10.851
REMARK INTRA:                  -1.040
REMARK UNBOUND:                -1.347
REMARK  Name = 
REMARK  9 active torsions:
REMARK  status: ('A' for Active; 'I' for Inactive)
REMARK    1  A    between atoms: C_1  and  O_2
REMARK    2  A    between atoms: O_2  and  C_3
REMARK    3  A    between atoms: C_10  and  C_11
REMARK    4  A    between atoms: N_13  and  C_14
REMARK    5  A    between atoms: C_14  and  C_15
REMARK    6  A    between atoms: C_18  and  C_19
REMARK    7  A    between atoms: C_19  and  N_20
REMARK    8  A    between atoms: N_20  and  C_21
REMARK    9  A    between atoms: C_21  and  C_22
REMARK                            x       y       z     vdW  Elec       q    Type
REMARK                         _______ _______ _______ _____ _____    ______ ____
ROOT
ATOM      1  C   UNL     1      47.302   3.514  14.906  0.00  0.00    +0.000 C 
ENDROOT
BRANCH   1   2
ATOM      2  C   UNL     1      46.702   4.196  13.689  0.00  0.00    +0.000 A 
ATOM      3  C   UNL     1      45.739   3.509  12.945  0.00  0.00    +0.000 A 
ATOM      4  C   UNL     1      45.245   4.010  11.734  0.00  0.00    +0.000 A 
ATOM      5  C   UNL     1      45.584   5.288  11.288  0.00  0.00    +0.000 A 
ATOM      6  C   UNL     1      46.438   6.045  12.106  0.00  0.00    +0.000 A 
ATOM      7  C   UNL     1      47.021   5.493  13.268  0.00  0.00    +0.000 A 
BRANCH   5   8
ATOM      8  C   UNL     1      45.090   5.823   9.950  0.00  0.00    +0.000 C 
BRANCH   8   9
ATOM      9  N   UNL     1      45.731   5.164   8.804  0.00  0.00    +0.000 NA
ATOM     10  H   UNL     1      46.649   4.818   9.071  0.00  0.00    +0.000 HD
BRANCH   9  11
ATOM     11  C   UNL     1      44.934   4.059   8.257  0.00  0.00    +0.000 C 
BRANCH  11  12
ATOM     12  C   UNL     1      45.810   3.142   7.369  0.00  0.00    +0.000 C 
ATOM     13  C   UNL     1      46.209   1.858   8.083  0.00  0.00    +0.000 C 
ATOM     14  C   UNL     1      47.355   1.340   7.240  0.00  0.00    +0.000 C 
ATOM     15  C   UNL     1      48.015   2.595   6.686  0.00  0.00    +0.000 C 
ATOM     16  N   UNL     1      47.124   3.713   7.027  0.00  0.00    +0.000 NA
ATOM     17  H   UNL     1      47.054   4.376   6.258  0.00  0.00    +0.000 HD
ENDBRANCH  11  12
ENDBRANCH   9  11
ENDBRANCH   8   9
ENDBRANCH   5   8
ENDBRANCH   1   2
BRANCH   1  20
ATOM     18  C   UNL     1      47.360   4.266  17.279  0.00  0.00    +0.000 C 
ATOM     19  O   UNL     1      46.640   3.331  17.643  0.00  0.00    +0.000 OA
ATOM     20  N   UNL     1      47.722   4.425  15.965  0.00  0.00    +0.000 N 
ATOM     21  H   UNL     1      48.305   5.210  15.703  0.00  0.00    +0.000 HD
BRANCH  18  29
ATOM     22  C   UNL     1      50.486   5.533  18.044  0.00  0.00    +0.000 A 
ATOM     23  N   UNL     1      51.557   6.178  18.509  0.00  0.00    +0.000 NA
ATOM     24  C   UNL     1      51.392   7.074  19.483  0.00  0.00    +0.000 A 
ATOM     25  N   UNL     1      50.240   7.403  20.065  0.00  0.00    +0.000 NA
ATOM     26  C   UNL     1      49.192   6.732  19.570  0.00  0.00    +0.000 A 
ATOM     27  S   UNL     1      47.628   7.016  20.197  0.00  0.00    +0.000 S 
ATOM     28  C   UNL     1      46.938   5.886  19.131  0.00  0.00    +0.000 A 
ATOM     29  C   UNL     1      47.851   5.268  18.273  0.00  0.00    +0.000 A 
ATOM     30  C   UNL     1      49.194   5.768  18.553  0.00  0.00    +0.000 A 
BRANCH  22  32
ATOM     31  C   UNL     1      51.012   3.339  17.585  0.00  0.00    +0.000 C 
ATOM     32  O   UNL     1      50.693   4.617  17.037  0.00  0.00    +0.000 OA
ENDBRANCH  22  32
ENDBRANCH  18  29
ENDBRANCH   1  20
TORSDOF 8
ENDMDL
MODEL 4
REMARK VINA RESULT:    -7.042      2.757      3.471
REMARK INTER + INTRA:         -11.682
REMARK INTER:                 -10.654
REMARK INTRA:                  -1.028
REMARK UNBOUND:                -1.347
REMARK  Name = 
REMARK  9 active torsions:
REMARK  status: ('A' for Active; 'I' for Inactive)
REMARK    1  A    between atoms: C_1  and  O_2
REMARK    2  A    between atoms: O_2  and  C_3
REMARK    3  A    between atoms: C_10  and  C_11
REMARK    4  A    between atoms: N_13  and  C_14
REMARK    5  A    between atoms: C_14  and  C_15
REMARK    6  A    between atoms: C_18  and  C_19
REMARK    7  A    between atoms: C_19  and  N_20
REMARK    8  A    between atoms: N_20  and  C_21
REMARK    9  A    between atoms: C_21  and  C_22
REMARK                            x       y       z     vdW  Elec       q    Type
REMARK                         _______ _______ _______ _____ _____    ______ ____
ROOT
ATOM      1  C   UNL     1      48.605   6.639  14.145  0.00  0.00    +0.000 C 
ENDROOT
BRANCH   1   2
ATOM      2  C   UNL     1      47.447   6.102  13.321  0.00  0.00    +0.000 A 
ATOM      3  C   UNL     1      46.731   5.006  13.812  0.00  0.00    +0.000 A 
ATOM      4  C   UNL     1      45.747   4.367  13.048  0.00  0.00    +0.000 A 
ATOM      5  C   UNL     1      45.333   4.885  11.820  0.00  0.00    +0.000 A 
ATOM      6  C   UNL     1      45.946   6.072  11.388  0.00  0.00    +0.000 A 
ATOM      7  C   UNL     1      47.016   6.649  12.107  0.00  0.00    +0.000 A 
BRANCH   5   8
ATOM      8  C   UNL     1      44.297   4.171  10.961  0.00  0.00    +0.000 C 
BRANCH   8   9
ATOM      9  N   UNL     1      44.623   2.756  10.738  0.00  0.00    +0.000 NA
ATOM     10  H   UNL     1      44.018   2.167  11.304  0.00  0.00    +0.000 HD
BRANCH   9  11
ATOM     11  C   UNL     1      44.512   2.356   9.329  0.00  0.00    +0.000 C 
BRANCH  11  12
ATOM     12  C   UNL     1      45.903   2.354   8.651  0.00  0.00    +0.000 C 
ATOM     13  C   UNL     1      45.925   3.183   7.375  0.00  0.00    +0.000 C 
ATOM     14  C   UNL     1      47.188   2.713   6.683  0.00  0.00    +0.000 C 
ATOM     15  C   UNL     1      47.334   1.259   7.107  0.00  0.00    +0.000 C 
ATOM     16  N   UNL     1      46.329   1.033   8.155  0.00  0.00    +0.000 NA
ATOM     17  H   UNL     1      46.703   0.455   8.905  0.00  0.00    +0.000 HD
ENDBRANCH  11  12
ENDBRANCH   9  11
ENDBRANCH   8   9
ENDBRANCH   5   8
ENDBRANCH   1   2
BRANCH   1  20
ATOM     18  C   UNL     1      48.757   6.192  16.589  0.00  0.00    +0.000 C 
ATOM     19  O   UNL     1      49.502   5.224  16.415  0.00  0.00    +0.000 OA
ATOM     20  N   UNL     1      48.275   6.928  15.536  0.00  0.00    +0.000 N 
ATOM     21  H   UNL     1      47.657   7.709  15.718  0.00  0.00    +0.000 HD
BRANCH  18  29
ATOM     22  C   UNL     1      47.841   9.193  18.046  0.00  0.00    +0.000 A 
ATOM     23  N   UNL     1      47.444  10.202  18.824  0.00  0.00    +0.000 NA
ATOM     24  C   UNL     1      47.154   9.949  20.100  0.00  0.00    +0.000 A 
ATOM     25  N   UNL     1      47.224   8.764  20.705  0.00  0.00    +0.000 NA
ATOM     26  C   UNL     1      47.628   7.781  19.890  0.00  0.00    +0.000 A 
ATOM     27  S   UNL     1      47.784   6.189  20.489  0.00  0.00    +0.000 S 
ATOM     28  C   UNL     1      48.284   5.610  18.971  0.00  0.00    +0.000 A 
ATOM     29  C   UNL     1      48.344   6.584  17.972  0.00  0.00    +0.000 A 
ATOM     30  C   UNL     1      47.966   7.878  18.533  0.00  0.00    +0.000 A 
BRANCH  22  32
ATOM     31  C   UNL     1      49.098  10.536  16.660  0.00  0.00    +0.000 C 
ATOM     32  O   UNL     1      48.130   9.490  16.732  0.00  0.00    +0.000 OA
ENDBRANCH  22  32
ENDBRANCH  18  29
ENDBRANCH   1  20
TORSDOF 8
ENDMDL
MODEL 5
REMARK VINA RESULT:    -6.978      4.399      9.059
REMARK INTER + INTRA:         -11.588
REMARK INTER:                 -10.850
REMARK INTRA:                  -0.738
REMARK UNBOUND:                -1.347
REMARK  Name = 
REMARK  9 active torsions:
REMARK  status: ('A' for Active; 'I' for Inactive)
REMARK    1  A    between atoms: C_1  and  O_2
REMARK    2  A    between atoms: O_2  and  C_3
REMARK    3  A    between atoms: C_10  and  C_11
REMARK    4  A    between atoms: N_13  and  C_14
REMARK    5  A    between atoms: C_14  and  C_15
REMARK    6  A    between atoms: C_18  and  C_19
REMARK    7  A    between atoms: C_19  and  N_20
REMARK    8  A    between atoms: N_20  and  C_21
REMARK    9  A    between atoms: C_21  and  C_22
REMARK                            x       y       z     vdW  Elec       q    Type
REMARK                         _______ _______ _______ _____ _____    ______ ____
ROOT
ATOM      1  C   UNL     1      47.267   3.525  16.927  0.00  0.00    +0.000 C 
ENDROOT
BRANCH   1   2
ATOM      2  C   UNL     1      48.763   3.375  17.140  0.00  0.00    +0.000 A 
ATOM      3  C   UNL     1      49.346   2.123  16.923  0.00  0.00    +0.000 A 
ATOM      4  C   UNL     1      50.688   1.870  17.234  0.00  0.00    +0.000 A 
ATOM      5  C   UNL     1      51.543   2.896  17.638  0.00  0.00    +0.000 A 
ATOM      6  C   UNL     1      50.999   4.188  17.717  0.00  0.00    +0.000 A 
ATOM      7  C   UNL     1      49.620   4.417  17.512  0.00  0.00    +0.000 A 
BRANCH   5   8
ATOM      8  C   UNL     1      52.991   2.623  18.024  0.00  0.00    +0.000 C 
BRANCH   8   9
ATOM      9  N   UNL     1      53.181   1.286  18.603  0.00  0.00    +0.000 NA
ATOM     10  H   UNL     1      52.279   0.868  18.817  0.00  0.00    +0.000 HD
BRANCH   9  11
ATOM     11  C   UNL     1      53.940   0.383  17.727  0.00  0.00    +0.000 C 
BRANCH  11  12
ATOM     12  C   UNL     1      54.326  -0.912  18.482  0.00  0.00    +0.000 C 
ATOM     13  C   UNL     1      54.878  -1.981  17.549  0.00  0.00    +0.000 C 
ATOM     14  C   UNL     1      54.787  -3.242  18.382  0.00  0.00    +0.000 C 
ATOM     15  C   UNL     1      53.577  -3.018  19.278  0.00  0.00    +0.000 C 
ATOM     16  N   UNL     1      53.184  -1.613  19.095  0.00  0.00    +0.000 NA
ATOM     17  H   UNL     1      52.916  -1.188  19.980  0.00  0.00    +0.000 HD
ENDBRANCH  11  12
ENDBRANCH   9  11
ENDBRANCH   8   9
ENDBRANCH   5   8
ENDBRANCH   1   2
BRANCH   1  20
ATOM     18  C   UNL     1      46.910   4.274  14.579  0.00  0.00    +0.000 C 
ATOM     19  O   UNL     1      47.253   3.178  14.127  0.00  0.00    +0.000 OA
ATOM     20  N   UNL     1      46.895   4.522  15.929  0.00  0.00    +0.000 N 
ATOM     21  H   UNL     1      46.618   5.436  16.262  0.00  0.00    +0.000 HD
BRANCH  18  29
ATOM     22  C   UNL     1      44.087   4.888  12.677  0.00  0.00    +0.000 A 
ATOM     23  N   UNL     1      43.120   5.354  11.885  0.00  0.00    +0.000 NA
ATOM     24  C   UNL     1      43.309   6.519  11.264  0.00  0.00    +0.000 A 
ATOM     25  N   UNL     1      44.391   7.291  11.346  0.00  0.00    +0.000 NA
ATOM     26  C   UNL     1      45.337   6.786  12.149  0.00  0.00    +0.000 A 
ATOM     27  S   UNL     1      46.802   7.633  12.376  0.00  0.00    +0.000 S 
ATOM     28  C   UNL     1      47.390   6.440  13.434  0.00  0.00    +0.000 A 
ATOM     29  C   UNL     1      46.510   5.378  13.655  0.00  0.00    +0.000 A 
ATOM     30  C   UNL     1      45.295   5.586  12.872  0.00  0.00    +0.000 A 
BRANCH  22  32
ATOM     31  C   UNL     1      43.518   2.682  12.348  0.00  0.00    +0.000 C 
ATOM     32  O   UNL     1      43.857   3.684  13.306  0.00  0.00    +0.000 OA
ENDBRANCH  22  32
ENDBRANCH  18  29
ENDBRANCH   1  20
TORSDOF 8
ENDMDL
MODEL 6
REMARK VINA RESULT:    -6.929      2.158      3.787
REMARK INTER + INTRA:         -11.516
REMARK INTER:                 -10.299
REMARK INTRA:                  -1.217
REMARK UNBOUND:                -1.347
REMARK  Name = 
REMARK  9 active torsions:
REMARK  status: ('A' for Active; 'I' for Inactive)
REMARK    1  A    between atoms: C_1  and  O_2
REMARK    2  A    between atoms: O_2  and  C_3
REMARK    3  A    between atoms: C_10  and  C_11
REMARK    4  A    between atoms: N_13  and  C_14
REMARK    5  A    between atoms: C_14  and  C_15
REMARK    6  A    between atoms: C_18  and  C_19
REMARK    7  A    between atoms: C_19  and  N_20
REMARK    8  A    between atoms: N_20  and  C_21
REMARK    9  A    between atoms: C_21  and  C_22
REMARK                            x       y       z     vdW  Elec       q    Type
REMARK                         _______ _______ _______ _____ _____    ______ ____
ROOT
ATOM      1  C   UNL     1      47.164   4.319  14.749  0.00  0.00    +0.000 C 
ENDROOT
BRANCH   1   2
ATOM      2  C   UNL     1      46.344   4.370  13.471  0.00  0.00    +0.000 A 
ATOM      3  C   UNL     1      46.232   5.590  12.798  0.00  0.00    +0.000 A 
ATOM      4  C   UNL     1      45.381   5.749  11.697  0.00  0.00    +0.000 A 
ATOM      5  C   UNL     1      44.718   4.660  11.131  0.00  0.00    +0.000 A 
ATOM      6  C   UNL     1      44.943   3.402  11.713  0.00  0.00    +0.000 A 
ATOM      7  C   UNL     1      45.711   3.265  12.890  0.00  0.00    +0.000 A 
BRANCH   5   8
ATOM      8  C   UNL     1      43.755   4.831   9.964  0.00  0.00    +0.000 C 
BRANCH   8   9
ATOM      9  N   UNL     1      44.146   4.048   8.784  0.00  0.00    +0.000 NA
ATOM     10  H   UNL     1      43.471   4.184   8.037  0.00  0.00    +0.000 HD
BRANCH   9  11
ATOM     11  C   UNL     1      45.489   4.382   8.293  0.00  0.00    +0.000 C 
BRANCH  11  12
ATOM     12  C   UNL     1      46.044   3.242   7.404  0.00  0.00    +0.000 C 
ATOM     13  C   UNL     1      46.221   1.943   8.176  0.00  0.00    +0.000 C 
ATOM     14  C   UNL     1      47.132   1.132   7.277  0.00  0.00    +0.000 C 
ATOM     15  C   UNL     1      47.992   2.172   6.573  0.00  0.00    +0.000 C 
ATOM     16  N   UNL     1      47.410   3.480   6.905  0.00  0.00    +0.000 NA
ATOM     17  H   UNL     1      47.410   4.099   6.096  0.00  0.00    +0.000 HD
ENDBRANCH  11  12
ENDBRANCH   9  11
ENDBRANCH   8   9
ENDBRANCH   5   8
ENDBRANCH   1   2
BRANCH   1  20
ATOM     18  C   UNL     1      48.571   5.795  16.178  0.00  0.00    +0.000 C 
ATOM     19  O   UNL     1      49.206   4.836  16.626  0.00  0.00    +0.000 OA
ATOM     20  N   UNL     1      47.561   5.625  15.265  0.00  0.00    +0.000 N 
ATOM     21  H   UNL     1      47.056   6.435  14.928  0.00  0.00    +0.000 HD
BRANCH  18  29
ATOM     22  C   UNL     1      48.966   8.815  14.538  0.00  0.00    +0.000 A 
ATOM     23  N   UNL     1      49.145  10.079  14.151  0.00  0.00    +0.000 NA
ATOM     24  C   UNL     1      49.398  11.002  15.079  0.00  0.00    +0.000 A 
ATOM     25  N   UNL     1      49.499  10.794  16.391  0.00  0.00    +0.000 NA
ATOM     26  C   UNL     1      49.314   9.513  16.736  0.00  0.00    +0.000 A 
ATOM     27  S   UNL     1      49.411   9.052  18.378  0.00  0.00    +0.000 S 
ATOM     28  C   UNL     1      49.082   7.428  17.996  0.00  0.00    +0.000 A 
ATOM     29  C   UNL     1      48.883   7.183  16.635  0.00  0.00    +0.000 A 
ATOM     30  C   UNL     1      49.039   8.430  15.890  0.00  0.00    +0.000 A 
BRANCH  22  32
ATOM     31  C   UNL     1      48.764   8.501  12.266  0.00  0.00    +0.000 C 
ATOM     32  O   UNL     1      48.704   7.888  13.553  0.00  0.00    +0.000 OA
ENDBRANCH  22  32
ENDBRANCH  18  29
ENDBRANCH   1  20
TORSDOF 8
ENDMDL
MODEL 7
REMARK VINA RESULT:    -6.542      3.026      7.689
REMARK INTER + INTRA:         -10.949
REMARK INTER:                  -9.448
REMARK INTRA:                  -1.501
REMARK UNBOUND:                -1.347
REMARK  Name = 
REMARK  9 active torsions:
REMARK  status: ('A' for Active; 'I' for Inactive)
REMARK    1  A    between atoms: C_1  and  O_2
REMARK    2  A    between atoms: O_2  and  C_3
REMARK    3  A    between atoms: C_10  and  C_11
REMARK    4  A    between atoms: N_13  and  C_14
REMARK    5  A    between atoms: C_14  and  C_15
REMARK    6  A    between atoms: C_18  and  C_19
REMARK    7  A    between atoms: C_19  and  N_20
REMARK    8  A    between atoms: N_20  and  C_21
REMARK    9  A    between atoms: C_21  and  C_22
REMARK                            x       y       z     vdW  Elec       q    Type
REMARK                         _______ _______ _______ _____ _____    ______ ____
ROOT
ATOM      1  C   UNL     1      48.431   8.127  11.931  0.00  0.00    +0.000 C 
ENDROOT
BRANCH   1   2
ATOM      2  C   UNL     1      48.540   8.104  13.445  0.00  0.00    +0.000 A 
ATOM      3  C   UNL     1      49.062   6.962  14.059  0.00  0.00    +0.000 A 
ATOM      4  C   UNL     1      49.063   6.808  15.451  0.00  0.00    +0.000 A 
ATOM      5  C   UNL     1      48.678   7.849  16.295  0.00  0.00    +0.000 A 
ATOM      6  C   UNL     1      48.292   9.055  15.687  0.00  0.00    +0.000 A 
ATOM      7  C   UNL     1      48.184   9.167  14.283  0.00  0.00    +0.000 A 
BRANCH   5   8
ATOM      8  C   UNL     1      48.631   7.675  17.807  0.00  0.00    +0.000 C 
BRANCH   8   9
ATOM      9  N   UNL     1      49.499   6.590  18.282  0.00  0.00    +0.000 NA
ATOM     10  H   UNL     1      50.384   6.970  18.607  0.00  0.00    +0.000 HD
BRANCH   9  11
ATOM     11  C   UNL     1      48.889   5.793  19.354  0.00  0.00    +0.000 C 
BRANCH  11  12
ATOM     12  C   UNL     1      48.501   4.387  18.835  0.00  0.00    +0.000 C 
ATOM     13  C   UNL     1      49.389   3.930  17.687  0.00  0.00    +0.000 C 
ATOM     14  C   UNL     1      48.603   2.786  17.081  0.00  0.00    +0.000 C 
ATOM     15  C   UNL     1      47.146   3.155  17.327  0.00  0.00    +0.000 C 
ATOM     16  N   UNL     1      47.163   4.320  18.223  0.00  0.00    +0.000 NA
ATOM     17  H   UNL     1      46.432   4.252  18.928  0.00  0.00    +0.000 HD
ENDBRANCH  11  12
ENDBRANCH   9  11
ENDBRANCH   8   9
ENDBRANCH   5   8
ENDBRANCH   1   2
BRANCH   1  20
ATOM     18  C   UNL     1      46.324   6.932  11.354  0.00  0.00    +0.000 C 
ATOM     19  O   UNL     1      45.626   7.824  11.847  0.00  0.00    +0.000 OA
ATOM     20  N   UNL     1      47.693   7.005  11.360  0.00  0.00    +0.000 N 
ATOM     21  H   UNL     1      48.232   6.249  10.955  0.00  0.00    +0.000 HD
BRANCH  18  29
ATOM     22  C   UNL     1      44.468   4.307  12.631  0.00  0.00    +0.000 A 
ATOM     23  N   UNL     1      43.730   3.221  12.869  0.00  0.00    +0.000 NA
ATOM     24  C   UNL     1      43.397   2.437  11.843  0.00  0.00    +0.000 A 
ATOM     25  N   UNL     1      43.734   2.622  10.567  0.00  0.00    +0.000 NA
ATOM     26  C   UNL     1      44.475   3.721  10.374  0.00  0.00    +0.000 A 
ATOM     27  S   UNL     1      45.008   4.121   8.801  0.00  0.00    +0.000 S 
ATOM     28  C   UNL     1      45.798   5.516   9.366  0.00  0.00    +0.000 A 
ATOM     29  C   UNL     1      45.683   5.728  10.742  0.00  0.00    +0.000 A 
ATOM     30  C   UNL     1      44.905   4.645  11.336  0.00  0.00    +0.000 A 
BRANCH  22  32
ATOM     31  C   UNL     1      46.097   4.773  14.191  0.00  0.00    +0.000 C 
ATOM     32  O   UNL     1      44.791   5.095  13.714  0.00  0.00    +0.000 OA
ENDBRANCH  22  32
ENDBRANCH  18  29
ENDBRANCH   1  20
TORSDOF 8
ENDMDL
MODEL 8
REMARK VINA RESULT:    -6.397      2.510      3.600
REMARK INTER + INTRA:         -10.736
REMARK INTER:                  -9.771
REMARK INTRA:                  -0.964
REMARK UNBOUND:                -1.347
REMARK  Name = 
REMARK  9 active torsions:
REMARK  status: ('A' for Active; 'I' for Inactive)
REMARK    1  A    between atoms: C_1  and  O_2
REMARK    2  A    between atoms: O_2  and  C_3
REMARK    3  A    between atoms: C_10  and  C_11
REMARK    4  A    between atoms: N_13  and  C_14
REMARK    5  A    between atoms: C_14  and  C_15
REMARK    6  A    between atoms: C_18  and  C_19
REMARK    7  A    between atoms: C_19  and  N_20
REMARK    8  A    between atoms: N_20  and  C_21
REMARK    9  A    between atoms: C_21  and  C_22
REMARK                            x       y       z     vdW  Elec       q    Type
REMARK                         _______ _______ _______ _____ _____    ______ ____
ROOT
ATOM      1  C   UNL     1      47.131   4.627  14.690  0.00  0.00    +0.000 C 
ENDROOT
BRANCH   1   2
ATOM      2  C   UNL     1      46.185   4.531  13.506  0.00  0.00    +0.000 A 
ATOM      3  C   UNL     1      46.001   3.286  12.898  0.00  0.00    +0.000 A 
ATOM      4  C   UNL     1      45.260   3.143  11.719  0.00  0.00    +0.000 A 
ATOM      5  C   UNL     1      44.546   4.213  11.178  0.00  0.00    +0.000 A 
ATOM      6  C   UNL     1      44.607   5.435  11.867  0.00  0.00    +0.000 A 
ATOM      7  C   UNL     1      45.446   5.603  12.991  0.00  0.00    +0.000 A 
BRANCH   5   8
ATOM      8  C   UNL     1      43.776   4.080   9.870  0.00  0.00    +0.000 C 
BRANCH   8   9
ATOM      9  N   UNL     1      44.434   4.766   8.751  0.00  0.00    +0.000 NA
ATOM     10  H   UNL     1      44.297   5.771   8.831  0.00  0.00    +0.000 HD
BRANCH   9  11
ATOM     11  C   UNL     1      45.871   4.476   8.664  0.00  0.00    +0.000 C 
BRANCH  11  12
ATOM     12  C   UNL     1      46.140   3.351   7.635  0.00  0.00    +0.000 C 
ATOM     13  C   UNL     1      46.260   1.984   8.293  0.00  0.00    +0.000 C 
ATOM     14  C   UNL     1      46.918   1.143   7.219  0.00  0.00    +0.000 C 
ATOM     15  C   UNL     1      47.791   2.126   6.451  0.00  0.00    +0.000 C 
ATOM     16  N   UNL     1      47.436   3.464   6.945  0.00  0.00    +0.000 NA
ATOM     17  H   UNL     1      47.396   4.139   6.183  0.00  0.00    +0.000 HD
ENDBRANCH  11  12
ENDBRANCH   9  11
ENDBRANCH   8   9
ENDBRANCH   5   8
ENDBRANCH   1   2
BRANCH   1  20
ATOM     18  C   UNL     1      48.424   6.725  14.335  0.00  0.00    +0.000 C 
ATOM     19  O   UNL     1      48.985   6.267  13.335  0.00  0.00    +0.000 OA
ATOM     20  N   UNL     1      47.514   5.988  15.050  0.00  0.00    +0.000 N 
ATOM     21  H   UNL     1      47.083   6.394  15.871  0.00  0.00    +0.000 HD
BRANCH  18  29
ATOM     22  C   UNL     1      49.323   8.058  17.399  0.00  0.00    +0.000 A 
ATOM     23  N   UNL     1      49.691   8.800  18.444  0.00  0.00    +0.000 NA
ATOM     24  C   UNL     1      49.868  10.110  18.268  0.00  0.00    +0.000 A 
ATOM     25  N   UNL     1      49.709  10.781  17.129  0.00  0.00    +0.000 NA
ATOM     26  C   UNL     1      49.338   9.999  16.106  0.00  0.00    +0.000 A 
ATOM     27  S   UNL     1      49.079  10.684  14.563  0.00  0.00    +0.000 S 
ATOM     28  C   UNL     1      48.682   9.170  13.899  0.00  0.00    +0.000 A 
ATOM     29  C   UNL     1      48.737   8.109  14.806  0.00  0.00    +0.000 A 
ATOM     30  C   UNL     1      49.114   8.616  16.123  0.00  0.00    +0.000 A 
BRANCH  22  32
ATOM     31  C   UNL     1      48.077   6.484  18.528  0.00  0.00    +0.000 C 
ATOM     32  O   UNL     1      49.152   6.708  17.616  0.00  0.00    +0.000 OA
ENDBRANCH  22  32
ENDBRANCH  18  29
ENDBRANCH   1  20
TORSDOF 8
ENDMDL
MODEL 9
REMARK VINA RESULT:    -6.169      1.722      2.430
REMARK INTER + INTRA:         -10.401
REMARK INTER:                  -9.061
REMARK INTRA:                  -1.340
REMARK UNBOUND:                -1.347
REMARK  Name = 
REMARK  9 active torsions:
REMARK  status: ('A' for Active; 'I' for Inactive)
REMARK    1  A    between atoms: C_1  and  O_2
REMARK    2  A    between atoms: O_2  and  C_3
REMARK    3  A    between atoms: C_10  and  C_11
REMARK    4  A    between atoms: N_13  and  C_14
REMARK    5  A    between atoms: C_14  and  C_15
REMARK    6  A    between atoms: C_18  and  C_19
REMARK    7  A    between atoms: C_19  and  N_20
REMARK    8  A    between atoms: N_20  and  C_21
REMARK    9  A    between atoms: C_21  and  C_22
REMARK                            x       y       z     vdW  Elec       q    Type
REMARK                         _______ _______ _______ _____ _____    ______ ____
ROOT
ATOM      1  C   UNL     1      49.603   7.732  12.985  0.00  0.00    +0.000 C 
ENDROOT
BRANCH   1   2
ATOM      2  C   UNL     1      48.150   7.404  12.688  0.00  0.00    +0.000 A 
ATOM      3  C   UNL     1      47.715   6.087  12.861  0.00  0.00    +0.000 A 
ATOM      4  C   UNL     1      46.433   5.677  12.473  0.00  0.00    +0.000 A 
ATOM      5  C   UNL     1      45.481   6.596  12.032  0.00  0.00    +0.000 A 
ATOM      6  C   UNL     1      45.866   7.946  11.996  0.00  0.00    +0.000 A 
ATOM      7  C   UNL     1      47.193   8.339  12.279  0.00  0.00    +0.000 A 
BRANCH   5   8
ATOM      8  C   UNL     1      44.101   6.154  11.564  0.00  0.00    +0.000 C 
BRANCH   8   9
ATOM      9  N   UNL     1      43.785   4.773  11.953  0.00  0.00    +0.000 NA
ATOM     10  H   UNL     1      43.029   4.768  12.633  0.00  0.00    +0.000 HD
BRANCH   9  11
ATOM     11  C   UNL     1      43.418   3.925  10.812  0.00  0.00    +0.000 C 
BRANCH  11  12
ATOM     12  C   UNL     1      44.678   3.512  10.012  0.00  0.00    +0.000 C 
ATOM     13  C   UNL     1      44.650   4.032   8.582  0.00  0.00    +0.000 C 
ATOM     14  C   UNL     1      45.706   3.193   7.892  0.00  0.00    +0.000 C 
ATOM     15  C   UNL     1      45.671   1.861   8.627  0.00  0.00    +0.000 C 
ATOM     16  N   UNL     1      44.805   2.060   9.798  0.00  0.00    +0.000 NA
ATOM     17  H   UNL     1      45.184   1.592  10.619  0.00  0.00    +0.000 HD
ENDBRANCH  11  12
ENDBRANCH   9  11
ENDBRANCH   8   9
ENDBRANCH   5   8
ENDBRANCH   1   2
BRANCH   1  20
ATOM     18  C   UNL     1      49.836   8.187  15.422  0.00  0.00    +0.000 C 
ATOM     19  O   UNL     1      49.268   9.279  15.321  0.00  0.00    +0.000 OA
ATOM     20  N   UNL     1      50.040   7.380  14.332  0.00  0.00    +0.000 N 
ATOM     21  H   UNL     1      50.519   6.496  14.452  0.00  0.00    +0.000 HD
BRANCH  18  29
ATOM     22  C   UNL     1      49.448   5.255  17.215  0.00  0.00    +0.000 A 
ATOM     23  N   UNL     1      49.466   4.239  18.079  0.00  0.00    +0.000 NA
ATOM     24  C   UNL     1      50.162   4.373  19.210  0.00  0.00    +0.000 A 
ATOM     25  N   UNL     1      50.858   5.444  19.585  0.00  0.00    +0.000 NA
ATOM     26  C   UNL     1      50.812   6.440  18.690  0.00  0.00    +0.000 A 
ATOM     27  S   UNL     1      51.642   7.901  19.000  0.00  0.00    +0.000 S 
ATOM     28  C   UNL     1      51.132   8.566  17.522  0.00  0.00    +0.000 A 
ATOM     29  C   UNL     1      50.333   7.718  16.751  0.00  0.00    +0.000 A 
ATOM     30  C   UNL     1      50.136   6.459  17.463  0.00  0.00    +0.000 A 
BRANCH  22  32
ATOM     31  C   UNL     1      47.478   4.444  16.342  0.00  0.00    +0.000 C 
ATOM     32  O   UNL     1      48.723   5.081  16.057  0.00  0.00    +0.000 OA
ENDBRANCH  22  32
ENDBRANCH  18  29
ENDBRANCH   1  20
TORSDOF 8
ENDMDL
