MODEL 1
REMARK VINA RESULT:    -8.590      0.000      0.000
REMARK INTER + INTRA:         -11.706
REMARK INTER:                 -11.100
REMARK INTRA:                  -0.605
REMARK UNBOUND:                -0.605
REMARK  Name = 
REMARK  5 active torsions:
REMARK  status: ('A' for Active; 'I' for Inactive)
REMARK    1  A    between atoms: C_2  and  C_4
REMARK    2  A    between atoms: C_7  and  N_8
REMARK    3  A    between atoms: N_8  and  C_9
REMARK    4  A    between atoms: C_9  and  C_10
REMARK    5  A    between atoms: C_14  and  C_15
REMARK                            x       y       z     vdW  Elec       q    Type
REMARK                         _______ _______ _______ _____ _____    ______ ____
ROOT
ATOM      1  C   UNL     1      43.456   4.526  11.024  0.00  0.00    +0.000 C 
ENDROOT
BRANCH   1   2
ATOM      2  C   UNL     1      44.652   4.861  11.878  0.00  0.00    +0.000 A 
ATOM      3  C   UNL     1      45.061   4.043  12.919  0.00  0.00    +0.000 A 
ATOM      4  N   UNL     1      46.106   4.328  13.724  0.00  0.00    +0.000 NA
ATOM      5  C   UNL     1      46.766   5.491  13.486  0.00  0.00    +0.000 A 
ATOM      6  C   UNL     1      46.458   6.403  12.473  0.00  0.00    +0.000 A 
ATOM      7  C   UNL     1      45.370   6.049  11.665  0.00  0.00    +0.000 A 
BRANCH   6   8
ATOM      8  C   UNL     1      47.217   7.657  12.268  0.00  0.00    +0.000 A 
ATOM      9  C   UNL     1      46.675   8.911  12.583  0.00  0.00    +0.000 A 
ATOM     10  C   UNL     1      47.429  10.059  12.372  0.00  0.00    +0.000 A 
ATOM     11  N   UNL     1      48.681  10.054  11.879  0.00  0.00    +0.000 NA
ATOM     12  C   UNL     1      49.197   8.847  11.583  0.00  0.00    +0.000 A 
ATOM     13  F   UNL     1      50.445   8.811  11.096  0.00  0.00    +0.000 F 
ATOM     14  C   UNL     1      48.521   7.649  11.751  0.00  0.00    +0.000 A 
ENDBRANCH   6   8
ENDBRANCH   1   2
BRANCH   1  15
ATOM     15  N   UNL     1      43.758   4.889   9.645  0.00  0.00    +0.000 N 
ATOM     16  H   UNL     1      44.068   5.852   9.559  0.00  0.00    +0.000 HD
BRANCH  15  20
ATOM     17  C   UNL     1      46.298   2.233   7.824  0.00  0.00    +0.000 A 
ATOM     18  C   UNL     1      46.353   3.582   7.518  0.00  0.00    +0.000 A 
ATOM     19  N   UNL     1      45.500   4.490   8.066  0.00  0.00    +0.000 NA
ATOM     20  C   UNL     1      44.587   4.016   8.939  0.00  0.00    +0.000 A 
ATOM     21  C   UNL     1      44.545   2.643   9.226  0.00  0.00    +0.000 A 
ATOM     22  N   UNL     1      45.378   1.717   8.683  0.00  0.00    +0.000 NA
BRANCH  17  24
ATOM     23  N   UNL     1      48.373   1.884   6.631  0.00  0.00    +0.000 N 
ATOM     24  C   UNL     1      47.292   1.297   7.232  0.00  0.00    +0.000 C 
ATOM     25  O   UNL     1      47.152   0.082   7.270  0.00  0.00    +0.000 OA
ATOM     26  H   UNL     1      49.073   1.304   6.190  0.00  0.00    +0.000 HD
ATOM     27  H   UNL     1      48.450   2.894   6.600  0.00  0.00    +0.000 HD
ENDBRANCH  17  24
ENDBRANCH  15  20
ENDBRANCH   1  15
TORSDOF 5
ENDMDL
MODEL 2
REMARK VINA RESULT:    -8.536      2.791      3.890
REMARK INTER + INTRA:         -11.637
REMARK INTER:                 -11.108
REMARK INTRA:                  -0.529
REMARK UNBOUND:                -0.605
REMARK  Name = 
REMARK  5 active torsions:
REMARK  status: ('A' for Active; 'I' for Inactive)
REMARK    1  A    between atoms: C_2  and  C_4
REMARK    2  A    between atoms: C_7  and  N_8
REMARK    3  A    between atoms: N_8  and  C_9
REMARK    4  A    between atoms: C_9  and  C_10
REMARK    5  A    between atoms: C_14  and  C_15
REMARK                            x       y       z     vdW  Elec       q    Type
REMARK                         _______ _______ _______ _____ _____    ______ ____
ROOT
ATOM      1  C   UNL     1      44.058   4.839  11.303  0.00  0.00    +0.000 C 
ENDROOT
BRANCH   1   2
ATOM      2  C   UNL     1      45.312   5.452  11.871  0.00  0.00    +0.000 A 
ATOM      3  C   UNL     1      46.062   6.377  11.162  0.00  0.00    +0.000 A 
ATOM      4  N   UNL     1      47.206   6.921  11.626  0.00  0.00    +0.000 NA
ATOM      5  C   UNL     1      47.629   6.512  12.850  0.00  0.00    +0.000 A 
ATOM      6  C   UNL     1      46.971   5.589  13.667  0.00  0.00    +0.000 A 
ATOM      7  C   UNL     1      45.785   5.066  13.136  0.00  0.00    +0.000 A 
BRANCH   6   8
ATOM      8  C   UNL     1      47.487   5.184  14.993  0.00  0.00    +0.000 A 
ATOM      9  C   UNL     1      48.418   5.962  15.696  0.00  0.00    +0.000 A 
ATOM     10  C   UNL     1      48.871   5.537  16.938  0.00  0.00    +0.000 A 
ATOM     11  N   UNL     1      48.465   4.402  17.537  0.00  0.00    +0.000 NA
ATOM     12  C   UNL     1      47.569   3.662  16.859  0.00  0.00    +0.000 A 
ATOM     13  F   UNL     1      47.141   2.529  17.434  0.00  0.00    +0.000 F 
ATOM     14  C   UNL     1      47.065   3.999  15.613  0.00  0.00    +0.000 A 
ENDBRANCH   6   8
ENDBRANCH   1   2
BRANCH   1  15
ATOM     15  N   UNL     1      44.075   5.012   9.856  0.00  0.00    +0.000 N 
ATOM     16  H   UNL     1      44.343   5.953   9.584  0.00  0.00    +0.000 HD
BRANCH  15  20
ATOM     17  C   UNL     1      46.226   2.090   7.943  0.00  0.00    +0.000 A 
ATOM     18  C   UNL     1      46.340   3.415   7.558  0.00  0.00    +0.000 A 
ATOM     19  N   UNL     1      45.612   4.409   8.136  0.00  0.00    +0.000 NA
ATOM     20  C   UNL     1      44.765   4.046   9.121  0.00  0.00    +0.000 A 
ATOM     21  C   UNL     1      44.660   2.696   9.488  0.00  0.00    +0.000 A 
ATOM     22  N   UNL     1      45.367   1.687   8.917  0.00  0.00    +0.000 NA
BRANCH  17  24
ATOM     23  N   UNL     1      46.805  -0.240   7.647  0.00  0.00    +0.000 N 
ATOM     24  C   UNL     1      47.087   1.056   7.308  0.00  0.00    +0.000 C 
ATOM     25  O   UNL     1      47.994   1.343   6.538  0.00  0.00    +0.000 OA
ATOM     26  H   UNL     1      47.368  -0.988   7.267  0.00  0.00    +0.000 HD
ATOM     27  H   UNL     1      46.059  -0.443   8.302  0.00  0.00    +0.000 HD
ENDBRANCH  17  24
ENDBRANCH  15  20
ENDBRANCH   1  15
TORSDOF 5
ENDMDL
MODEL 3
REMARK VINA RESULT:    -8.418      3.331      6.882
REMARK INTER + INTRA:         -11.483
REMARK INTER:                 -10.808
REMARK INTRA:                  -0.675
REMARK UNBOUND:                -0.605
REMARK  Name = 
REMARK  5 active torsions:
REMARK  status: ('A' for Active; 'I' for Inactive)
REMARK    1  A    between atoms: C_2  and  C_4
REMARK    2  A    between atoms: C_7  and  N_8
REMARK    3  A    between atoms: N_8  and  C_9
REMARK    4  A    between atoms: C_9  and  C_10
REMARK    5  A    between atoms: C_14  and  C_15
REMARK                            x       y       z     vdW  Elec       q    Type
REMARK                         _______ _______ _______ _____ _____    ______ ____
ROOT
ATOM      1  C   UNL     1      43.653   6.280  11.014  0.00  0.00    +0.000 C 
ENDROOT
BRANCH   1   2
ATOM      2  C   UNL     1      43.793   4.815  10.695  0.00  0.00    +0.000 A 
ATOM      3  C   UNL     1      43.153   3.838  11.441  0.00  0.00    +0.000 A 
ATOM      4  N   UNL     1      43.282   2.515  11.204  0.00  0.00    +0.000 NA
ATOM      5  C   UNL     1      44.099   2.151  10.183  0.00  0.00    +0.000 A 
ATOM      6  C   UNL     1      44.802   3.030   9.355  0.00  0.00    +0.000 A 
ATOM      7  C   UNL     1      44.622   4.389   9.644  0.00  0.00    +0.000 A 
BRANCH   6   8
ATOM      8  C   UNL     1      45.681   2.567   8.258  0.00  0.00    +0.000 A 
ATOM      9  C   UNL     1      46.303   1.310   8.287  0.00  0.00    +0.000 A 
ATOM     10  C   UNL     1      47.118   0.923   7.231  0.00  0.00    +0.000 A 
ATOM     11  N   UNL     1      47.356   1.685   6.148  0.00  0.00    +0.000 NA
ATOM     12  C   UNL     1      46.753   2.887   6.125  0.00  0.00    +0.000 A 
ATOM     13  F   UNL     1      46.967   3.666   5.055  0.00  0.00    +0.000 F 
ATOM     14  C   UNL     1      45.930   3.365   7.132  0.00  0.00    +0.000 A 
ENDBRANCH   6   8
ENDBRANCH   1   2
BRANCH   1  15
ATOM     15  N   UNL     1      43.849   6.461  12.447  0.00  0.00    +0.000 N 
ATOM     16  H   UNL     1      43.334   5.780  12.995  0.00  0.00    +0.000 HD
BRANCH  15  20
ATOM     17  C   UNL     1      47.799   6.895  13.463  0.00  0.00    +0.000 A 
ATOM     18  C   UNL     1      47.150   5.688  13.660  0.00  0.00    +0.000 A 
ATOM     19  N   UNL     1      45.830   5.514  13.377  0.00  0.00    +0.000 NA
ATOM     20  C   UNL     1      45.170   6.582  12.885  0.00  0.00    +0.000 A 
ATOM     21  C   UNL     1      45.847   7.798  12.702  0.00  0.00    +0.000 A 
ATOM     22  N   UNL     1      47.160   7.997  12.988  0.00  0.00    +0.000 NA
BRANCH  17  24
ATOM     23  N   UNL     1      50.037   7.377  12.681  0.00  0.00    +0.000 N 
ATOM     24  C   UNL     1      49.256   7.007  13.742  0.00  0.00    +0.000 C 
ATOM     25  O   UNL     1      49.731   6.777  14.847  0.00  0.00    +0.000 OA
ATOM     26  H   UNL     1      51.037   7.449  12.799  0.00  0.00    +0.000 HD
ATOM     27  H   UNL     1      49.615   7.543  11.774  0.00  0.00    +0.000 HD
ENDBRANCH  17  24
ENDBRANCH  15  20
ENDBRANCH   1  15
TORSDOF 5
ENDMDL
MODEL 4
REMARK VINA RESULT:    -8.267      3.608      7.313
REMARK INTER + INTRA:         -11.289
REMARK INTER:                 -10.910
REMARK INTRA:                  -0.380
REMARK UNBOUND:                -0.605
REMARK  Name = 
REMARK  5 active torsions:
REMARK  status: ('A' for Active; 'I' for Inactive)
REMARK    1  A    between atoms: C_2  and  C_4
REMARK    2  A    between atoms: C_7  and  N_8
REMARK    3  A    between atoms: N_8  and  C_9
REMARK    4  A    between atoms: C_9  and  C_10
REMARK    5  A    between atoms: C_14  and  C_15
REMARK                            x       y       z     vdW  Elec       q    Type
REMARK                         _______ _______ _______ _____ _____    ______ ____
ROOT
ATOM      1  C   UNL     1      45.952   6.915  11.714  0.00  0.00    +0.000 C 
ENDROOT
BRANCH   1   2
ATOM      2  C   UNL     1      45.199   5.871  10.930  0.00  0.00    +0.000 A 
ATOM      3  C   UNL     1      43.845   5.646  11.120  0.00  0.00    +0.000 A 
ATOM      4  N   UNL     1      43.147   4.698  10.461  0.00  0.00    +0.000 NA
ATOM      5  C   UNL     1      43.837   3.930   9.579  0.00  0.00    +0.000 A 
ATOM      6  C   UNL     1      45.199   4.051   9.293  0.00  0.00    +0.000 A 
ATOM      7  C   UNL     1      45.868   5.057  10.002  0.00  0.00    +0.000 A 
BRANCH   6   8
ATOM      8  C   UNL     1      45.893   3.178   8.320  0.00  0.00    +0.000 A 
ATOM      9  C   UNL     1      46.527   3.695   7.181  0.00  0.00    +0.000 A 
ATOM     10  C   UNL     1      47.165   2.833   6.298  0.00  0.00    +0.000 A 
ATOM     11  N   UNL     1      47.227   1.499   6.466  0.00  0.00    +0.000 NA
ATOM     12  C   UNL     1      46.621   1.010   7.562  0.00  0.00    +0.000 A 
ATOM     13  F   UNL     1      46.672  -0.315   7.759  0.00  0.00    +0.000 F 
ATOM     14  C   UNL     1      45.953   1.788   8.495  0.00  0.00    +0.000 A 
ENDBRANCH   6   8
ENDBRANCH   1   2
BRANCH   1  15
ATOM     15  N   UNL     1      47.260   6.376  12.063  0.00  0.00    +0.000 N 
ATOM     16  H   UNL     1      48.005   7.052  11.927  0.00  0.00    +0.000 HD
BRANCH  15  20
ATOM     17  C   UNL     1      47.273   4.555  15.738  0.00  0.00    +0.000 A 
ATOM     18  C   UNL     1      48.100   5.636  15.485  0.00  0.00    +0.000 A 
ATOM     19  N   UNL     1      48.159   6.241  14.268  0.00  0.00    +0.000 NA
ATOM     20  C   UNL     1      47.361   5.740  13.302  0.00  0.00    +0.000 A 
ATOM     21  C   UNL     1      46.538   4.638  13.580  0.00  0.00    +0.000 A 
ATOM     22  N   UNL     1      46.472   4.011  14.783  0.00  0.00    +0.000 NA
BRANCH  17  24
ATOM     23  N   UNL     1      47.910   4.648  18.070  0.00  0.00    +0.000 N 
ATOM     24  C   UNL     1      47.216   3.969  17.105  0.00  0.00    +0.000 C 
ATOM     25  O   UNL     1      46.595   2.944  17.353  0.00  0.00    +0.000 OA
ATOM     26  H   UNL     1      47.929   4.290  19.014  0.00  0.00    +0.000 HD
ATOM     27  H   UNL     1      48.429   5.485  17.828  0.00  0.00    +0.000 HD
ENDBRANCH  17  24
ENDBRANCH  15  20
ENDBRANCH   1  15
TORSDOF 5
ENDMDL
MODEL 5
REMARK VINA RESULT:    -7.938      3.502      7.027
REMARK INTER + INTRA:         -10.864
REMARK INTER:                 -10.183
REMARK INTRA:                  -0.681
REMARK UNBOUND:                -0.605
REMARK  Name = 
REMARK  5 active torsions:
REMARK  status: ('A' for Active; 'I' for Inactive)
REMARK    1  A    between atoms: C_2  and  C_4
REMARK    2  A    between atoms: C_7  and  N_8
REMARK    3  A    between atoms: N_8  and  C_9
REMARK    4  A    between atoms: C_9  and  C_10
REMARK    5  A    between atoms: C_14  and  C_15
REMARK                            x       y       z     vdW  Elec       q    Type
REMARK                         _______ _______ _______ _____ _____    ______ ____
ROOT
ATOM      1  C   UNL     1      44.168   6.615  11.401  0.00  0.00    +0.000 C 
ENDROOT
BRANCH   1   2
ATOM      2  C   UNL     1      44.069   5.161  11.018  0.00  0.00    +0.000 A 
ATOM      3  C   UNL     1      43.225   4.284  11.681  0.00  0.00    +0.000 A 
ATOM      4  N   UNL     1      43.135   2.970  11.387  0.00  0.00    +0.000 NA
ATOM      5  C   UNL     1      43.935   2.508  10.393  0.00  0.00    +0.000 A 
ATOM      6  C   UNL     1      44.828   3.281   9.646  0.00  0.00    +0.000 A 
ATOM      7  C   UNL     1      44.871   4.638   9.991  0.00  0.00    +0.000 A 
BRANCH   6   8
ATOM      8  C   UNL     1      45.676   2.713   8.575  0.00  0.00    +0.000 A 
ATOM      9  C   UNL     1      46.278   3.521   7.599  0.00  0.00    +0.000 A 
ATOM     10  C   UNL     1      47.066   2.939   6.614  0.00  0.00    +0.000 A 
ATOM     11  N   UNL     1      47.307   1.618   6.530  0.00  0.00    +0.000 NA
ATOM     12  C   UNL     1      46.730   0.849   7.471  0.00  0.00    +0.000 A 
ATOM     13  F   UNL     1      46.958  -0.471   7.416  0.00  0.00    +0.000 F 
ATOM     14  C   UNL     1      45.923   1.335   8.487  0.00  0.00    +0.000 A 
ENDBRANCH   6   8
ENDBRANCH   1   2
BRANCH   1  15
ATOM     15  N   UNL     1      44.772   6.703  12.724  0.00  0.00    +0.000 N 
ATOM     16  H   UNL     1      44.519   5.919  13.316  0.00  0.00    +0.000 HD
BRANCH  15  20
ATOM     17  C   UNL     1      48.785   7.444  13.139  0.00  0.00    +0.000 A 
ATOM     18  C   UNL     1      47.970   8.335  12.460  0.00  0.00    +0.000 A 
ATOM     19  N   UNL     1      46.643   8.107  12.262  0.00  0.00    +0.000 NA
ATOM     20  C   UNL     1      46.144   6.960  12.767  0.00  0.00    +0.000 A 
ATOM     21  C   UNL     1      46.990   6.069  13.444  0.00  0.00    +0.000 A 
ATOM     22  N   UNL     1      48.319   6.271  13.642  0.00  0.00    +0.000 NA
BRANCH  17  24
ATOM     23  N   UNL     1      50.710   7.452  14.602  0.00  0.00    +0.000 N 
ATOM     24  C   UNL     1      50.217   7.776  13.367  0.00  0.00    +0.000 C 
ATOM     25  O   UNL     1      50.910   8.310  12.512  0.00  0.00    +0.000 OA
ATOM     26  H   UNL     1      51.670   7.672  14.829  0.00  0.00    +0.000 HD
ATOM     27  H   UNL     1      50.105   7.027  15.296  0.00  0.00    +0.000 HD
ENDBRANCH  17  24
ENDBRANCH  15  20
ENDBRANCH   1  15
TORSDOF 5
ENDMDL
MODEL 6
REMARK VINA RESULT:    -7.254      3.588      7.307
REMARK INTER + INTRA:          -9.980
REMARK INTER:                  -9.470
REMARK INTRA:                  -0.510
REMARK UNBOUND:                -0.605
REMARK  Name = 
REMARK  5 active torsions:
REMARK  status: ('A' for Active; 'I' for Inactive)
REMARK    1  A    between atoms: C_2  and  C_4
REMARK    2  A    between atoms: C_7  and  N_8
REMARK    3  A    between atoms: N_8  and  C_9
REMARK    4  A    between atoms: C_9  and  C_10
REMARK    5  A    between atoms: C_14  and  C_15
REMARK                            x       y       z     vdW  Elec       q    Type
REMARK                         _______ _______ _______ _____ _____    ______ ____
ROOT
ATOM      1  C   UNL     1      45.553   7.049  12.583  0.00  0.00    +0.000 C 
ENDROOT
BRANCH   1   2
ATOM      2  C   UNL     1      44.786   5.956  11.884  0.00  0.00    +0.000 A 
ATOM      3  C   UNL     1      43.501   5.603  12.264  0.00  0.00    +0.000 A 
ATOM      4  N   UNL     1      42.798   4.609  11.683  0.00  0.00    +0.000 NA
ATOM      5  C   UNL     1      43.413   3.925  10.683  0.00  0.00    +0.000 A 
ATOM      6  C   UNL     1      44.701   4.177  10.204  0.00  0.00    +0.000 A 
ATOM      7  C   UNL     1      45.377   5.226  10.840  0.00  0.00    +0.000 A 
BRANCH   6   8
ATOM      8  C   UNL     1      45.316   3.392   9.110  0.00  0.00    +0.000 A 
ATOM      9  C   UNL     1      45.458   1.999   9.188  0.00  0.00    +0.000 A 
ATOM     10  C   UNL     1      46.041   1.308   8.133  0.00  0.00    +0.000 A 
ATOM     11  N   UNL     1      46.487   1.894   7.007  0.00  0.00    +0.000 NA
ATOM     12  C   UNL     1      46.343   3.230   6.937  0.00  0.00    +0.000 A 
ATOM     13  F   UNL     1      46.772   3.841   5.824  0.00  0.00    +0.000 F 
ATOM     14  C   UNL     1      45.782   4.006   7.939  0.00  0.00    +0.000 A 
ENDBRANCH   6   8
ENDBRANCH   1   2
BRANCH   1  15
ATOM     15  N   UNL     1      46.928   6.603  12.766  0.00  0.00    +0.000 N 
ATOM     16  H   UNL     1      47.602   7.329  12.545  0.00  0.00    +0.000 HD
BRANCH  15  20
ATOM     17  C   UNL     1      48.068   4.733  16.235  0.00  0.00    +0.000 A 
ATOM     18  C   UNL     1      47.015   4.240  15.482  0.00  0.00    +0.000 A 
ATOM     19  N   UNL     1      46.577   4.854  14.349  0.00  0.00    +0.000 NA
ATOM     20  C   UNL     1      47.224   5.979  13.980  0.00  0.00    +0.000 A 
ATOM     21  C   UNL     1      48.282   6.464  14.764  0.00  0.00    +0.000 A 
ATOM     22  N   UNL     1      48.728   5.874  15.903  0.00  0.00    +0.000 NA
BRANCH  17  24
ATOM     23  N   UNL     1      47.665   3.050  17.925  0.00  0.00    +0.000 N 
ATOM     24  C   UNL     1      48.534   3.987  17.435  0.00  0.00    +0.000 C 
ATOM     25  O   UNL     1      49.620   4.200  17.957  0.00  0.00    +0.000 OA
ATOM     26  H   UNL     1      47.912   2.525  18.752  0.00  0.00    +0.000 HD
ATOM     27  H   UNL     1      46.765   2.911  17.480  0.00  0.00    +0.000 HD
ENDBRANCH  17  24
ENDBRANCH  15  20
ENDBRANCH   1  15
TORSDOF 5
ENDMDL
MODEL 7
REMARK VINA RESULT:    -6.966      4.819      7.938
REMARK INTER + INTRA:          -9.608
REMARK INTER:                  -8.974
REMARK INTRA:                  -0.634
REMARK UNBOUND:                -0.605
REMARK  Name = 
REMARK  5 active torsions:
REMARK  status: ('A' for Active; 'I' for Inactive)
REMARK    1  A    between atoms: C_2  and  C_4
REMARK    2  A    between atoms: C_7  and  N_8
REMARK    3  A    between atoms: N_8  and  C_9
REMARK    4  A    between atoms: C_9  and  C_10
REMARK    5  A    between atoms: C_14  and  C_15
REMARK                            x       y       z     vdW  Elec       q    Type
REMARK                         _______ _______ _______ _____ _____    ______ ____
ROOT
ATOM      1  C   UNL     1      48.657   6.536  15.724  0.00  0.00    +0.000 C 
ENDROOT
BRANCH   1   2
ATOM      2  C   UNL     1      48.191   6.637  14.294  0.00  0.00    +0.000 A 
ATOM      3  C   UNL     1      48.732   7.556  13.410  0.00  0.00    +0.000 A 
ATOM      4  N   UNL     1      48.316   7.696  12.134  0.00  0.00    +0.000 NA
ATOM      5  C   UNL     1      47.304   6.889  11.725  0.00  0.00    +0.000 A 
ATOM      6  C   UNL     1      46.672   5.923  12.512  0.00  0.00    +0.000 A 
ATOM      7  C   UNL     1      47.152   5.818  13.824  0.00  0.00    +0.000 A 
BRANCH   6   8
ATOM      8  C   UNL     1      45.570   5.074  12.006  0.00  0.00    +0.000 A 
ATOM      9  C   UNL     1      44.836   4.230  12.852  0.00  0.00    +0.000 A 
ATOM     10  C   UNL     1      43.810   3.454  12.327  0.00  0.00    +0.000 A 
ATOM     11  N   UNL     1      43.455   3.459  11.029  0.00  0.00    +0.000 NA
ATOM     12  C   UNL     1      44.159   4.274  10.224  0.00  0.00    +0.000 A 
ATOM     13  F   UNL     1      43.823   4.304   8.927  0.00  0.00    +0.000 F 
ATOM     14  C   UNL     1      45.203   5.079  10.652  0.00  0.00    +0.000 A 
ENDBRANCH   6   8
ENDBRANCH   1   2
BRANCH   1  15
ATOM     15  N   UNL     1      48.077   5.337  16.314  0.00  0.00    +0.000 N 
ATOM     16  H   UNL     1      47.338   4.943  15.740  0.00  0.00    +0.000 HD
BRANCH  15  20
ATOM     17  C   UNL     1      50.909   2.570  17.388  0.00  0.00    +0.000 A 
ATOM     18  C   UNL     1      49.679   2.165  16.896  0.00  0.00    +0.000 A 
ATOM     19  N   UNL     1      48.697   3.048  16.569  0.00  0.00    +0.000 NA
ATOM     20  C   UNL     1      48.975   4.356  16.742  0.00  0.00    +0.000 A 
ATOM     21  C   UNL     1      50.225   4.742  17.251  0.00  0.00    +0.000 A 
ATOM     22  N   UNL     1      51.215   3.878  17.594  0.00  0.00    +0.000 NA
BRANCH  17  24
ATOM     23  N   UNL     1      51.508   0.324  18.056  0.00  0.00    +0.000 N 
ATOM     24  C   UNL     1      51.961   1.559  17.677  0.00  0.00    +0.000 C 
ATOM     25  O   UNL     1      53.155   1.812  17.590  0.00  0.00    +0.000 OA
ATOM     26  H   UNL     1      52.172  -0.401  18.289  0.00  0.00    +0.000 HD
ATOM     27  H   UNL     1      50.512   0.151  18.136  0.00  0.00    +0.000 HD
ENDBRANCH  17  24
ENDBRANCH  15  20
ENDBRANCH   1  15
TORSDOF 5
ENDMDL
MODEL 8
REMARK VINA RESULT:    -6.791      4.000      7.581
REMARK INTER + INTRA:          -9.381
REMARK INTER:                  -8.824
REMARK INTRA:                  -0.557
REMARK UNBOUND:                -0.605
REMARK  Name = 
REMARK  5 active torsions:
REMARK  status: ('A' for Active; 'I' for Inactive)
REMARK    1  A    between atoms: C_2  and  C_4
REMARK    2  A    between atoms: C_7  and  N_8
REMARK    3  A    between atoms: N_8  and  C_9
REMARK    4  A    between atoms: C_9  and  C_10
REMARK    5  A    between atoms: C_14  and  C_15
REMARK                            x       y       z     vdW  Elec       q    Type
REMARK                         _______ _______ _______ _____ _____    ______ ____
ROOT
ATOM      1  C   UNL     1      48.444   7.580  13.327  0.00  0.00    +0.000 C 
ENDROOT
BRANCH   1   2
ATOM      2  C   UNL     1      47.133   7.494  12.590  0.00  0.00    +0.000 A 
ATOM      3  C   UNL     1      46.166   8.482  12.695  0.00  0.00    +0.000 A 
ATOM      4  N   UNL     1      44.969   8.422  12.077  0.00  0.00    +0.000 NA
ATOM      5  C   UNL     1      44.719   7.317  11.328  0.00  0.00    +0.000 A 
ATOM      6  C   UNL     1      45.603   6.252  11.137  0.00  0.00    +0.000 A 
ATOM      7  C   UNL     1      46.832   6.375  11.797  0.00  0.00    +0.000 A 
BRANCH   6   8
ATOM      8  C   UNL     1      45.268   5.072  10.308  0.00  0.00    +0.000 A 
ATOM      9  C   UNL     1      44.511   4.004  10.810  0.00  0.00    +0.000 A 
ATOM     10  C   UNL     1      44.223   2.920   9.991  0.00  0.00    +0.000 A 
ATOM     11  N   UNL     1      44.624   2.821   8.710  0.00  0.00    +0.000 NA
ATOM     12  C   UNL     1      45.346   3.851   8.233  0.00  0.00    +0.000 A 
ATOM     13  F   UNL     1      45.754   3.783   6.958  0.00  0.00    +0.000 F 
ATOM     14  C   UNL     1      45.690   4.970   8.975  0.00  0.00    +0.000 A 
ENDBRANCH   6   8
ENDBRANCH   1   2
BRANCH   1  15
ATOM     15  N   UNL     1      48.167   7.648  14.756  0.00  0.00    +0.000 N 
ATOM     16  H   UNL     1      47.222   7.964  14.950  0.00  0.00    +0.000 HD
BRANCH  15  20
ATOM     17  C   UNL     1      48.868   4.330  17.063  0.00  0.00    +0.000 A 
ATOM     18  C   UNL     1      49.619   5.481  17.238  0.00  0.00    +0.000 A 
ATOM     19  N   UNL     1      49.448   6.588  16.465  0.00  0.00    +0.000 NA
ATOM     20  C   UNL     1      48.499   6.520  15.509  0.00  0.00    +0.000 A 
ATOM     21  C   UNL     1      47.757   5.340  15.346  0.00  0.00    +0.000 A 
ATOM     22  N   UNL     1      47.918   4.220  16.097  0.00  0.00    +0.000 NA
BRANCH  17  24
ATOM     23  N   UNL     1      48.447   3.261  19.192  0.00  0.00    +0.000 N 
ATOM     24  C   UNL     1      49.066   3.171  17.974  0.00  0.00    +0.000 C 
ATOM     25  O   UNL     1      49.743   2.201  17.662  0.00  0.00    +0.000 OA
ATOM     26  H   UNL     1      48.561   2.517  19.865  0.00  0.00    +0.000 HD
ATOM     27  H   UNL     1      47.908   4.087  19.427  0.00  0.00    +0.000 HD
ENDBRANCH  17  24
ENDBRANCH  15  20
ENDBRANCH   1  15
TORSDOF 5
ENDMDL
MODEL 9
REMARK VINA RESULT:    -6.656      5.712      8.424
REMARK INTER + INTRA:          -9.207
REMARK INTER:                  -8.648
REMARK INTRA:                  -0.559
REMARK UNBOUND:                -0.605
REMARK  Name = 
REMARK  5 active torsions:
REMARK  status: ('A' for Active; 'I' for Inactive)
REMARK    1  A    between atoms: C_2  and  C_4
REMARK    2  A    between atoms: C_7  and  N_8
REMARK    3  A    between atoms: N_8  and  C_9
REMARK    4  A    between atoms: C_9  and  C_10
REMARK    5  A    between atoms: C_14  and  C_15
REMARK                            x       y       z     vdW  Elec       q    Type
REMARK                         _______ _______ _______ _____ _____    ______ ____
ROOT
ATOM      1  C   UNL     1      47.827   3.976  16.763  0.00  0.00    +0.000 C 
ENDROOT
BRANCH   1   2
ATOM      2  C   UNL     1      47.589   4.761  15.499  0.00  0.00    +0.000 A 
ATOM      3  C   UNL     1      48.207   5.979  15.265  0.00  0.00    +0.000 A 
ATOM      4  N   UNL     1      47.992   6.724  14.161  0.00  0.00    +0.000 NA
ATOM      5  C   UNL     1      47.109   6.235  13.253  0.00  0.00    +0.000 A 
ATOM      6  C   UNL     1      46.420   5.025  13.364  0.00  0.00    +0.000 A 
ATOM      7  C   UNL     1      46.690   4.292  14.527  0.00  0.00    +0.000 A 
BRANCH   6   8
ATOM      8  C   UNL     1      45.466   4.550  12.337  0.00  0.00    +0.000 A 
ATOM      9  C   UNL     1      45.351   5.174  11.086  0.00  0.00    +0.000 A 
ATOM     10  C   UNL     1      44.441   4.689  10.156  0.00  0.00    +0.000 A 
ATOM     11  N   UNL     1      43.643   3.626  10.372  0.00  0.00    +0.000 NA
ATOM     12  C   UNL     1      43.762   3.029  11.571  0.00  0.00    +0.000 A 
ATOM     13  F   UNL     1      42.984   1.964  11.812  0.00  0.00    +0.000 F 
ATOM     14  C   UNL     1      44.634   3.444  12.565  0.00  0.00    +0.000 A 
ENDBRANCH   6   8
ENDBRANCH   1   2
BRANCH   1  15
ATOM     15  N   UNL     1      49.058   4.455  17.379  0.00  0.00    +0.000 N 
ATOM     16  H   UNL     1      48.896   4.869  18.291  0.00  0.00    +0.000 HD
BRANCH  15  20
ATOM     17  C   UNL     1      52.058   1.668  17.618  0.00  0.00    +0.000 A 
ATOM     18  C   UNL     1      52.290   2.986  17.977  0.00  0.00    +0.000 A 
ATOM     19  N   UNL     1      51.336   3.950  17.871  0.00  0.00    +0.000 NA
ATOM     20  C   UNL     1      50.132   3.564  17.400  0.00  0.00    +0.000 A 
ATOM     21  C   UNL     1      49.923   2.225  17.035  0.00  0.00    +0.000 A 
ATOM     22  N   UNL     1      50.864   1.249  17.121  0.00  0.00    +0.000 NA
BRANCH  17  24
ATOM     23  N   UNL     1      53.489  -0.043  16.682  0.00  0.00    +0.000 N 
ATOM     24  C   UNL     1      53.126   0.650  17.806  0.00  0.00    +0.000 C 
ATOM     25  O   UNL     1      53.644   0.437  18.894  0.00  0.00    +0.000 OA
ATOM     26  H   UNL     1      54.193  -0.764  16.747  0.00  0.00    +0.000 HD
ATOM     27  H   UNL     1      53.028   0.145  15.799  0.00  0.00    +0.000 HD
ENDBRANCH  17  24
ENDBRANCH  15  20
ENDBRANCH   1  15
TORSDOF 5
ENDMDL
