MODEL 1
REMARK VINA RESULT:    -7.109      0.000      0.000
REMARK INTER + INTRA:          -9.758
REMARK INTER:                  -9.187
REMARK INTRA:                  -0.571
REMARK UNBOUND:                -0.571
REMARK  Name = 
REMARK  7 active torsions:
REMARK  status: ('A' for Active; 'I' for Inactive)
REMARK    1  A    between atoms: C_1  and  C_2
REMARK    2  A    between atoms: C_2  and  C_3
REMARK    3  A    between atoms: C_2  and  C_4
REMARK    4  A    between atoms: C_2  and  C_20
REMARK    5  A    between atoms: C_4  and  N_5
REMARK    6  A    between atoms: C_10  and  C_11
REMARK    7  A    between atoms: C_14  and  C_15
REMARK                            x       y       z     vdW  Elec       q    Type
REMARK                         _______ _______ _______ _____ _____    ______ ____
ROOT
ATOM      1  N   UNL     1      46.386   5.301  12.771  0.00  0.00    +0.000 N 
ATOM      2  C   UNL     1      47.135   6.222  13.471  0.00  0.00    +0.000 A 
ATOM      3  C   UNL     1      47.046   7.602  13.270  0.00  0.00    +0.000 A 
ATOM      4  N   UNL     1      47.730   8.525  13.985  0.00  0.00    +0.000 NA
ATOM      5  C   UNL     1      48.520   8.006  14.946  0.00  0.00    +0.000 A 
ATOM      6  C   UNL     1      48.653   6.637  15.181  0.00  0.00    +0.000 A 
ATOM      7  N   UNL     1      47.956   5.735  14.431  0.00  0.00    +0.000 NA
ATOM      8  H   UNL     1      46.742   4.352  12.825  0.00  0.00    +0.000 HD
ENDROOT
BRANCH   6   9
ATOM      9  C   UNL     1      49.530   6.103  16.243  0.00  0.00    +0.000 A 
ATOM     10  C   UNL     1      50.861   6.540  16.381  0.00  0.00    +0.000 A 
ATOM     11  C   UNL     1      51.697   6.029  17.384  0.00  0.00    +0.000 A 
ATOM     12  C   UNL     1      51.218   5.067  18.277  0.00  0.00    +0.000 A 
ATOM     13  C   UNL     1      49.904   4.616  18.156  0.00  0.00    +0.000 A 
ATOM     14  C   UNL     1      49.075   5.129  17.152  0.00  0.00    +0.000 A 
BRANCH  12  15
ATOM     15  C   UNL     1      52.062   4.556  19.318  0.00  0.00    +0.000 C 
ATOM     16  N   UNL     1      52.742   4.154  20.167  0.00  0.00    +0.000 NA
ENDBRANCH  12  15
ENDBRANCH   6   9
BRANCH   1  17
ATOM     17  C   UNL     1      45.471   5.690  11.710  0.00  0.00    +0.000 C 
BRANCH  17  19
ATOM     18  C   UNL     1      44.337   3.535  12.397  0.00  0.00    +0.000 C 
ATOM     19  C   UNL     1      44.523   4.545  11.241  0.00  0.00    +0.000 C 
ATOM     20  C   UNL     1      43.130   5.180  10.989  0.00  0.00    +0.000 C 
BRANCH  19  21
ATOM     21  C   UNL     1      45.050   3.907   9.943  0.00  0.00    +0.000 A 
ATOM     22  C   UNL     1      45.590   4.712   8.918  0.00  0.00    +0.000 A 
ATOM     23  C   UNL     1      46.132   4.151   7.758  0.00  0.00    +0.000 A 
ATOM     24  C   UNL     1      46.144   2.770   7.588  0.00  0.00    +0.000 A 
ATOM     25  C   UNL     1      45.599   1.966   8.578  0.00  0.00    +0.000 A 
ATOM     26  F   UNL     1      45.604   0.635   8.422  0.00  0.00    +0.000 F 
ATOM     27  C   UNL     1      45.058   2.515   9.739  0.00  0.00    +0.000 A 
ENDBRANCH  19  21
ENDBRANCH  17  19
ENDBRANCH   1  17
TORSDOF 5
ENDMDL
MODEL 2
REMARK VINA RESULT:    -6.739      2.045      2.820
REMARK INTER + INTRA:          -9.279
REMARK INTER:                  -8.676
REMARK INTRA:                  -0.604
REMARK UNBOUND:                -0.571
REMARK  Name = 
REMARK  7 active torsions:
REMARK  status: ('A' for Active; 'I' for Inactive)
REMARK    1  A    between atoms: C_1  and  C_2
REMARK    2  A    between atoms: C_2  and  C_3
REMARK    3  A    between atoms: C_2  and  C_4
REMARK    4  A    between atoms: C_2  and  C_20
REMARK    5  A    between atoms: C_4  and  N_5
REMARK    6  A    between atoms: C_10  and  C_11
REMARK    7  A    between atoms: C_14  and  C_15
REMARK                            x       y       z     vdW  Elec       q    Type
REMARK                         _______ _______ _______ _____ _____    ______ ____
ROOT
ATOM      1  N   UNL     1      46.435   5.099  12.771  0.00  0.00    +0.000 N 
ATOM      2  C   UNL     1      46.978   5.058  14.037  0.00  0.00    +0.000 A 
ATOM      3  C   UNL     1      46.647   4.090  14.988  0.00  0.00    +0.000 A 
ATOM      4  N   UNL     1      47.210   3.998  16.215  0.00  0.00    +0.000 NA
ATOM      5  C   UNL     1      48.153   4.928  16.461  0.00  0.00    +0.000 A 
ATOM      6  C   UNL     1      48.514   5.922  15.551  0.00  0.00    +0.000 A 
ATOM      7  N   UNL     1      47.916   5.991  14.327  0.00  0.00    +0.000 NA
ATOM      8  H   UNL     1      46.557   5.988  12.298  0.00  0.00    +0.000 HD
ENDROOT
BRANCH   6   9
ATOM      9  C   UNL     1      49.552   6.928  15.856  0.00  0.00    +0.000 A 
ATOM     10  C   UNL     1      50.256   7.586  14.830  0.00  0.00    +0.000 A 
ATOM     11  C   UNL     1      51.246   8.537  15.118  0.00  0.00    +0.000 A 
ATOM     12  C   UNL     1      51.554   8.854  16.444  0.00  0.00    +0.000 A 
ATOM     13  C   UNL     1      50.872   8.211  17.476  0.00  0.00    +0.000 A 
ATOM     14  C   UNL     1      49.885   7.262  17.182  0.00  0.00    +0.000 A 
BRANCH  12  15
ATOM     15  C   UNL     1      52.551   9.840  16.744  0.00  0.00    +0.000 C 
ATOM     16  N   UNL     1      53.362  10.638  16.974  0.00  0.00    +0.000 NA
ENDBRANCH  12  15
ENDBRANCH   6   9
BRANCH   1  17
ATOM     17  C   UNL     1      45.415   4.159  12.334  0.00  0.00    +0.000 C 
BRANCH  17  19
ATOM     18  C   UNL     1      43.107   4.387  11.319  0.00  0.00    +0.000 C 
ATOM     19  C   UNL     1      44.616   4.631  11.080  0.00  0.00    +0.000 C 
ATOM     20  C   UNL     1      44.798   6.168  10.975  0.00  0.00    +0.000 C 
BRANCH  19  21
ATOM     21  C   UNL     1      45.157   3.950   9.811  0.00  0.00    +0.000 A 
ATOM     22  C   UNL     1      45.734   4.718   8.778  0.00  0.00    +0.000 A 
ATOM     23  C   UNL     1      46.289   4.118   7.643  0.00  0.00    +0.000 A 
ATOM     24  C   UNL     1      46.277   2.734   7.508  0.00  0.00    +0.000 A 
ATOM     25  C   UNL     1      45.696   1.965   8.506  0.00  0.00    +0.000 A 
ATOM     26  F   UNL     1      45.678   0.631   8.383  0.00  0.00    +0.000 F 
ATOM     27  C   UNL     1      45.142   2.553   9.641  0.00  0.00    +0.000 A 
ENDBRANCH  19  21
ENDBRANCH  17  19
ENDBRANCH   1  17
TORSDOF 5
ENDMDL
MODEL 3
REMARK VINA RESULT:    -6.365      1.836      2.889
REMARK INTER + INTRA:          -8.797
REMARK INTER:                  -8.235
REMARK INTRA:                  -0.562
REMARK UNBOUND:                -0.571
REMARK  Name = 
REMARK  7 active torsions:
REMARK  status: ('A' for Active; 'I' for Inactive)
REMARK    1  A    between atoms: C_1  and  C_2
REMARK    2  A    between atoms: C_2  and  C_3
REMARK    3  A    between atoms: C_2  and  C_4
REMARK    4  A    between atoms: C_2  and  C_20
REMARK    5  A    between atoms: C_4  and  N_5
REMARK    6  A    between atoms: C_10  and  C_11
REMARK    7  A    between atoms: C_14  and  C_15
REMARK                            x       y       z     vdW  Elec       q    Type
REMARK                         _______ _______ _______ _____ _____    ______ ____
ROOT
ATOM      1  N   UNL     1      46.868   5.885  13.927  0.00  0.00    +0.000 N 
ATOM      2  C   UNL     1      47.343   5.182  15.013  0.00  0.00    +0.000 A 
ATOM      3  C   UNL     1      46.759   4.004  15.486  0.00  0.00    +0.000 A 
ATOM      4  N   UNL     1      47.241   3.269  16.514  0.00  0.00    +0.000 NA
ATOM      5  C   UNL     1      48.371   3.760  17.061  0.00  0.00    +0.000 A 
ATOM      6  C   UNL     1      48.989   4.936  16.635  0.00  0.00    +0.000 A 
ATOM      7  N   UNL     1      48.465   5.658  15.602  0.00  0.00    +0.000 NA
ATOM      8  H   UNL     1      47.214   6.838  13.868  0.00  0.00    +0.000 HD
ENDROOT
BRANCH   6   9
ATOM      9  C   UNL     1      50.226   5.446  17.260  0.00  0.00    +0.000 A 
ATOM     10  C   UNL     1      50.420   6.822  17.482  0.00  0.00    +0.000 A 
ATOM     11  C   UNL     1      51.597   7.308  18.069  0.00  0.00    +0.000 A 
ATOM     12  C   UNL     1      52.609   6.425  18.453  0.00  0.00    +0.000 A 
ATOM     13  C   UNL     1      52.440   5.057  18.239  0.00  0.00    +0.000 A 
ATOM     14  C   UNL     1      51.264   4.578  17.651  0.00  0.00    +0.000 A 
BRANCH  12  15
ATOM     15  C   UNL     1      53.806   6.914  19.073  0.00  0.00    +0.000 C 
ATOM     16  N   UNL     1      54.770   7.323  19.573  0.00  0.00    +0.000 NA
ENDBRANCH  12  15
ENDBRANCH   6   9
BRANCH   1  17
ATOM     17  C   UNL     1      45.668   5.486  13.208  0.00  0.00    +0.000 C 
BRANCH  17  19
ATOM     18  C   UNL     1      44.569   7.200  11.706  0.00  0.00    +0.000 C 
ATOM     19  C   UNL     1      45.589   6.039  11.753  0.00  0.00    +0.000 C 
ATOM     20  C   UNL     1      46.972   6.661  11.426  0.00  0.00    +0.000 C 
BRANCH  19  21
ATOM     21  C   UNL     1      45.277   4.903  10.763  0.00  0.00    +0.000 A 
ATOM     22  C   UNL     1      44.539   3.775  11.177  0.00  0.00    +0.000 A 
ATOM     23  C   UNL     1      44.189   2.761  10.280  0.00  0.00    +0.000 A 
ATOM     24  C   UNL     1      44.574   2.845   8.945  0.00  0.00    +0.000 A 
ATOM     25  C   UNL     1      45.318   3.938   8.527  0.00  0.00    +0.000 A 
ATOM     26  F   UNL     1      45.695   4.025   7.244  0.00  0.00    +0.000 F 
ATOM     27  C   UNL     1      45.671   4.954   9.412  0.00  0.00    +0.000 A 
ENDBRANCH  19  21
ENDBRANCH  17  19
ENDBRANCH   1  17
TORSDOF 5
ENDMDL
MODEL 4
REMARK VINA RESULT:    -6.280      2.347      3.887
REMARK INTER + INTRA:          -8.687
REMARK INTER:                  -7.970
REMARK INTRA:                  -0.717
REMARK UNBOUND:                -0.571
REMARK  Name = 
REMARK  7 active torsions:
REMARK  status: ('A' for Active; 'I' for Inactive)
REMARK    1  A    between atoms: C_1  and  C_2
REMARK    2  A    between atoms: C_2  and  C_3
REMARK    3  A    between atoms: C_2  and  C_4
REMARK    4  A    between atoms: C_2  and  C_20
REMARK    5  A    between atoms: C_4  and  N_5
REMARK    6  A    between atoms: C_10  and  C_11
REMARK    7  A    between atoms: C_14  and  C_15
REMARK                            x       y       z     vdW  Elec       q    Type
REMARK                         _______ _______ _______ _____ _____    ______ ____
ROOT
ATOM      1  N   UNL     1      47.908   5.890  14.881  0.00  0.00    +0.000 N 
ATOM      2  C   UNL     1      47.946   4.894  15.832  0.00  0.00    +0.000 A 
ATOM      3  C   UNL     1      46.805   4.261  16.333  0.00  0.00    +0.000 A 
ATOM      4  N   UNL     1      46.822   3.244  17.225  0.00  0.00    +0.000 NA
ATOM      5  C   UNL     1      48.059   2.859  17.599  0.00  0.00    +0.000 A 
ATOM      6  C   UNL     1      49.229   3.463  17.138  0.00  0.00    +0.000 A 
ATOM      7  N   UNL     1      49.171   4.495  16.248  0.00  0.00    +0.000 NA
ATOM      8  H   UNL     1      48.765   6.431  14.815  0.00  0.00    +0.000 HD
ENDROOT
BRANCH   6   9
ATOM      9  C   UNL     1      50.568   3.016  17.572  0.00  0.00    +0.000 A 
ATOM     10  C   UNL     1      51.445   3.884  18.250  0.00  0.00    +0.000 A 
ATOM     11  C   UNL     1      52.719   3.463  18.657  0.00  0.00    +0.000 A 
ATOM     12  C   UNL     1      53.146   2.158  18.397  0.00  0.00    +0.000 A 
ATOM     13  C   UNL     1      52.296   1.282  17.723  0.00  0.00    +0.000 A 
ATOM     14  C   UNL     1      51.025   1.709  17.318  0.00  0.00    +0.000 A 
BRANCH  12  15
ATOM     15  C   UNL     1      54.440   1.716  18.829  0.00  0.00    +0.000 C 
ATOM     16  N   UNL     1      55.491   1.371  19.180  0.00  0.00    +0.000 NA
ENDBRANCH  12  15
ENDBRANCH   6   9
BRANCH   1  17
ATOM     17  C   UNL     1      46.658   6.414  14.354  0.00  0.00    +0.000 C 
BRANCH  17  19
ATOM     18  C   UNL     1      46.202   8.204  12.625  0.00  0.00    +0.000 C 
ATOM     19  C   UNL     1      46.706   6.757  12.835  0.00  0.00    +0.000 C 
ATOM     20  C   UNL     1      48.199   6.751  12.412  0.00  0.00    +0.000 C 
BRANCH  19  21
ATOM     21  C   UNL     1      45.927   5.708  12.021  0.00  0.00    +0.000 A 
ATOM     22  C   UNL     1      45.859   5.799  10.616  0.00  0.00    +0.000 A 
ATOM     23  C   UNL     1      45.211   4.824   9.851  0.00  0.00    +0.000 A 
ATOM     24  C   UNL     1      44.608   3.735  10.472  0.00  0.00    +0.000 A 
ATOM     25  C   UNL     1      44.648   3.642  11.855  0.00  0.00    +0.000 A 
ATOM     26  F   UNL     1      44.068   2.598  12.462  0.00  0.00    +0.000 F 
ATOM     27  C   UNL     1      45.293   4.607  12.626  0.00  0.00    +0.000 A 
ENDBRANCH  19  21
ENDBRANCH  17  19
ENDBRANCH   1  17
TORSDOF 5
ENDMDL
MODEL 5
REMARK VINA RESULT:    -5.804      4.816      7.917
REMARK INTER + INTRA:          -8.072
REMARK INTER:                  -7.393
REMARK INTRA:                  -0.678
REMARK UNBOUND:                -0.571
REMARK  Name = 
REMARK  7 active torsions:
REMARK  status: ('A' for Active; 'I' for Inactive)
REMARK    1  A    between atoms: C_1  and  C_2
REMARK    2  A    between atoms: C_2  and  C_3
REMARK    3  A    between atoms: C_2  and  C_4
REMARK    4  A    between atoms: C_2  and  C_20
REMARK    5  A    between atoms: C_4  and  N_5
REMARK    6  A    between atoms: C_10  and  C_11
REMARK    7  A    between atoms: C_14  and  C_15
REMARK                            x       y       z     vdW  Elec       q    Type
REMARK                         _______ _______ _______ _____ _____    ______ ____
ROOT
ATOM      1  N   UNL     1      51.126   7.772  12.125  0.00  0.00    +0.000 N 
ATOM      2  C   UNL     1      49.808   8.074  12.387  0.00  0.00    +0.000 A 
ATOM      3  C   UNL     1      49.365   9.351  12.743  0.00  0.00    +0.000 A 
ATOM      4  N   UNL     1      48.070   9.683  12.950  0.00  0.00    +0.000 NA
ATOM      5  C   UNL     1      47.204   8.666  12.769  0.00  0.00    +0.000 A 
ATOM      6  C   UNL     1      47.594   7.371  12.424  0.00  0.00    +0.000 A 
ATOM      7  N   UNL     1      48.911   7.071  12.237  0.00  0.00    +0.000 NA
ATOM      8  H   UNL     1      51.334   6.778  12.148  0.00  0.00    +0.000 HD
ENDROOT
BRANCH   6   9
ATOM      9  C   UNL     1      46.616   6.279  12.237  0.00  0.00    +0.000 A 
ATOM     10  C   UNL     1      45.792   6.223  11.098  0.00  0.00    +0.000 A 
ATOM     11  C   UNL     1      44.859   5.190  10.922  0.00  0.00    +0.000 A 
ATOM     12  C   UNL     1      44.732   4.185  11.884  0.00  0.00    +0.000 A 
ATOM     13  C   UNL     1      45.536   4.223  13.023  0.00  0.00    +0.000 A 
ATOM     14  C   UNL     1      46.464   5.257  13.194  0.00  0.00    +0.000 A 
BRANCH  12  15
ATOM     15  C   UNL     1      43.795   3.115  11.700  0.00  0.00    +0.000 C 
ATOM     16  N   UNL     1      43.034   2.249  11.565  0.00  0.00    +0.000 NA
ENDBRANCH  12  15
ENDBRANCH   6   9
BRANCH   1  17
ATOM     17  C   UNL     1      52.190   8.755  12.255  0.00  0.00    +0.000 C 
BRANCH  17  19
ATOM     18  C   UNL     1      51.971  10.140  10.149  0.00  0.00    +0.000 C 
ATOM     19  C   UNL     1      52.870   9.134  10.905  0.00  0.00    +0.000 C 
ATOM     20  C   UNL     1      54.178   9.893  11.250  0.00  0.00    +0.000 C 
BRANCH  19  21
ATOM     21  C   UNL     1      53.197   7.868  10.094  0.00  0.00    +0.000 A 
ATOM     22  C   UNL     1      54.064   6.886  10.617  0.00  0.00    +0.000 A 
ATOM     23  C   UNL     1      54.327   5.699   9.927  0.00  0.00    +0.000 A 
ATOM     24  C   UNL     1      53.734   5.465   8.690  0.00  0.00    +0.000 A 
ATOM     25  C   UNL     1      52.895   6.429   8.152  0.00  0.00    +0.000 A 
ATOM     26  F   UNL     1      52.322   6.212   6.960  0.00  0.00    +0.000 F 
ATOM     27  C   UNL     1      52.626   7.614   8.833  0.00  0.00    +0.000 A 
ENDBRANCH  19  21
ENDBRANCH  17  19
ENDBRANCH   1  17
TORSDOF 5
ENDMDL
MODEL 6
REMARK VINA RESULT:    -5.782      2.923      8.684
REMARK INTER + INTRA:          -8.043
REMARK INTER:                  -7.987
REMARK INTRA:                  -0.056
REMARK UNBOUND:                -0.571
REMARK  Name = 
REMARK  7 active torsions:
REMARK  status: ('A' for Active; 'I' for Inactive)
REMARK    1  A    between atoms: C_1  and  C_2
REMARK    2  A    between atoms: C_2  and  C_3
REMARK    3  A    between atoms: C_2  and  C_4
REMARK    4  A    between atoms: C_2  and  C_20
REMARK    5  A    between atoms: C_4  and  N_5
REMARK    6  A    between atoms: C_10  and  C_11
REMARK    7  A    between atoms: C_14  and  C_15
REMARK                            x       y       z     vdW  Elec       q    Type
REMARK                         _______ _______ _______ _____ _____    ______ ____
ROOT
ATOM      1  N   UNL     1      50.246   6.112  17.129  0.00  0.00    +0.000 N 
ATOM      2  C   UNL     1      50.070   6.684  15.888  0.00  0.00    +0.000 A 
ATOM      3  C   UNL     1      50.982   7.572  15.311  0.00  0.00    +0.000 A 
ATOM      4  N   UNL     1      50.857   8.101  14.072  0.00  0.00    +0.000 NA
ATOM      5  C   UNL     1      49.761   7.688  13.403  0.00  0.00    +0.000 A 
ATOM      6  C   UNL     1      48.815   6.813  13.937  0.00  0.00    +0.000 A 
ATOM      7  N   UNL     1      48.969   6.309  15.195  0.00  0.00    +0.000 NA
ATOM      8  H   UNL     1      49.400   5.716  17.525  0.00  0.00    +0.000 HD
ENDROOT
BRANCH   6   9
ATOM      9  C   UNL     1      47.624   6.383  13.176  0.00  0.00    +0.000 A 
ATOM     10  C   UNL     1      46.800   5.339  13.634  0.00  0.00    +0.000 A 
ATOM     11  C   UNL     1      45.673   4.926  12.910  0.00  0.00    +0.000 A 
ATOM     12  C   UNL     1      45.341   5.554  11.706  0.00  0.00    +0.000 A 
ATOM     13  C   UNL     1      46.145   6.589  11.231  0.00  0.00    +0.000 A 
ATOM     14  C   UNL     1      47.270   6.995  11.958  0.00  0.00    +0.000 A 
BRANCH  12  15
ATOM     15  C   UNL     1      44.177   5.150  10.971  0.00  0.00    +0.000 C 
ATOM     16  N   UNL     1      43.233   4.837  10.374  0.00  0.00    +0.000 NA
ENDBRANCH  12  15
ENDBRANCH   6   9
BRANCH   1  17
ATOM     17  C   UNL     1      51.382   6.433  17.978  0.00  0.00    +0.000 C 
BRANCH  17  19
ATOM     18  C   UNL     1      53.057   5.677  19.718  0.00  0.00    +0.000 C 
ATOM     19  C   UNL     1      51.708   5.339  19.039  0.00  0.00    +0.000 C 
ATOM     20  C   UNL     1      50.627   5.441  20.147  0.00  0.00    +0.000 C 
BRANCH  19  21
ATOM     21  C   UNL     1      51.672   3.941  18.399  0.00  0.00    +0.000 A 
ATOM     22  C   UNL     1      52.799   3.096  18.463  0.00  0.00    +0.000 A 
ATOM     23  C   UNL     1      52.770   1.797  17.944  0.00  0.00    +0.000 A 
ATOM     24  C   UNL     1      51.614   1.311  17.341  0.00  0.00    +0.000 A 
ATOM     25  C   UNL     1      50.503   2.137  17.252  0.00  0.00    +0.000 A 
ATOM     26  F   UNL     1      49.386   1.678  16.672  0.00  0.00    +0.000 F 
ATOM     27  C   UNL     1      50.522   3.432  17.768  0.00  0.00    +0.000 A 
ENDBRANCH  19  21
ENDBRANCH  17  19
ENDBRANCH   1  17
TORSDOF 5
ENDMDL
MODEL 7
REMARK VINA RESULT:    -5.522      4.029      8.747
REMARK INTER + INTRA:          -7.708
REMARK INTER:                  -6.862
REMARK INTRA:                  -0.845
REMARK UNBOUND:                -0.571
REMARK  Name = 
REMARK  7 active torsions:
REMARK  status: ('A' for Active; 'I' for Inactive)
REMARK    1  A    between atoms: C_1  and  C_2
REMARK    2  A    between atoms: C_2  and  C_3
REMARK    3  A    between atoms: C_2  and  C_4
REMARK    4  A    between atoms: C_2  and  C_20
REMARK    5  A    between atoms: C_4  and  N_5
REMARK    6  A    between atoms: C_10  and  C_11
REMARK    7  A    between atoms: C_14  and  C_15
REMARK                            x       y       z     vdW  Elec       q    Type
REMARK                         _______ _______ _______ _____ _____    ______ ____
ROOT
ATOM      1  N   UNL     1      48.525   8.242  16.252  0.00  0.00    +0.000 N 
ATOM      2  C   UNL     1      48.315   7.811  14.960  0.00  0.00    +0.000 A 
ATOM      3  C   UNL     1      49.036   6.772  14.366  0.00  0.00    +0.000 A 
ATOM      4  N   UNL     1      48.809   6.296  13.120  0.00  0.00    +0.000 NA
ATOM      5  C   UNL     1      47.795   6.904  12.474  0.00  0.00    +0.000 A 
ATOM      6  C   UNL     1      47.050   7.952  13.016  0.00  0.00    +0.000 A 
ATOM      7  N   UNL     1      47.317   8.414  14.272  0.00  0.00    +0.000 NA
ATOM      8  H   UNL     1      48.131   9.156  16.452  0.00  0.00    +0.000 HD
ENDROOT
BRANCH   6   9
ATOM      9  C   UNL     1      45.945   8.597  12.277  0.00  0.00    +0.000 A 
ATOM     10  C   UNL     1      44.915   7.838  11.693  0.00  0.00    +0.000 A 
ATOM     11  C   UNL     1      43.869   8.449  10.985  0.00  0.00    +0.000 A 
ATOM     12  C   UNL     1      43.830   9.839  10.848  0.00  0.00    +0.000 A 
ATOM     13  C   UNL     1      44.843  10.611  11.416  0.00  0.00    +0.000 A 
ATOM     14  C   UNL     1      45.885   9.995  12.120  0.00  0.00    +0.000 A 
BRANCH  12  15
ATOM     15  C   UNL     1      42.752  10.471  10.144  0.00  0.00    +0.000 C 
ATOM     16  N   UNL     1      41.880  10.992   9.583  0.00  0.00    +0.000 NA
ENDBRANCH  12  15
ENDBRANCH   6   9
BRANCH   1  17
ATOM     17  C   UNL     1      49.568   7.684  17.097  0.00  0.00    +0.000 C 
BRANCH  17  19
ATOM     18  C   UNL     1      50.017   7.020  19.498  0.00  0.00    +0.000 C 
ATOM     19  C   UNL     1      49.030   6.874  18.316  0.00  0.00    +0.000 C 
ATOM     20  C   UNL     1      47.709   7.551  18.766  0.00  0.00    +0.000 C 
BRANCH  19  21
ATOM     21  C   UNL     1      48.760   5.414  17.914  0.00  0.00    +0.000 A 
ATOM     22  C   UNL     1      47.439   4.956  17.725  0.00  0.00    +0.000 A 
ATOM     23  C   UNL     1      47.171   3.651  17.299  0.00  0.00    +0.000 A 
ATOM     24  C   UNL     1      48.218   2.767  17.057  0.00  0.00    +0.000 A 
ATOM     25  C   UNL     1      49.521   3.195  17.258  0.00  0.00    +0.000 A 
ATOM     26  F   UNL     1      50.535   2.349  17.030  0.00  0.00    +0.000 F 
ATOM     27  C   UNL     1      49.799   4.493  17.681  0.00  0.00    +0.000 A 
ENDBRANCH  19  21
ENDBRANCH  17  19
ENDBRANCH   1  17
TORSDOF 5
ENDMDL
MODEL 8
REMARK VINA RESULT:    -5.516      3.306      8.859
REMARK INTER + INTRA:          -7.700
REMARK INTER:                  -7.117
REMARK INTRA:                  -0.583
REMARK UNBOUND:                -0.571
REMARK  Name = 
REMARK  7 active torsions:
REMARK  status: ('A' for Active; 'I' for Inactive)
REMARK    1  A    between atoms: C_1  and  C_2
REMARK    2  A    between atoms: C_2  and  C_3
REMARK    3  A    between atoms: C_2  and  C_4
REMARK    4  A    between atoms: C_2  and  C_20
REMARK    5  A    between atoms: C_4  and  N_5
REMARK    6  A    between atoms: C_10  and  C_11
REMARK    7  A    between atoms: C_14  and  C_15
REMARK                            x       y       z     vdW  Elec       q    Type
REMARK                         _______ _______ _______ _____ _____    ______ ____
ROOT
ATOM      1  N   UNL     1      50.819   7.147  15.075  0.00  0.00    +0.000 N 
ATOM      2  C   UNL     1      49.926   7.495  14.085  0.00  0.00    +0.000 A 
ATOM      3  C   UNL     1      50.041   8.656  13.316  0.00  0.00    +0.000 A 
ATOM      4  N   UNL     1      49.208   8.990  12.303  0.00  0.00    +0.000 NA
ATOM      5  C   UNL     1      48.235   8.087  12.069  0.00  0.00    +0.000 A 
ATOM      6  C   UNL     1      48.070   6.918  12.813  0.00  0.00    +0.000 A 
ATOM      7  N   UNL     1      48.922   6.622  13.836  0.00  0.00    +0.000 NA
ATOM      8  H   UNL     1      50.471   6.441  15.716  0.00  0.00    +0.000 HD
ENDROOT
BRANCH   6   9
ATOM      9  C   UNL     1      46.989   5.951  12.530  0.00  0.00    +0.000 A 
ATOM     10  C   UNL     1      46.171   6.082  11.392  0.00  0.00    +0.000 A 
ATOM     11  C   UNL     1      45.140   5.168  11.125  0.00  0.00    +0.000 A 
ATOM     12  C   UNL     1      44.906   4.098  11.993  0.00  0.00    +0.000 A 
ATOM     13  C   UNL     1      45.702   3.952  13.128  0.00  0.00    +0.000 A 
ATOM     14  C   UNL     1      46.728   4.868  13.390  0.00  0.00    +0.000 A 
BRANCH  12  15
ATOM     15  C   UNL     1      43.867   3.150  11.715  0.00  0.00    +0.000 C 
ATOM     16  N   UNL     1      43.034   2.377  11.478  0.00  0.00    +0.000 NA
ENDBRANCH  12  15
ENDBRANCH   6   9
BRANCH   1  17
ATOM     17  C   UNL     1      51.938   7.998  15.447  0.00  0.00    +0.000 C 
BRANCH  17  19
ATOM     18  C   UNL     1      54.046   6.630  15.742  0.00  0.00    +0.000 C 
ATOM     19  C   UNL     1      52.903   7.356  16.489  0.00  0.00    +0.000 C 
ATOM     20  C   UNL     1      53.565   8.518  17.274  0.00  0.00    +0.000 C 
BRANCH  19  21
ATOM     21  C   UNL     1      52.123   6.448  17.456  0.00  0.00    +0.000 A 
ATOM     22  C   UNL     1      51.308   7.006  18.462  0.00  0.00    +0.000 A 
ATOM     23  C   UNL     1      50.541   6.203  19.311  0.00  0.00    +0.000 A 
ATOM     24  C   UNL     1      50.574   4.818  19.182  0.00  0.00    +0.000 A 
ATOM     25  C   UNL     1      51.386   4.252  18.210  0.00  0.00    +0.000 A 
ATOM     26  F   UNL     1      51.426   2.919  18.080  0.00  0.00    +0.000 F 
ATOM     27  C   UNL     1      52.153   5.044  17.358  0.00  0.00    +0.000 A 
ENDBRANCH  19  21
ENDBRANCH  17  19
ENDBRANCH   1  17
TORSDOF 5
ENDMDL
