MODEL 1
REMARK VINA RESULT:    -7.549      0.000      0.000
REMARK INTER + INTRA:         -10.052
REMARK INTER:                  -9.315
REMARK INTRA:                  -0.737
REMARK UNBOUND:                -0.737
REMARK  Name = 
REMARK  5 active torsions:
REMARK  status: ('A' for Active; 'I' for Inactive)
REMARK    1  A    between atoms: C_1  and  C_2
REMARK    2  A    between atoms: C_4  and  C_5
REMARK    3  A    between atoms: N_10  and  C_11
REMARK    4  A    between atoms: C_11  and  C_12
REMARK    5  A    between atoms: C_16  and  C_17
REMARK                            x       y       z     vdW  Elec       q    Type
REMARK                         _______ _______ _______ _____ _____    ______ ____
ROOT
ATOM      1  C   UNL     1      48.345   5.110  20.774  0.00  0.00    +0.000 C 
ATOM      2  C   UNL     1      48.733   4.872  19.347  0.00  0.00    +0.000 A 
ATOM      3  C   UNL     1      49.140   3.635  18.919  0.00  0.00    +0.000 A 
ATOM      4  C   UNL     1      49.453   3.556  17.583  0.00  0.00    +0.000 A 
ATOM      5  N   UNL     1      49.369   4.592  16.704  0.00  0.00    +0.000 NA
ATOM      6  C   UNL     1      48.939   5.749  17.213  0.00  0.00    +0.000 A 
ATOM      7  N   UNL     1      48.706   6.850  16.407  0.00  0.00    +0.000 N 
ATOM      8  N   UNL     1      48.640   5.928  18.507  0.00  0.00    +0.000 NA
ATOM      9  H   UNL     1      48.621   7.660  17.011  0.00  0.00    +0.000 HD
ENDROOT
BRANCH   4  10
ATOM     10  C   UNL     1      49.906   2.242  17.029  0.00  0.00    +0.000 C 
ATOM     11  N   UNL     1      50.895   1.614  17.732  0.00  0.00    +0.000 N 
ATOM     12  O   UNL     1      49.429   1.755  16.009  0.00  0.00    +0.000 OA
ATOM     13  H   UNL     1      51.297   2.063  18.547  0.00  0.00    +0.000 HD
ATOM     14  H   UNL     1      51.266   0.737  17.396  0.00  0.00    +0.000 HD
ENDBRANCH   4  10
BRANCH   7  15
ATOM     15  C   UNL     1      49.548   7.015  15.247  0.00  0.00    +0.000 C 
BRANCH  15  16
ATOM     16  C   UNL     1      48.705   7.001  13.986  0.00  0.00    +0.000 A 
ATOM     17  C   UNL     1      49.090   7.694  12.833  0.00  0.00    +0.000 A 
ATOM     18  C   UNL     1      48.318   7.615  11.672  0.00  0.00    +0.000 A 
ATOM     19  C   UNL     1      47.155   6.841  11.651  0.00  0.00    +0.000 A 
ATOM     20  C   UNL     1      46.733   6.132  12.787  0.00  0.00    +0.000 A 
ATOM     21  C   UNL     1      47.515   6.253  13.953  0.00  0.00    +0.000 A 
BRANCH  20  22
ATOM     22  C   UNL     1      45.541   5.260  12.758  0.00  0.00    +0.000 A 
ATOM     23  C   UNL     1      44.239   5.770  12.862  0.00  0.00    +0.000 A 
ATOM     24  C   UNL     1      43.138   4.916  12.872  0.00  0.00    +0.000 A 
ATOM     25  C   UNL     1      43.361   3.556  12.763  0.00  0.00    +0.000 A 
ATOM     26  N   UNL     1      44.587   3.008  12.657  0.00  0.00    +0.000 NA
ATOM     27  C   UNL     1      45.637   3.867  12.664  0.00  0.00    +0.000 A 
ENDBRANCH  20  22
ENDBRANCH  15  16
ENDBRANCH   7  15
TORSDOF 4
ENDMDL
MODEL 2
REMARK VINA RESULT:    -7.437      2.213      2.666
REMARK INTER + INTRA:          -9.914
REMARK INTER:                  -9.240
REMARK INTRA:                  -0.674
REMARK UNBOUND:                -0.737
REMARK  Name = 
REMARK  5 active torsions:
REMARK  status: ('A' for Active; 'I' for Inactive)
REMARK    1  A    between atoms: C_1  and  C_2
REMARK    2  A    between atoms: C_4  and  C_5
REMARK    3  A    between atoms: N_10  and  C_11
REMARK    4  A    between atoms: C_11  and  C_12
REMARK    5  A    between atoms: C_16  and  C_17
REMARK                            x       y       z     vdW  Elec       q    Type
REMARK                         _______ _______ _______ _____ _____    ______ ____
ROOT
ATOM      1  C   UNL     1      49.813   7.044  19.329  0.00  0.00    +0.000 C 
ATOM      2  C   UNL     1      49.285   6.410  18.077  0.00  0.00    +0.000 A 
ATOM      3  C   UNL     1      48.929   5.088  18.047  0.00  0.00    +0.000 A 
ATOM      4  C   UNL     1      48.448   4.642  16.840  0.00  0.00    +0.000 A 
ATOM      5  N   UNL     1      48.302   5.416  15.730  0.00  0.00    +0.000 NA
ATOM      6  C   UNL     1      48.652   6.697  15.867  0.00  0.00    +0.000 A 
ATOM      7  N   UNL     1      48.453   7.614  14.850  0.00  0.00    +0.000 N 
ATOM      8  N   UNL     1      49.159   7.213  16.996  0.00  0.00    +0.000 NA
ATOM      9  H   UNL     1      48.995   8.442  15.072  0.00  0.00    +0.000 HD
ENDROOT
BRANCH   4  10
ATOM     10  C   UNL     1      48.034   3.209  16.717  0.00  0.00    +0.000 C 
ATOM     11  N   UNL     1      46.974   2.832  17.491  0.00  0.00    +0.000 N 
ATOM     12  O   UNL     1      48.606   2.418  15.974  0.00  0.00    +0.000 OA
ATOM     13  H   UNL     1      46.550   3.499  18.125  0.00  0.00    +0.000 HD
ATOM     14  H   UNL     1      46.662   1.871  17.477  0.00  0.00    +0.000 HD
ENDBRANCH   4  10
BRANCH   7  15
ATOM     15  C   UNL     1      48.561   7.136  13.493  0.00  0.00    +0.000 C 
BRANCH  15  16
ATOM     16  C   UNL     1      47.205   7.186  12.814  0.00  0.00    +0.000 A 
ATOM     17  C   UNL     1      46.373   8.307  12.909  0.00  0.00    +0.000 A 
ATOM     18  C   UNL     1      45.155   8.342  12.226  0.00  0.00    +0.000 A 
ATOM     19  C   UNL     1      44.758   7.257  11.441  0.00  0.00    +0.000 A 
ATOM     20  C   UNL     1      45.562   6.112  11.320  0.00  0.00    +0.000 A 
ATOM     21  C   UNL     1      46.772   6.093  12.043  0.00  0.00    +0.000 A 
BRANCH  20  22
ATOM     22  C   UNL     1      45.183   4.987  10.442  0.00  0.00    +0.000 A 
ATOM     23  C   UNL     1      45.598   4.911   9.105  0.00  0.00    +0.000 A 
ATOM     24  C   UNL     1      45.190   3.856   8.291  0.00  0.00    +0.000 A 
ATOM     25  C   UNL     1      44.377   2.881   8.839  0.00  0.00    +0.000 A 
ATOM     26  N   UNL     1      43.950   2.898  10.117  0.00  0.00    +0.000 NA
ATOM     27  C   UNL     1      44.356   3.946  10.876  0.00  0.00    +0.000 A 
ENDBRANCH  20  22
ENDBRANCH  15  16
ENDBRANCH   7  15
TORSDOF 4
ENDMDL
MODEL 3
REMARK VINA RESULT:    -7.009      2.876      7.033
REMARK INTER + INTRA:          -9.385
REMARK INTER:                  -8.605
REMARK INTRA:                  -0.780
REMARK UNBOUND:                -0.737
REMARK  Name = 
REMARK  5 active torsions:
REMARK  status: ('A' for Active; 'I' for Inactive)
REMARK    1  A    between atoms: C_1  and  C_2
REMARK    2  A    between atoms: C_4  and  C_5
REMARK    3  A    between atoms: N_10  and  C_11
REMARK    4  A    between atoms: C_11  and  C_12
REMARK    5  A    between atoms: C_16  and  C_17
REMARK                            x       y       z     vdW  Elec       q    Type
REMARK                         _______ _______ _______ _____ _____    ______ ____
ROOT
ATOM      1  C   UNL     1      45.378   3.649   7.413  0.00  0.00    +0.000 C 
ATOM      2  C   UNL     1      45.231   4.034   8.854  0.00  0.00    +0.000 A 
ATOM      3  C   UNL     1      44.434   3.311   9.703  0.00  0.00    +0.000 A 
ATOM      4  C   UNL     1      44.402   3.767  10.999  0.00  0.00    +0.000 A 
ATOM      5  N   UNL     1      45.100   4.839  11.461  0.00  0.00    +0.000 NA
ATOM      6  C   UNL     1      45.867   5.461  10.563  0.00  0.00    +0.000 A 
ATOM      7  N   UNL     1      46.710   6.498  10.927  0.00  0.00    +0.000 N 
ATOM      8  N   UNL     1      45.938   5.108   9.272  0.00  0.00    +0.000 NA
ATOM      9  H   UNL     1      47.004   6.966  10.077  0.00  0.00    +0.000 HD
ENDROOT
BRANCH   4  10
ATOM     10  C   UNL     1      43.557   3.036  11.995  0.00  0.00    +0.000 C 
ATOM     11  N   UNL     1      43.540   3.564  13.255  0.00  0.00    +0.000 N 
ATOM     12  O   UNL     1      42.921   2.027  11.709  0.00  0.00    +0.000 OA
ATOM     13  H   UNL     1      44.109   4.375  13.470  0.00  0.00    +0.000 HD
ATOM     14  H   UNL     1      43.012   3.104  13.982  0.00  0.00    +0.000 HD
ENDBRANCH   4  10
BRANCH   7  15
ATOM     15  C   UNL     1      46.280   7.358  12.002  0.00  0.00    +0.000 C 
BRANCH  15  16
ATOM     16  C   UNL     1      47.296   7.330  13.128  0.00  0.00    +0.000 A 
ATOM     17  C   UNL     1      48.219   8.365  13.316  0.00  0.00    +0.000 A 
ATOM     18  C   UNL     1      49.104   8.334  14.395  0.00  0.00    +0.000 A 
ATOM     19  C   UNL     1      49.076   7.269  15.299  0.00  0.00    +0.000 A 
ATOM     20  C   UNL     1      48.167   6.209  15.145  0.00  0.00    +0.000 A 
ATOM     21  C   UNL     1      47.305   6.252  14.031  0.00  0.00    +0.000 A 
BRANCH  20  22
ATOM     22  C   UNL     1      48.083   5.111  16.129  0.00  0.00    +0.000 A 
ATOM     23  C   UNL     1      49.100   4.866  17.064  0.00  0.00    +0.000 A 
ATOM     24  C   UNL     1      49.009   3.797  17.952  0.00  0.00    +0.000 A 
ATOM     25  C   UNL     1      47.886   2.992  17.897  0.00  0.00    +0.000 A 
ATOM     26  N   UNL     1      46.877   3.179  17.025  0.00  0.00    +0.000 NA
ATOM     27  C   UNL     1      47.005   4.222  16.166  0.00  0.00    +0.000 A 
ENDBRANCH  20  22
ENDBRANCH  15  16
ENDBRANCH   7  15
TORSDOF 4
ENDMDL
MODEL 4
REMARK VINA RESULT:    -6.922      3.112      4.565
REMARK INTER + INTRA:          -9.277
REMARK INTER:                  -8.757
REMARK INTRA:                  -0.520
REMARK UNBOUND:                -0.737
REMARK  Name = 
REMARK  5 active torsions:
REMARK  status: ('A' for Active; 'I' for Inactive)
REMARK    1  A    between atoms: C_1  and  C_2
REMARK    2  A    between atoms: C_4  and  C_5
REMARK    3  A    between atoms: N_10  and  C_11
REMARK    4  A    between atoms: C_11  and  C_12
REMARK    5  A    between atoms: C_16  and  C_17
REMARK                            x       y       z     vdW  Elec       q    Type
REMARK                         _______ _______ _______ _____ _____    ______ ____
ROOT
ATOM      1  C   UNL     1      48.241   2.949  18.391  0.00  0.00    +0.000 C 
ATOM      2  C   UNL     1      48.263   3.971  17.295  0.00  0.00    +0.000 A 
ATOM      3  C   UNL     1      49.230   4.941  17.248  0.00  0.00    +0.000 A 
ATOM      4  C   UNL     1      49.137   5.803  16.182  0.00  0.00    +0.000 A 
ATOM      5  N   UNL     1      48.187   5.735  15.210  0.00  0.00    +0.000 NA
ATOM      6  C   UNL     1      47.306   4.740  15.331  0.00  0.00    +0.000 A 
ATOM      7  N   UNL     1      46.356   4.493  14.354  0.00  0.00    +0.000 N 
ATOM      8  N   UNL     1      47.299   3.871  16.351  0.00  0.00    +0.000 NA
ATOM      9  H   UNL     1      45.664   3.868  14.751  0.00  0.00    +0.000 HD
ENDROOT
BRANCH   4  10
ATOM     10  C   UNL     1      50.153   6.894  16.052  0.00  0.00    +0.000 C 
ATOM     11  N   UNL     1      50.619   7.411  17.227  0.00  0.00    +0.000 N 
ATOM     12  O   UNL     1      50.545   7.306  14.965  0.00  0.00    +0.000 OA
ATOM     13  H   UNL     1      50.245   7.077  18.108  0.00  0.00    +0.000 HD
ATOM     14  H   UNL     1      51.285   8.170  17.210  0.00  0.00    +0.000 HD
ENDBRANCH   4  10
BRANCH   7  15
ATOM     15  C   UNL     1      45.839   5.627  13.628  0.00  0.00    +0.000 C 
BRANCH  15  16
ATOM     16  C   UNL     1      44.965   5.156  12.481  0.00  0.00    +0.000 A 
ATOM     17  C   UNL     1      43.589   5.409  12.450  0.00  0.00    +0.000 A 
ATOM     18  C   UNL     1      42.823   5.008  11.352  0.00  0.00    +0.000 A 
ATOM     19  C   UNL     1      43.425   4.354  10.275  0.00  0.00    +0.000 A 
ATOM     20  C   UNL     1      44.803   4.079  10.268  0.00  0.00    +0.000 A 
ATOM     21  C   UNL     1      45.545   4.468  11.401  0.00  0.00    +0.000 A 
BRANCH  20  22
ATOM     22  C   UNL     1      45.461   3.446   9.108  0.00  0.00    +0.000 A 
ATOM     23  C   UNL     1      45.943   4.193   8.023  0.00  0.00    +0.000 A 
ATOM     24  C   UNL     1      46.523   3.562   6.924  0.00  0.00    +0.000 A 
ATOM     25  C   UNL     1      46.624   2.183   6.938  0.00  0.00    +0.000 A 
ATOM     26  N   UNL     1      46.183   1.413   7.952  0.00  0.00    +0.000 NA
ATOM     27  C   UNL     1      45.612   2.060   8.999  0.00  0.00    +0.000 A 
ENDBRANCH  20  22
ENDBRANCH  15  16
ENDBRANCH   7  15
TORSDOF 4
ENDMDL
MODEL 5
REMARK VINA RESULT:    -6.771      2.815      7.825
REMARK INTER + INTRA:          -9.091
REMARK INTER:                  -8.597
REMARK INTRA:                  -0.495
REMARK UNBOUND:                -0.737
REMARK  Name = 
REMARK  5 active torsions:
REMARK  status: ('A' for Active; 'I' for Inactive)
REMARK    1  A    between atoms: C_1  and  C_2
REMARK    2  A    between atoms: C_4  and  C_5
REMARK    3  A    between atoms: N_10  and  C_11
REMARK    4  A    between atoms: C_11  and  C_12
REMARK    5  A    between atoms: C_16  and  C_17
REMARK                            x       y       z     vdW  Elec       q    Type
REMARK                         _______ _______ _______ _____ _____    ______ ____
ROOT
ATOM      1  C   UNL     1      44.855   7.962  11.591  0.00  0.00    +0.000 C 
ATOM      2  C   UNL     1      45.049   6.552  12.058  0.00  0.00    +0.000 A 
ATOM      3  C   UNL     1      44.474   5.499  11.396  0.00  0.00    +0.000 A 
ATOM      4  C   UNL     1      44.746   4.260  11.924  0.00  0.00    +0.000 A 
ATOM      5  N   UNL     1      45.533   4.037  13.012  0.00  0.00    +0.000 NA
ATOM      6  C   UNL     1      46.068   5.124  13.572  0.00  0.00    +0.000 A 
ATOM      7  N   UNL     1      46.972   5.028  14.616  0.00  0.00    +0.000 N 
ATOM      8  N   UNL     1      45.835   6.373  13.145  0.00  0.00    +0.000 NA
ATOM      9  H   UNL     1      47.060   5.949  15.031  0.00  0.00    +0.000 HD
ENDROOT
BRANCH   4  10
ATOM     10  C   UNL     1      44.158   3.053  11.263  0.00  0.00    +0.000 C 
ATOM     11  N   UNL     1      44.930   2.474  10.297  0.00  0.00    +0.000 N 
ATOM     12  O   UNL     1      43.054   2.609  11.561  0.00  0.00    +0.000 OA
ATOM     13  H   UNL     1      45.820   2.890  10.046  0.00  0.00    +0.000 HD
ATOM     14  H   UNL     1      44.580   1.673   9.791  0.00  0.00    +0.000 HD
ENDBRANCH   4  10
BRANCH   7  15
ATOM     15  C   UNL     1      46.806   3.934  15.541  0.00  0.00    +0.000 C 
BRANCH  15  16
ATOM     16  C   UNL     1      47.709   4.128  16.744  0.00  0.00    +0.000 A 
ATOM     17  C   UNL     1      47.306   4.872  17.858  0.00  0.00    +0.000 A 
ATOM     18  C   UNL     1      48.142   4.985  18.972  0.00  0.00    +0.000 A 
ATOM     19  C   UNL     1      49.388   4.354  18.983  0.00  0.00    +0.000 A 
ATOM     20  C   UNL     1      49.832   3.600  17.884  0.00  0.00    +0.000 A 
ATOM     21  C   UNL     1      48.981   3.528  16.763  0.00  0.00    +0.000 A 
BRANCH  20  22
ATOM     22  C   UNL     1      51.119   2.876  17.910  0.00  0.00    +0.000 A 
ATOM     23  C   UNL     1      52.285   3.445  18.442  0.00  0.00    +0.000 A 
ATOM     24  C   UNL     1      53.493   2.751  18.414  0.00  0.00    +0.000 A 
ATOM     25  C   UNL     1      53.509   1.483  17.862  0.00  0.00    +0.000 A 
ATOM     26  N   UNL     1      52.421   0.884  17.339  0.00  0.00    +0.000 NA
ATOM     27  C   UNL     1      51.266   1.594  17.371  0.00  0.00    +0.000 A 
ENDBRANCH  20  22
ENDBRANCH  15  16
ENDBRANCH   7  15
TORSDOF 4
ENDMDL
MODEL 6
REMARK VINA RESULT:    -6.680      3.083      6.977
REMARK INTER + INTRA:          -8.979
REMARK INTER:                  -8.282
REMARK INTRA:                  -0.697
REMARK UNBOUND:                -0.737
REMARK  Name = 
REMARK  5 active torsions:
REMARK  status: ('A' for Active; 'I' for Inactive)
REMARK    1  A    between atoms: C_1  and  C_2
REMARK    2  A    between atoms: C_4  and  C_5
REMARK    3  A    between atoms: N_10  and  C_11
REMARK    4  A    between atoms: C_11  and  C_12
REMARK    5  A    between atoms: C_16  and  C_17
REMARK                            x       y       z     vdW  Elec       q    Type
REMARK                         _______ _______ _______ _____ _____    ______ ____
ROOT
ATOM      1  C   UNL     1      42.272   5.281  12.078  0.00  0.00    +0.000 C 
ATOM      2  C   UNL     1      43.588   5.445  11.380  0.00  0.00    +0.000 A 
ATOM      3  C   UNL     1      43.871   4.761  10.227  0.00  0.00    +0.000 A 
ATOM      4  C   UNL     1      45.108   5.017   9.687  0.00  0.00    +0.000 A 
ATOM      5  N   UNL     1      46.017   5.886  10.208  0.00  0.00    +0.000 NA
ATOM      6  C   UNL     1      45.638   6.523  11.318  0.00  0.00    +0.000 A 
ATOM      7  N   UNL     1      46.423   7.512  11.887  0.00  0.00    +0.000 N 
ATOM      8  N   UNL     1      44.464   6.315  11.932  0.00  0.00    +0.000 NA
ATOM      9  H   UNL     1      46.070   7.682  12.822  0.00  0.00    +0.000 HD
ENDROOT
BRANCH   4  10
ATOM     10  C   UNL     1      45.500   4.312   8.427  0.00  0.00    +0.000 C 
ATOM     11  N   UNL     1      44.680   3.290   8.041  0.00  0.00    +0.000 N 
ATOM     12  O   UNL     1      46.494   4.622   7.778  0.00  0.00    +0.000 OA
ATOM     13  H   UNL     1      43.889   3.032   8.621  0.00  0.00    +0.000 HD
ATOM     14  H   UNL     1      44.903   2.755   7.215  0.00  0.00    +0.000 HD
ENDBRANCH   4  10
BRANCH   7  15
ATOM     15  C   UNL     1      47.853   7.374  11.769  0.00  0.00    +0.000 C 
BRANCH  15  16
ATOM     16  C   UNL     1      48.489   7.347  13.147  0.00  0.00    +0.000 A 
ATOM     17  C   UNL     1      49.323   8.377  13.595  0.00  0.00    +0.000 A 
ATOM     18  C   UNL     1      49.848   8.346  14.890  0.00  0.00    +0.000 A 
ATOM     19  C   UNL     1      49.542   7.288  15.749  0.00  0.00    +0.000 A 
ATOM     20  C   UNL     1      48.710   6.234  15.337  0.00  0.00    +0.000 A 
ATOM     21  C   UNL     1      48.219   6.275  14.016  0.00  0.00    +0.000 A 
BRANCH  20  22
ATOM     22  C   UNL     1      48.328   5.143  16.256  0.00  0.00    +0.000 A 
ATOM     23  C   UNL     1      49.141   4.751  17.329  0.00  0.00    +0.000 A 
ATOM     24  C   UNL     1      48.771   3.691  18.154  0.00  0.00    +0.000 A 
ATOM     25  C   UNL     1      47.576   3.045  17.896  0.00  0.00    +0.000 A 
ATOM     26  N   UNL     1      46.752   3.379  16.883  0.00  0.00    +0.000 NA
ATOM     27  C   UNL     1      47.150   4.407  16.093  0.00  0.00    +0.000 A 
ENDBRANCH  20  22
ENDBRANCH  15  16
ENDBRANCH   7  15
TORSDOF 4
ENDMDL
MODEL 7
REMARK VINA RESULT:    -6.358      2.598      3.562
REMARK INTER + INTRA:          -8.582
REMARK INTER:                  -7.906
REMARK INTRA:                  -0.676
REMARK UNBOUND:                -0.737
REMARK  Name = 
REMARK  5 active torsions:
REMARK  status: ('A' for Active; 'I' for Inactive)
REMARK    1  A    between atoms: C_1  and  C_2
REMARK    2  A    between atoms: C_4  and  C_5
REMARK    3  A    between atoms: N_10  and  C_11
REMARK    4  A    between atoms: C_11  and  C_12
REMARK    5  A    between atoms: C_16  and  C_17
REMARK                            x       y       z     vdW  Elec       q    Type
REMARK                         _______ _______ _______ _____ _____    ______ ____
ROOT
ATOM      1  C   UNL     1      47.780   2.905  17.357  0.00  0.00    +0.000 C 
ATOM      2  C   UNL     1      48.092   4.353  17.128  0.00  0.00    +0.000 A 
ATOM      3  C   UNL     1      48.340   5.200  18.177  0.00  0.00    +0.000 A 
ATOM      4  C   UNL     1      48.626   6.496  17.822  0.00  0.00    +0.000 A 
ATOM      5  N   UNL     1      48.687   6.955  16.543  0.00  0.00    +0.000 NA
ATOM      6  C   UNL     1      48.456   6.048  15.591  0.00  0.00    +0.000 A 
ATOM      7  N   UNL     1      48.593   6.357  14.249  0.00  0.00    +0.000 N 
ATOM      8  N   UNL     1      48.140   4.769  15.842  0.00  0.00    +0.000 NA
ATOM      9  H   UNL     1      48.149   5.617  13.717  0.00  0.00    +0.000 HD
ENDROOT
BRANCH   4  10
ATOM     10  C   UNL     1      48.909   7.490  18.905  0.00  0.00    +0.000 C 
ATOM     11  N   UNL     1      48.994   8.793  18.504  0.00  0.00    +0.000 N 
ATOM     12  O   UNL     1      49.059   7.164  20.078  0.00  0.00    +0.000 OA
ATOM     13  H   UNL     1      48.906   9.024  17.521  0.00  0.00    +0.000 HD
ATOM     14  H   UNL     1      49.211   9.511  19.180  0.00  0.00    +0.000 HD
ENDBRANCH   4  10
BRANCH   7  15
ATOM     15  C   UNL     1      48.275   7.704  13.841  0.00  0.00    +0.000 C 
BRANCH  15  16
ATOM     16  C   UNL     1      47.004   7.710  13.012  0.00  0.00    +0.000 A 
ATOM     17  C   UNL     1      46.189   8.843  12.920  0.00  0.00    +0.000 A 
ATOM     18  C   UNL     1      45.055   8.832  12.104  0.00  0.00    +0.000 A 
ATOM     19  C   UNL     1      44.726   7.688  11.372  0.00  0.00    +0.000 A 
ATOM     20  C   UNL     1      45.516   6.529  11.439  0.00  0.00    +0.000 A 
ATOM     21  C   UNL     1      46.638   6.559  12.292  0.00  0.00    +0.000 A 
BRANCH  20  22
ATOM     22  C   UNL     1      45.216   5.337  10.620  0.00  0.00    +0.000 A 
ATOM     23  C   UNL     1      45.671   5.203   9.301  0.00  0.00    +0.000 A 
ATOM     24  C   UNL     1      45.335   4.083   8.542  0.00  0.00    +0.000 A 
ATOM     25  C   UNL     1      44.554   3.104   9.127  0.00  0.00    +0.000 A 
ATOM     26  N   UNL     1      44.091   3.175  10.390  0.00  0.00    +0.000 NA
ATOM     27  C   UNL     1      44.426   4.285  11.095  0.00  0.00    +0.000 A 
ENDBRANCH  20  22
ENDBRANCH  15  16
ENDBRANCH   7  15
TORSDOF 4
ENDMDL
MODEL 8
REMARK VINA RESULT:    -6.275      3.054      7.674
REMARK INTER + INTRA:          -8.479
REMARK INTER:                  -7.912
REMARK INTRA:                  -0.567
REMARK UNBOUND:                -0.737
REMARK  Name = 
REMARK  5 active torsions:
REMARK  status: ('A' for Active; 'I' for Inactive)
REMARK    1  A    between atoms: C_1  and  C_2
REMARK    2  A    between atoms: C_4  and  C_5
REMARK    3  A    between atoms: N_10  and  C_11
REMARK    4  A    between atoms: C_11  and  C_12
REMARK    5  A    between atoms: C_16  and  C_17
REMARK                            x       y       z     vdW  Elec       q    Type
REMARK                         _______ _______ _______ _____ _____    ______ ____
ROOT
ATOM      1  C   UNL     1      44.898   8.826  11.818  0.00  0.00    +0.000 C 
ATOM      2  C   UNL     1      45.025   7.342  11.984  0.00  0.00    +0.000 A 
ATOM      3  C   UNL     1      44.355   6.476  11.160  0.00  0.00    +0.000 A 
ATOM      4  C   UNL     1      44.574   5.143  11.416  0.00  0.00    +0.000 A 
ATOM      5  N   UNL     1      45.395   4.665  12.391  0.00  0.00    +0.000 NA
ATOM      6  C   UNL     1      46.022   5.588  13.123  0.00  0.00    +0.000 A 
ATOM      7  N   UNL     1      46.965   5.238  14.074  0.00  0.00    +0.000 N 
ATOM      8  N   UNL     1      45.847   6.908  12.967  0.00  0.00    +0.000 NA
ATOM      9  H   UNL     1      47.129   6.050  14.658  0.00  0.00    +0.000 HD
ENDROOT
BRANCH   4  10
ATOM     10  C   UNL     1      43.882   4.126  10.564  0.00  0.00    +0.000 C 
ATOM     11  N   UNL     1      43.932   4.351   9.217  0.00  0.00    +0.000 N 
ATOM     12  O   UNL     1      43.303   3.153  11.035  0.00  0.00    +0.000 OA
ATOM     13  H   UNL     1      44.384   5.187   8.862  0.00  0.00    +0.000 HD
ATOM     14  H   UNL     1      43.461   3.718   8.587  0.00  0.00    +0.000 HD
ENDBRANCH   4  10
BRANCH   7  15
ATOM     15  C   UNL     1      46.774   3.990  14.772  0.00  0.00    +0.000 C 
BRANCH  15  16
ATOM     16  C   UNL     1      47.581   3.982  16.056  0.00  0.00    +0.000 A 
ATOM     17  C   UNL     1      48.275   2.846  16.486  0.00  0.00    +0.000 A 
ATOM     18  C   UNL     1      49.053   2.890  17.645  0.00  0.00    +0.000 A 
ATOM     19  C   UNL     1      49.147   4.071  18.385  0.00  0.00    +0.000 A 
ATOM     20  C   UNL     1      48.465   5.234  17.990  0.00  0.00    +0.000 A 
ATOM     21  C   UNL     1      47.664   5.152  16.833  0.00  0.00    +0.000 A 
BRANCH  20  22
ATOM     22  C   UNL     1      48.607   6.505  18.727  0.00  0.00    +0.000 A 
ATOM     23  C   UNL     1      47.498   7.250  19.153  0.00  0.00    +0.000 A 
ATOM     24  C   UNL     1      47.667   8.467  19.811  0.00  0.00    +0.000 A 
ATOM     25  C   UNL     1      48.954   8.913  20.046  0.00  0.00    +0.000 A 
ATOM     26  N   UNL     1      50.058   8.240  19.665  0.00  0.00    +0.000 NA
ATOM     27  C   UNL     1      49.856   7.066  19.015  0.00  0.00    +0.000 A 
ENDBRANCH  20  22
ENDBRANCH  15  16
ENDBRANCH   7  15
TORSDOF 4
ENDMDL
MODEL 9
REMARK VINA RESULT:    -6.203      3.282      6.756
REMARK INTER + INTRA:          -8.391
REMARK INTER:                  -7.614
REMARK INTRA:                  -0.776
REMARK UNBOUND:                -0.737
REMARK  Name = 
REMARK  5 active torsions:
REMARK  status: ('A' for Active; 'I' for Inactive)
REMARK    1  A    between atoms: C_1  and  C_2
REMARK    2  A    between atoms: C_4  and  C_5
REMARK    3  A    between atoms: N_10  and  C_11
REMARK    4  A    between atoms: C_11  and  C_12
REMARK    5  A    between atoms: C_16  and  C_17
REMARK                            x       y       z     vdW  Elec       q    Type
REMARK                         _______ _______ _______ _____ _____    ______ ____
ROOT
ATOM      1  C   UNL     1      44.108   2.791  10.686  0.00  0.00    +0.000 C 
ATOM      2  C   UNL     1      44.819   3.790  11.547  0.00  0.00    +0.000 A 
ATOM      3  C   UNL     1      45.587   3.392  12.610  0.00  0.00    +0.000 A 
ATOM      4  C   UNL     1      46.192   4.411  13.305  0.00  0.00    +0.000 A 
ATOM      5  N   UNL     1      46.083   5.732  12.996  0.00  0.00    +0.000 NA
ATOM      6  C   UNL     1      45.333   6.016  11.928  0.00  0.00    +0.000 A 
ATOM      7  N   UNL     1      45.228   7.309  11.443  0.00  0.00    +0.000 N 
ATOM      8  N   UNL     1      44.681   5.092  11.209  0.00  0.00    +0.000 NA
ATOM      9  H   UNL     1      44.445   7.332  10.799  0.00  0.00    +0.000 HD
ENDROOT
BRANCH   4  10
ATOM     10  C   UNL     1      47.051   4.067  14.481  0.00  0.00    +0.000 C 
ATOM     11  N   UNL     1      47.257   5.076  15.378  0.00  0.00    +0.000 N 
ATOM     12  O   UNL     1      47.544   2.954  14.636  0.00  0.00    +0.000 OA
ATOM     13  H   UNL     1      46.869   5.996  15.200  0.00  0.00    +0.000 HD
ATOM     14  H   UNL     1      47.850   4.919  16.179  0.00  0.00    +0.000 HD
ENDBRANCH   4  10
BRANCH   7  15
ATOM     15  C   UNL     1      45.287   8.386  12.401  0.00  0.00    +0.000 C 
BRANCH  15  16
ATOM     16  C   UNL     1      46.414   9.337  12.045  0.00  0.00    +0.000 A 
ATOM     17  C   UNL     1      46.168  10.650  11.629  0.00  0.00    +0.000 A 
ATOM     18  C   UNL     1      47.230  11.516  11.361  0.00  0.00    +0.000 A 
ATOM     19  C   UNL     1      48.549  11.080  11.509  0.00  0.00    +0.000 A 
ATOM     20  C   UNL     1      48.839   9.769  11.923  0.00  0.00    +0.000 A 
ATOM     21  C   UNL     1      47.748   8.908  12.157  0.00  0.00    +0.000 A 
BRANCH  20  22
ATOM     22  C   UNL     1      50.227   9.316  12.146  0.00  0.00    +0.000 A 
ATOM     23  C   UNL     1      51.111   9.068  11.085  0.00  0.00    +0.000 A 
ATOM     24  C   UNL     1      52.402   8.602  11.328  0.00  0.00    +0.000 A 
ATOM     25  C   UNL     1      52.792   8.403  12.639  0.00  0.00    +0.000 A 
ATOM     26  N   UNL     1      51.990   8.627  13.698  0.00  0.00    +0.000 NA
ATOM     27  C   UNL     1      50.736   9.068  13.424  0.00  0.00    +0.000 A 
ENDBRANCH  20  22
ENDBRANCH  15  16
ENDBRANCH   7  15
TORSDOF 4
ENDMDL
