MODEL 1
REMARK VINA RESULT:    -7.810      0.000      0.000
REMARK INTER + INTRA:         -10.699
REMARK INTER:                 -10.092
REMARK INTRA:                  -0.606
REMARK UNBOUND:                -0.606
REMARK  Name = 
REMARK  5 active torsions:
REMARK  status: ('A' for Active; 'I' for Inactive)
REMARK    1  A    between atoms: C_2  and  C_4
REMARK    2  A    between atoms: C_8  and  C_9
REMARK    3  A    between atoms: C_9  and  C_10
REMARK    4  A    between atoms: C_10  and  C_11
REMARK    5  A    between atoms: C_15  and  C_16
REMARK                            x       y       z     vdW  Elec       q    Type
REMARK                         _______ _______ _______ _____ _____    ______ ____
ROOT
ATOM      1  C   UNL     1      44.435   6.087  11.334  0.00  0.00    +0.000 C 
ENDROOT
BRANCH   1   2
ATOM      2  C   UNL     1      44.314   4.679  10.806  0.00  0.00    +0.000 A 
ATOM      3  C   UNL     1      43.479   3.766  11.437  0.00  0.00    +0.000 A 
ATOM      4  N   UNL     1      43.359   2.480  11.038  0.00  0.00    +0.000 NA
ATOM      5  C   UNL     1      44.127   2.131   9.977  0.00  0.00    +0.000 A 
ATOM      6  C   UNL     1      44.993   3.013   9.335  0.00  0.00    +0.000 A 
ATOM      7  N   UNL     1      45.088   4.305   9.754  0.00  0.00    +0.000 NA
BRANCH   6   8
ATOM      8  C   UNL     1      45.832   2.643   8.194  0.00  0.00    +0.000 A 
ATOM      9  C   UNL     1      46.124   3.525   7.168  0.00  0.00    +0.000 A 
ATOM     10  N   UNL     1      46.887   3.231   6.088  0.00  0.00    +0.000 NA
ATOM     11  C   UNL     1      47.384   1.989   6.051  0.00  0.00    +0.000 A 
ATOM     12  N   UNL     1      47.188   1.040   6.977  0.00  0.00    +0.000 NA
ATOM     13  C   UNL     1      46.417   1.397   8.028  0.00  0.00    +0.000 A 
ENDBRANCH   6   8
ENDBRANCH   1   2
BRANCH   1  14
ATOM     14  C   UNL     1      45.797   6.734  11.054  0.00  0.00    +0.000 C 
BRANCH  14  19
ATOM     15  C   UNL     1      47.451   5.505  14.270  0.00  0.00    +0.000 A 
ATOM     16  C   UNL     1      48.441   6.477  14.467  0.00  0.00    +0.000 A 
ATOM     17  C   UNL     1      48.545   7.549  13.578  0.00  0.00    +0.000 A 
ATOM     18  C   UNL     1      47.679   7.647  12.486  0.00  0.00    +0.000 A 
ATOM     19  C   UNL     1      46.692   6.677  12.272  0.00  0.00    +0.000 A 
ATOM     20  C   UNL     1      46.581   5.610  13.176  0.00  0.00    +0.000 A 
BRANCH  15  22
ATOM     21  N   UNL     1      47.019   4.527  16.464  0.00  0.00    +0.000 N 
ATOM     22  C   UNL     1      47.330   4.314  15.150  0.00  0.00    +0.000 C 
ATOM     23  O   UNL     1      47.481   3.178  14.716  0.00  0.00    +0.000 OA
ATOM     24  H   UNL     1      46.856   3.699  17.024  0.00  0.00    +0.000 HD
ATOM     25  H   UNL     1      46.645   5.402  16.800  0.00  0.00    +0.000 HD
ENDBRANCH  15  22
ENDBRANCH  14  19
ENDBRANCH   1  14
TORSDOF 5
ENDMDL
MODEL 2
REMARK VINA RESULT:    -7.638      2.820      6.906
REMARK INTER + INTRA:         -10.477
REMARK INTER:                  -9.959
REMARK INTRA:                  -0.517
REMARK UNBOUND:                -0.606
REMARK  Name = 
REMARK  5 active torsions:
REMARK  status: ('A' for Active; 'I' for Inactive)
REMARK    1  A    between atoms: C_2  and  C_4
REMARK    2  A    between atoms: C_8  and  C_9
REMARK    3  A    between atoms: C_9  and  C_10
REMARK    4  A    between atoms: C_10  and  C_11
REMARK    5  A    between atoms: C_15  and  C_16
REMARK                            x       y       z     vdW  Elec       q    Type
REMARK                         _______ _______ _______ _____ _____    ______ ____
ROOT
ATOM      1  C   UNL     1      43.727   4.059  11.369  0.00  0.00    +0.000 C 
ENDROOT
BRANCH   1   2
ATOM      2  C   UNL     1      44.974   4.310  12.180  0.00  0.00    +0.000 A 
ATOM      3  C   UNL     1      45.560   3.276  12.899  0.00  0.00    +0.000 A 
ATOM      4  N   UNL     1      46.652   3.447  13.676  0.00  0.00    +0.000 NA
ATOM      5  C   UNL     1      47.137   4.711  13.721  0.00  0.00    +0.000 A 
ATOM      6  C   UNL     1      46.562   5.777  13.032  0.00  0.00    +0.000 A 
ATOM      7  N   UNL     1      45.466   5.575  12.251  0.00  0.00    +0.000 NA
BRANCH   6   8
ATOM      8  C   UNL     1      47.075   7.147  13.080  0.00  0.00    +0.000 A 
ATOM      9  C   UNL     1      47.930   7.587  14.077  0.00  0.00    +0.000 A 
ATOM     10  N   UNL     1      48.426   8.844  14.171  0.00  0.00    +0.000 NA
ATOM     11  C   UNL     1      48.046   9.690  13.206  0.00  0.00    +0.000 A 
ATOM     12  N   UNL     1      47.234   9.396  12.182  0.00  0.00    +0.000 NA
ATOM     13  C   UNL     1      46.772   8.126  12.147  0.00  0.00    +0.000 A 
ENDBRANCH   6   8
ENDBRANCH   1   2
BRANCH   1  14
ATOM     14  C   UNL     1      43.846   2.869  10.410  0.00  0.00    +0.000 C 
BRANCH  14  19
ATOM     15  C   UNL     1      46.533   2.253   7.766  0.00  0.00    +0.000 A 
ATOM     16  C   UNL     1      46.750   3.548   7.279  0.00  0.00    +0.000 A 
ATOM     17  C   UNL     1      46.053   4.623   7.833  0.00  0.00    +0.000 A 
ATOM     18  C   UNL     1      45.129   4.411   8.859  0.00  0.00    +0.000 A 
ATOM     19  C   UNL     1      44.894   3.120   9.350  0.00  0.00    +0.000 A 
ATOM     20  C   UNL     1      45.609   2.045   8.800  0.00  0.00    +0.000 A 
BRANCH  15  22
ATOM     21  N   UNL     1      46.856  -0.164   7.661  0.00  0.00    +0.000 N 
ATOM     22  C   UNL     1      47.204   1.065   7.177  0.00  0.00    +0.000 C 
ATOM     23  O   UNL     1      48.026   1.176   6.274  0.00  0.00    +0.000 OA
ATOM     24  H   UNL     1      47.260  -0.962   7.186  0.00  0.00    +0.000 HD
ATOM     25  H   UNL     1      46.022  -0.317   8.209  0.00  0.00    +0.000 HD
ENDBRANCH  15  22
ENDBRANCH  14  19
ENDBRANCH   1  14
TORSDOF 5
ENDMDL
MODEL 3
REMARK VINA RESULT:    -7.443      3.076      7.138
REMARK INTER + INTRA:         -10.224
REMARK INTER:                  -9.603
REMARK INTRA:                  -0.621
REMARK UNBOUND:                -0.606
REMARK  Name = 
REMARK  5 active torsions:
REMARK  status: ('A' for Active; 'I' for Inactive)
REMARK    1  A    between atoms: C_2  and  C_4
REMARK    2  A    between atoms: C_8  and  C_9
REMARK    3  A    between atoms: C_9  and  C_10
REMARK    4  A    between atoms: C_10  and  C_11
REMARK    5  A    between atoms: C_15  and  C_16
REMARK                            x       y       z     vdW  Elec       q    Type
REMARK                         _______ _______ _______ _____ _____    ______ ____
ROOT
ATOM      1  C   UNL     1      44.625   5.349  11.151  0.00  0.00    +0.000 C 
ENDROOT
BRANCH   1   2
ATOM      2  C   UNL     1      45.635   5.272  12.268  0.00  0.00    +0.000 A 
ATOM      3  C   UNL     1      45.410   4.441  13.358  0.00  0.00    +0.000 A 
ATOM      4  N   UNL     1      46.257   4.360  14.408  0.00  0.00    +0.000 NA
ATOM      5  C   UNL     1      47.347   5.162  14.335  0.00  0.00    +0.000 A 
ATOM      6  C   UNL     1      47.593   6.025  13.269  0.00  0.00    +0.000 A 
ATOM      7  N   UNL     1      46.727   6.081  12.221  0.00  0.00    +0.000 NA
BRANCH   6   8
ATOM      8  C   UNL     1      48.764   6.899  13.185  0.00  0.00    +0.000 A 
ATOM      9  C   UNL     1      49.523   7.235  14.294  0.00  0.00    +0.000 A 
ATOM     10  N   UNL     1      50.608   8.044  14.271  0.00  0.00    +0.000 NA
ATOM     11  C   UNL     1      50.946   8.528  13.069  0.00  0.00    +0.000 A 
ATOM     12  N   UNL     1      50.307   8.278  11.918  0.00  0.00    +0.000 NA
ATOM     13  C   UNL     1      49.231   7.465  12.010  0.00  0.00    +0.000 A 
ENDBRANCH   6   8
ENDBRANCH   1   2
BRANCH   1  14
ATOM     14  C   UNL     1      45.254   5.506   9.761  0.00  0.00    +0.000 C 
BRANCH  14  19
ATOM     15  C   UNL     1      46.462   2.816   7.334  0.00  0.00    +0.000 A 
ATOM     16  C   UNL     1      45.899   1.661   7.891  0.00  0.00    +0.000 A 
ATOM     17  C   UNL     1      45.098   1.761   9.031  0.00  0.00    +0.000 A 
ATOM     18  C   UNL     1      44.870   3.004   9.626  0.00  0.00    +0.000 A 
ATOM     19  C   UNL     1      45.435   4.166   9.085  0.00  0.00    +0.000 A 
ATOM     20  C   UNL     1      46.226   4.062   7.931  0.00  0.00    +0.000 A 
BRANCH  15  22
ATOM     21  N   UNL     1      48.688   2.498   6.384  0.00  0.00    +0.000 N 
ATOM     22  C   UNL     1      47.367   2.763   6.157  0.00  0.00    +0.000 C 
ATOM     23  O   UNL     1      46.946   2.928   5.018  0.00  0.00    +0.000 OA
ATOM     24  H   UNL     1      49.267   2.380   5.563  0.00  0.00    +0.000 HD
ATOM     25  H   UNL     1      49.023   2.112   7.255  0.00  0.00    +0.000 HD
ENDBRANCH  15  22
ENDBRANCH  14  19
ENDBRANCH   1  14
TORSDOF 5
ENDMDL
MODEL 4
REMARK VINA RESULT:    -7.343      2.481      7.178
REMARK INTER + INTRA:         -10.096
REMARK INTER:                  -9.700
REMARK INTRA:                  -0.396
REMARK UNBOUND:                -0.606
REMARK  Name = 
REMARK  5 active torsions:
REMARK  status: ('A' for Active; 'I' for Inactive)
REMARK    1  A    between atoms: C_2  and  C_4
REMARK    2  A    between atoms: C_8  and  C_9
REMARK    3  A    between atoms: C_9  and  C_10
REMARK    4  A    between atoms: C_10  and  C_11
REMARK    5  A    between atoms: C_15  and  C_16
REMARK                            x       y       z     vdW  Elec       q    Type
REMARK                         _______ _______ _______ _____ _____    ______ ____
ROOT
ATOM      1  C   UNL     1      43.623   3.938  11.703  0.00  0.00    +0.000 C 
ENDROOT
BRANCH   1   2
ATOM      2  C   UNL     1      44.748   4.696  12.362  0.00  0.00    +0.000 A 
ATOM      3  C   UNL     1      45.154   5.925  11.854  0.00  0.00    +0.000 A 
ATOM      4  N   UNL     1      46.182   6.632  12.374  0.00  0.00    +0.000 NA
ATOM      5  C   UNL     1      46.808   6.053  13.426  0.00  0.00    +0.000 A 
ATOM      6  C   UNL     1      46.444   4.813  13.947  0.00  0.00    +0.000 A 
ATOM      7  N   UNL     1      45.400   4.125  13.408  0.00  0.00    +0.000 NA
BRANCH   6   8
ATOM      8  C   UNL     1      47.119   4.176  15.079  0.00  0.00    +0.000 A 
ATOM      9  C   UNL     1      47.854   3.010  14.947  0.00  0.00    +0.000 A 
ATOM     10  N   UNL     1      48.491   2.379  15.962  0.00  0.00    +0.000 NA
ATOM     11  C   UNL     1      48.386   2.960  17.163  0.00  0.00    +0.000 A 
ATOM     12  N   UNL     1      47.715   4.089  17.430  0.00  0.00    +0.000 NA
ATOM     13  C   UNL     1      47.101   4.669  16.374  0.00  0.00    +0.000 A 
ENDBRANCH   6   8
ENDBRANCH   1   2
BRANCH   1  14
ATOM     14  C   UNL     1      44.068   2.627  11.043  0.00  0.00    +0.000 C 
BRANCH  14  19
ATOM     15  C   UNL     1      46.235   2.099   7.942  0.00  0.00    +0.000 A 
ATOM     16  C   UNL     1      46.014   3.290   7.239  0.00  0.00    +0.000 A 
ATOM     17  C   UNL     1      45.194   4.278   7.788  0.00  0.00    +0.000 A 
ATOM     18  C   UNL     1      44.580   4.077   9.026  0.00  0.00    +0.000 A 
ATOM     19  C   UNL     1      44.784   2.886   9.736  0.00  0.00    +0.000 A 
ATOM     20  C   UNL     1      45.621   1.903   9.187  0.00  0.00    +0.000 A 
BRANCH  15  22
ATOM     21  N   UNL     1      46.708  -0.286   7.725  0.00  0.00    +0.000 N 
ATOM     22  C   UNL     1      47.052   0.992   7.382  0.00  0.00    +0.000 C 
ATOM     23  O   UNL     1      47.989   1.208   6.622  0.00  0.00    +0.000 OA
ATOM     24  H   UNL     1      47.222  -1.025   7.263  0.00  0.00    +0.000 HD
ATOM     25  H   UNL     1      45.813  -0.518   8.130  0.00  0.00    +0.000 HD
ENDBRANCH  15  22
ENDBRANCH  14  19
ENDBRANCH   1  14
TORSDOF 5
ENDMDL
MODEL 5
REMARK VINA RESULT:    -7.311      2.510      7.340
REMARK INTER + INTRA:         -10.054
REMARK INTER:                  -9.434
REMARK INTRA:                  -0.621
REMARK UNBOUND:                -0.606
REMARK  Name = 
REMARK  5 active torsions:
REMARK  status: ('A' for Active; 'I' for Inactive)
REMARK    1  A    between atoms: C_2  and  C_4
REMARK    2  A    between atoms: C_8  and  C_9
REMARK    3  A    between atoms: C_9  and  C_10
REMARK    4  A    between atoms: C_10  and  C_11
REMARK    5  A    between atoms: C_15  and  C_16
REMARK                            x       y       z     vdW  Elec       q    Type
REMARK                         _______ _______ _______ _____ _____    ______ ____
ROOT
ATOM      1  C   UNL     1      44.034   4.355  10.877  0.00  0.00    +0.000 C 
ENDROOT
BRANCH   1   2
ATOM      2  C   UNL     1      44.951   5.277  11.641  0.00  0.00    +0.000 A 
ATOM      3  C   UNL     1      45.138   6.586  11.217  0.00  0.00    +0.000 A 
ATOM      4  N   UNL     1      45.977   7.447  11.834  0.00  0.00    +0.000 NA
ATOM      5  C   UNL     1      46.643   6.940  12.900  0.00  0.00    +0.000 A 
ATOM      6  C   UNL     1      46.499   5.626  13.339  0.00  0.00    +0.000 A 
ATOM      7  N   UNL     1      45.641   4.783  12.703  0.00  0.00    +0.000 NA
BRANCH   6   8
ATOM      8  C   UNL     1      47.220   5.068  14.485  0.00  0.00    +0.000 A 
ATOM      9  C   UNL     1      48.084   5.823  15.260  0.00  0.00    +0.000 A 
ATOM     10  N   UNL     1      48.779   5.354  16.323  0.00  0.00    +0.000 NA
ATOM     11  C   UNL     1      48.582   4.064  16.620  0.00  0.00    +0.000 A 
ATOM     12  N   UNL     1      47.772   3.224  15.962  0.00  0.00    +0.000 NA
ATOM     13  C   UNL     1      47.108   3.754  14.911  0.00  0.00    +0.000 A 
ENDBRANCH   6   8
ENDBRANCH   1   2
BRANCH   1  14
ATOM     14  C   UNL     1      44.145   4.501   9.354  0.00  0.00    +0.000 C 
BRANCH  14  19
ATOM     15  C   UNL     1      46.524   2.481   7.151  0.00  0.00    +0.000 A 
ATOM     16  C   UNL     1      46.375   1.194   7.682  0.00  0.00    +0.000 A 
ATOM     17  C   UNL     1      45.476   0.976   8.728  0.00  0.00    +0.000 A 
ATOM     18  C   UNL     1      44.738   2.037   9.258  0.00  0.00    +0.000 A 
ATOM     19  C   UNL     1      44.885   3.332   8.743  0.00  0.00    +0.000 A 
ATOM     20  C   UNL     1      45.777   3.543   7.682  0.00  0.00    +0.000 A 
BRANCH  15  22
ATOM     21  N   UNL     1      48.821   2.511   6.327  0.00  0.00    +0.000 N 
ATOM     22  C   UNL     1      47.505   2.782   6.077  0.00  0.00    +0.000 C 
ATOM     23  O   UNL     1      47.152   3.238   4.995  0.00  0.00    +0.000 OA
ATOM     24  H   UNL     1      49.459   2.642   5.551  0.00  0.00    +0.000 HD
ATOM     25  H   UNL     1      49.119   1.915   7.084  0.00  0.00    +0.000 HD
ENDBRANCH  15  22
ENDBRANCH  14  19
ENDBRANCH   1  14
TORSDOF 5
ENDMDL
MODEL 6
REMARK VINA RESULT:    -6.832      2.403      7.519
REMARK INTER + INTRA:          -9.435
REMARK INTER:                  -8.740
REMARK INTRA:                  -0.695
REMARK UNBOUND:                -0.606
REMARK  Name = 
REMARK  5 active torsions:
REMARK  status: ('A' for Active; 'I' for Inactive)
REMARK    1  A    between atoms: C_2  and  C_4
REMARK    2  A    between atoms: C_8  and  C_9
REMARK    3  A    between atoms: C_9  and  C_10
REMARK    4  A    between atoms: C_10  and  C_11
REMARK    5  A    between atoms: C_15  and  C_16
REMARK                            x       y       z     vdW  Elec       q    Type
REMARK                         _______ _______ _______ _____ _____    ______ ____
ROOT
ATOM      1  C   UNL     1      47.009   6.799  11.744  0.00  0.00    +0.000 C 
ENDROOT
BRANCH   1   2
ATOM      2  C   UNL     1      47.833   6.919  13.002  0.00  0.00    +0.000 A 
ATOM      3  C   UNL     1      48.820   7.892  13.101  0.00  0.00    +0.000 A 
ATOM      4  N   UNL     1      49.618   8.023  14.183  0.00  0.00    +0.000 NA
ATOM      5  C   UNL     1      49.402   7.123  15.173  0.00  0.00    +0.000 A 
ATOM      6  C   UNL     1      48.438   6.119  15.099  0.00  0.00    +0.000 A 
ATOM      7  N   UNL     1      47.643   6.015  13.999  0.00  0.00    +0.000 NA
BRANCH   6   8
ATOM      8  C   UNL     1      48.202   5.139  16.159  0.00  0.00    +0.000 A 
ATOM      9  C   UNL     1      47.154   4.236  16.118  0.00  0.00    +0.000 A 
ATOM     10  N   UNL     1      46.887   3.315  17.075  0.00  0.00    +0.000 NA
ATOM     11  C   UNL     1      47.728   3.303  18.117  0.00  0.00    +0.000 A 
ATOM     12  N   UNL     1      48.784   4.112  18.280  0.00  0.00    +0.000 NA
ATOM     13  C   UNL     1      48.993   5.008  17.290  0.00  0.00    +0.000 A 
ENDBRANCH   6   8
ENDBRANCH   1   2
BRANCH   1  14
ATOM     14  C   UNL     1      45.500   6.940  11.982  0.00  0.00    +0.000 C 
BRANCH  14  19
ATOM     15  C   UNL     1      44.287   3.633  10.506  0.00  0.00    +0.000 A 
ATOM     16  C   UNL     1      43.607   3.072  11.594  0.00  0.00    +0.000 A 
ATOM     17  C   UNL     1      43.511   3.783  12.793  0.00  0.00    +0.000 A 
ATOM     18  C   UNL     1      44.103   5.042  12.916  0.00  0.00    +0.000 A 
ATOM     19  C   UNL     1      44.795   5.611  11.838  0.00  0.00    +0.000 A 
ATOM     20  C   UNL     1      44.875   4.900  10.632  0.00  0.00    +0.000 A 
BRANCH  15  22
ATOM     21  N   UNL     1      44.441   3.627   8.070  0.00  0.00    +0.000 N 
ATOM     22  C   UNL     1      44.468   2.900   9.227  0.00  0.00    +0.000 C 
ATOM     23  O   UNL     1      44.657   1.689   9.204  0.00  0.00    +0.000 OA
ATOM     24  H   UNL     1      44.654   3.121   7.220  0.00  0.00    +0.000 HD
ATOM     25  H   UNL     1      44.542   4.631   8.057  0.00  0.00    +0.000 HD
ENDBRANCH  15  22
ENDBRANCH  14  19
ENDBRANCH   1  14
TORSDOF 5
ENDMDL
MODEL 7
REMARK VINA RESULT:    -6.776      2.163      2.335
REMARK INTER + INTRA:          -9.363
REMARK INTER:                  -8.701
REMARK INTRA:                  -0.663
REMARK UNBOUND:                -0.606
REMARK  Name = 
REMARK  5 active torsions:
REMARK  status: ('A' for Active; 'I' for Inactive)
REMARK    1  A    between atoms: C_2  and  C_4
REMARK    2  A    between atoms: C_8  and  C_9
REMARK    3  A    between atoms: C_9  and  C_10
REMARK    4  A    between atoms: C_10  and  C_11
REMARK    5  A    between atoms: C_15  and  C_16
REMARK                            x       y       z     vdW  Elec       q    Type
REMARK                         _______ _______ _______ _____ _____    ______ ____
ROOT
ATOM      1  C   UNL     1      44.943   6.634  12.592  0.00  0.00    +0.000 C 
ENDROOT
BRANCH   1   2
ATOM      2  C   UNL     1      44.518   5.338  11.948  0.00  0.00    +0.000 A 
ATOM      3  C   UNL     1      43.554   4.540  12.552  0.00  0.00    +0.000 A 
ATOM      4  N   UNL     1      43.162   3.350  12.047  0.00  0.00    +0.000 NA
ATOM      5  C   UNL     1      43.785   2.974  10.905  0.00  0.00    +0.000 A 
ATOM      6  C   UNL     1      44.772   3.736  10.283  0.00  0.00    +0.000 A 
ATOM      7  N   UNL     1      45.143   4.935  10.810  0.00  0.00    +0.000 NA
BRANCH   6   8
ATOM      8  C   UNL     1      45.455   3.334   9.053  0.00  0.00    +0.000 A 
ATOM      9  C   UNL     1      45.807   4.240   8.066  0.00  0.00    +0.000 A 
ATOM     10  N   UNL     1      46.433   3.919   6.909  0.00  0.00    +0.000 NA
ATOM     11  C   UNL     1      46.725   2.622   6.749  0.00  0.00    +0.000 A 
ATOM     12  N   UNL     1      46.451   1.645   7.623  0.00  0.00    +0.000 NA
ATOM     13  C   UNL     1      45.824   2.031   8.756  0.00  0.00    +0.000 A 
ENDBRANCH   6   8
ENDBRANCH   1   2
BRANCH   1  14
ATOM     14  C   UNL     1      45.811   7.515  11.686  0.00  0.00    +0.000 C 
BRANCH  14  19
ATOM     15  C   UNL     1      48.616   8.235  14.177  0.00  0.00    +0.000 A 
ATOM     16  C   UNL     1      49.753   7.941  13.414  0.00  0.00    +0.000 A 
ATOM     17  C   UNL     1      49.610   7.546  12.082  0.00  0.00    +0.000 A 
ATOM     18  C   UNL     1      48.340   7.427  11.513  0.00  0.00    +0.000 A 
ATOM     19  C   UNL     1      47.193   7.709  12.268  0.00  0.00    +0.000 A 
ATOM     20  C   UNL     1      47.343   8.120  13.601  0.00  0.00    +0.000 A 
BRANCH  15  22
ATOM     21  N   UNL     1      47.644   9.270  16.163  0.00  0.00    +0.000 N 
ATOM     22  C   UNL     1      48.705   8.605  15.613  0.00  0.00    +0.000 C 
ATOM     23  O   UNL     1      49.681   8.309  16.292  0.00  0.00    +0.000 OA
ATOM     24  H   UNL     1      47.690   9.434  17.161  0.00  0.00    +0.000 HD
ATOM     25  H   UNL     1      46.738   9.307  15.721  0.00  0.00    +0.000 HD
ENDBRANCH  15  22
ENDBRANCH  14  19
ENDBRANCH   1  14
TORSDOF 5
ENDMDL
MODEL 8
REMARK VINA RESULT:    -6.753      4.106      6.739
REMARK INTER + INTRA:          -9.333
REMARK INTER:                  -8.830
REMARK INTRA:                  -0.504
REMARK UNBOUND:                -0.606
REMARK  Name = 
REMARK  5 active torsions:
REMARK  status: ('A' for Active; 'I' for Inactive)
REMARK    1  A    between atoms: C_2  and  C_4
REMARK    2  A    between atoms: C_8  and  C_9
REMARK    3  A    between atoms: C_9  and  C_10
REMARK    4  A    between atoms: C_10  and  C_11
REMARK    5  A    between atoms: C_15  and  C_16
REMARK                            x       y       z     vdW  Elec       q    Type
REMARK                         _______ _______ _______ _____ _____    ______ ____
ROOT
ATOM      1  C   UNL     1      47.818   3.662  16.908  0.00  0.00    +0.000 C 
ENDROOT
BRANCH   1   2
ATOM      2  C   UNL     1      47.592   4.501  15.675  0.00  0.00    +0.000 A 
ATOM      3  C   UNL     1      48.405   5.597  15.417  0.00  0.00    +0.000 A 
ATOM      4  N   UNL     1      48.228   6.410  14.353  0.00  0.00    +0.000 NA
ATOM      5  C   UNL     1      47.183   6.093  13.551  0.00  0.00    +0.000 A 
ATOM      6  C   UNL     1      46.332   5.016  13.792  0.00  0.00    +0.000 A 
ATOM      7  N   UNL     1      46.539   4.209  14.867  0.00  0.00    +0.000 NA
BRANCH   6   8
ATOM      8  C   UNL     1      45.196   4.670  12.935  0.00  0.00    +0.000 A 
ATOM      9  C   UNL     1      45.121   3.471  12.248  0.00  0.00    +0.000 A 
ATOM     10  N   UNL     1      44.098   3.106  11.439  0.00  0.00    +0.000 NA
ATOM     11  C   UNL     1      43.102   3.993  11.328  0.00  0.00    +0.000 A 
ATOM     12  N   UNL     1      43.043   5.183  11.941  0.00  0.00    +0.000 NA
ATOM     13  C   UNL     1      44.095   5.487  12.733  0.00  0.00    +0.000 A 
ENDBRANCH   6   8
ENDBRANCH   1   2
BRANCH   1  14
ATOM     14  C   UNL     1      48.689   2.425  16.659  0.00  0.00    +0.000 C 
BRANCH  14  19
ATOM     15  C   UNL     1      52.269   1.672  17.757  0.00  0.00    +0.000 A 
ATOM     16  C   UNL     1      52.660   2.901  18.303  0.00  0.00    +0.000 A 
ATOM     17  C   UNL     1      51.751   3.959  18.348  0.00  0.00    +0.000 A 
ATOM     18  C   UNL     1      50.460   3.804  17.838  0.00  0.00    +0.000 A 
ATOM     19  C   UNL     1      50.059   2.583  17.279  0.00  0.00    +0.000 A 
ATOM     20  C   UNL     1      50.971   1.518  17.250  0.00  0.00    +0.000 A 
BRANCH  15  22
ATOM     21  N   UNL     1      53.087  -0.495  18.528  0.00  0.00    +0.000 N 
ATOM     22  C   UNL     1      53.210   0.529  17.631  0.00  0.00    +0.000 C 
ATOM     23  O   UNL     1      54.056   0.490  16.745  0.00  0.00    +0.000 OA
ATOM     24  H   UNL     1      53.679  -1.301  18.369  0.00  0.00    +0.000 HD
ATOM     25  H   UNL     1      52.263  -0.623  19.098  0.00  0.00    +0.000 HD
ENDBRANCH  15  22
ENDBRANCH  14  19
ENDBRANCH   1  14
TORSDOF 5
ENDMDL
MODEL 9
REMARK VINA RESULT:    -6.689      3.732      8.155
REMARK INTER + INTRA:          -9.250
REMARK INTER:                  -8.777
REMARK INTRA:                  -0.473
REMARK UNBOUND:                -0.606
REMARK  Name = 
REMARK  5 active torsions:
REMARK  status: ('A' for Active; 'I' for Inactive)
REMARK    1  A    between atoms: C_2  and  C_4
REMARK    2  A    between atoms: C_8  and  C_9
REMARK    3  A    between atoms: C_9  and  C_10
REMARK    4  A    between atoms: C_10  and  C_11
REMARK    5  A    between atoms: C_15  and  C_16
REMARK                            x       y       z     vdW  Elec       q    Type
REMARK                         _______ _______ _______ _____ _____    ______ ____
ROOT
ATOM      1  C   UNL     1      47.072   4.249  15.311  0.00  0.00    +0.000 C 
ENDROOT
BRANCH   1   2
ATOM      2  C   UNL     1      47.870   4.197  16.590  0.00  0.00    +0.000 A 
ATOM      3  C   UNL     1      47.408   4.847  17.728  0.00  0.00    +0.000 A 
ATOM      4  N   UNL     1      48.097   4.872  18.890  0.00  0.00    +0.000 NA
ATOM      5  C   UNL     1      49.288   4.227  18.871  0.00  0.00    +0.000 A 
ATOM      6  C   UNL     1      49.793   3.585  17.742  0.00  0.00    +0.000 A 
ATOM      7  N   UNL     1      49.075   3.569  16.586  0.00  0.00    +0.000 NA
BRANCH   6   8
ATOM      8  C   UNL     1      51.082   2.892  17.709  0.00  0.00    +0.000 A 
ATOM      9  C   UNL     1      52.274   3.523  18.021  0.00  0.00    +0.000 A 
ATOM     10  N   UNL     1      53.492   2.930  17.999  0.00  0.00    +0.000 NA
ATOM     11  C   UNL     1      53.500   1.636  17.655  0.00  0.00    +0.000 A 
ATOM     12  N   UNL     1      52.424   0.904  17.339  0.00  0.00    +0.000 NA
ATOM     13  C   UNL     1      51.240   1.555  17.378  0.00  0.00    +0.000 A 
ENDBRANCH   6   8
ENDBRANCH   1   2
BRANCH   1  14
ATOM     14  C   UNL     1      47.382   5.473  14.441  0.00  0.00    +0.000 C 
BRANCH  14  19
ATOM     15  C   UNL     1      45.012   4.320  11.677  0.00  0.00    +0.000 A 
ATOM     16  C   UNL     1      45.118   5.371  10.758  0.00  0.00    +0.000 A 
ATOM     17  C   UNL     1      45.986   6.434  11.018  0.00  0.00    +0.000 A 
ATOM     18  C   UNL     1      46.735   6.461  12.197  0.00  0.00    +0.000 A 
ATOM     19  C   UNL     1      46.631   5.420  13.130  0.00  0.00    +0.000 A 
ATOM     20  C   UNL     1      45.770   4.347  12.856  0.00  0.00    +0.000 A 
BRANCH  15  22
ATOM     21  N   UNL     1      43.725   2.449  12.576  0.00  0.00    +0.000 N 
ATOM     22  C   UNL     1      44.064   3.192  11.479  0.00  0.00    +0.000 C 
ATOM     23  O   UNL     1      43.584   2.945  10.379  0.00  0.00    +0.000 OA
ATOM     24  H   UNL     1      43.013   1.744  12.434  0.00  0.00    +0.000 HD
ATOM     25  H   UNL     1      43.892   2.766  13.519  0.00  0.00    +0.000 HD
ENDBRANCH  15  22
ENDBRANCH  14  19
ENDBRANCH   1  14
TORSDOF 5
ENDMDL
