MODEL 1
REMARK VINA RESULT:    -8.575      0.000      0.000
REMARK INTER + INTRA:         -13.908
REMARK INTER:                 -12.835
REMARK INTRA:                  -1.073
REMARK UNBOUND:                -1.073
REMARK  Name = 
REMARK  9 active torsions:
REMARK  status: ('A' for Active; 'I' for Inactive)
REMARK    1  A    between atoms: N_1  and  C_2
REMARK    2  A    between atoms: C_2  and  C_3
REMARK    3  A    between atoms: C_3  and  C_4
REMARK    4  A    between atoms: C_4  and  N_5
REMARK    5  A    between atoms: C_4  and  C_18
REMARK    6  A    between atoms: C_6  and  C_8
REMARK    7  A    between atoms: C_21  and  O_22
REMARK    8  A    between atoms: O_22  and  C_23
REMARK    9  A    between atoms: C_23  and  C_24
REMARK                            x       y       z     vdW  Elec       q    Type
REMARK                         _______ _______ _______ _____ _____    ______ ____
ROOT
ATOM      1  C   UNL     1      46.363   7.943  12.681  0.00  0.00    +0.000 C 
ENDROOT
BRANCH   1   2
ATOM      2  C   UNL     1      45.772   6.777  11.898  0.00  0.00    +0.000 A 
ATOM      3  C   UNL     1      44.656   6.069  12.367  0.00  0.00    +0.000 A 
ATOM      4  C   UNL     1      44.095   5.043  11.596  0.00  0.00    +0.000 A 
ATOM      5  C   UNL     1      44.627   4.727  10.345  0.00  0.00    +0.000 A 
ATOM      6  C   UNL     1      45.774   5.381   9.904  0.00  0.00    +0.000 A 
ATOM      7  C   UNL     1      46.329   6.408  10.663  0.00  0.00    +0.000 A 
BRANCH   5   8
ATOM      8  O   UNL     1      43.950   3.779   9.621  0.00  0.00    +0.000 OA
BRANCH   8   9
ATOM      9  C   UNL     1      44.591   2.495   9.593  0.00  0.00    +0.000 C 
BRANCH   9  10
ATOM     10  C   UNL     1      45.529   2.348   8.419  0.00  0.00    +0.000 A 
ATOM     11  C   UNL     1      45.594   3.310   7.414  0.00  0.00    +0.000 A 
ATOM     12  C   UNL     1      46.457   3.103   6.342  0.00  0.00    +0.000 A 
ATOM     13  C   UNL     1      47.219   1.941   6.292  0.00  0.00    +0.000 A 
ATOM     14  C   UNL     1      47.083   1.026   7.320  0.00  0.00    +0.000 A 
ATOM     15  N   UNL     1      46.258   1.201   8.372  0.00  0.00    +0.000 NA
ENDBRANCH   9  10
ENDBRANCH   8   9
ENDBRANCH   5   8
ENDBRANCH   1   2
BRANCH   1  16
ATOM     16  N   UNL     1      46.973   7.402  13.891  0.00  0.00    +0.000 N 
ATOM     17  C   UNL     1      48.256   6.930  13.966  0.00  0.00    +0.000 C 
ATOM     18  O   UNL     1      49.046   6.975  13.033  0.00  0.00    +0.000 OA
ATOM     19  H   UNL     1      46.316   7.091  14.600  0.00  0.00    +0.000 HD
BRANCH  17  20
ATOM     20  C   UNL     1      48.658   6.409  15.279  0.00  0.00    +0.000 A 
ATOM     21  C   UNL     1      49.654   7.045  16.009  0.00  0.00    +0.000 A 
ATOM     22  S   UNL     1      49.983   6.297  17.507  0.00  0.00    +0.000 S 
ATOM     23  C   UNL     1      48.838   5.073  17.211  0.00  0.00    +0.000 A 
ATOM     24  N   UNL     1      48.645   4.058  18.095  0.00  0.00    +0.000 NA
ATOM     25  C   UNL     1      47.770   3.184  17.723  0.00  0.00    +0.000 A 
ATOM     26  N   UNL     1      47.056   3.241  16.554  0.00  0.00    +0.000 N 
ATOM     27  C   UNL     1      47.185   4.268  15.654  0.00  0.00    +0.000 A 
ATOM     28  O   UNL     1      46.478   4.335  14.654  0.00  0.00    +0.000 OA
ATOM     29  C   UNL     1      48.187   5.256  16.005  0.00  0.00    +0.000 A 
ATOM     30  H   UNL     1      46.363   2.542  16.332  0.00  0.00    +0.000 HD
ENDBRANCH  17  20
ENDBRANCH   1  16
BRANCH   1  31
ATOM     31  C   UNL     1      45.293   9.006  13.006  0.00  0.00    +0.000 C 
BRANCH  31  32
ATOM     32  C   UNL     1      44.846   9.786  11.771  0.00  0.00    +0.000 C 
BRANCH  32  33
ATOM     33  N   UNL     1      43.686  10.610  12.100  0.00  0.00    +0.000 NA
ATOM     34  H   UNL     1      43.660  11.421  11.484  0.00  0.00    +0.000 HD
ATOM     35  H   UNL     1      43.782  10.970  13.049  0.00  0.00    +0.000 HD
ENDBRANCH  32  33
ENDBRANCH  31  32
ENDBRANCH   1  31
TORSDOF 9
ENDMDL
MODEL 2
REMARK VINA RESULT:    -8.239      1.950      2.653
REMARK INTER + INTRA:         -13.405
REMARK INTER:                 -11.749
REMARK INTRA:                  -1.656
REMARK UNBOUND:                -1.073
REMARK  Name = 
REMARK  9 active torsions:
REMARK  status: ('A' for Active; 'I' for Inactive)
REMARK    1  A    between atoms: N_1  and  C_2
REMARK    2  A    between atoms: C_2  and  C_3
REMARK    3  A    between atoms: C_3  and  C_4
REMARK    4  A    between atoms: C_4  and  N_5
REMARK    5  A    between atoms: C_4  and  C_18
REMARK    6  A    between atoms: C_6  and  C_8
REMARK    7  A    between atoms: C_21  and  O_22
REMARK    8  A    between atoms: O_22  and  C_23
REMARK    9  A    between atoms: C_23  and  C_24
REMARK                            x       y       z     vdW  Elec       q    Type
REMARK                         _______ _______ _______ _____ _____    ______ ____
ROOT
ATOM      1  C   UNL     1      47.327   6.782  13.259  0.00  0.00    +0.000 C 
ENDROOT
BRANCH   1   2
ATOM      2  C   UNL     1      46.378   5.927  12.429  0.00  0.00    +0.000 A 
ATOM      3  C   UNL     1      45.876   6.374  11.198  0.00  0.00    +0.000 A 
ATOM      4  C   UNL     1      45.057   5.541  10.425  0.00  0.00    +0.000 A 
ATOM      5  C   UNL     1      44.746   4.252  10.862  0.00  0.00    +0.000 A 
ATOM      6  C   UNL     1      45.187   3.829  12.113  0.00  0.00    +0.000 A 
ATOM      7  C   UNL     1      46.010   4.649  12.880  0.00  0.00    +0.000 A 
BRANCH   5   8
ATOM      8  O   UNL     1      44.022   3.477   9.992  0.00  0.00    +0.000 OA
BRANCH   8   9
ATOM      9  C   UNL     1      44.619   2.203   9.707  0.00  0.00    +0.000 C 
BRANCH   9  10
ATOM     10  C   UNL     1      45.548   2.258   8.518  0.00  0.00    +0.000 A 
ATOM     11  C   UNL     1      45.562   3.352   7.656  0.00  0.00    +0.000 A 
ATOM     12  C   UNL     1      46.419   3.330   6.559  0.00  0.00    +0.000 A 
ATOM     13  C   UNL     1      47.225   2.219   6.343  0.00  0.00    +0.000 A 
ATOM     14  C   UNL     1      47.138   1.165   7.235  0.00  0.00    +0.000 A 
ATOM     15  N   UNL     1      46.320   1.159   8.307  0.00  0.00    +0.000 NA
ENDBRANCH   9  10
ENDBRANCH   8   9
ENDBRANCH   5   8
ENDBRANCH   1   2
BRANCH   1  16
ATOM     16  N   UNL     1      47.416   6.185  14.588  0.00  0.00    +0.000 N 
ATOM     17  C   UNL     1      48.562   6.128  15.336  0.00  0.00    +0.000 C 
ATOM     18  O   UNL     1      49.620   6.634  14.987  0.00  0.00    +0.000 OA
ATOM     19  H   UNL     1      46.674   5.529  14.813  0.00  0.00    +0.000 HD
BRANCH  17  20
ATOM     20  C   UNL     1      48.429   5.461  16.637  0.00  0.00    +0.000 A 
ATOM     21  C   UNL     1      48.387   4.075  16.712  0.00  0.00    +0.000 A 
ATOM     22  S   UNL     1      48.231   3.484  18.306  0.00  0.00    +0.000 S 
ATOM     23  C   UNL     1      48.168   5.061  18.944  0.00  0.00    +0.000 A 
ATOM     24  N   UNL     1      47.991   5.277  20.275  0.00  0.00    +0.000 NA
ATOM     25  C   UNL     1      47.928   6.522  20.611  0.00  0.00    +0.000 A 
ATOM     26  N   UNL     1      48.044   7.574  19.739  0.00  0.00    +0.000 N 
ATOM     27  C   UNL     1      48.267   7.404  18.396  0.00  0.00    +0.000 A 
ATOM     28  O   UNL     1      48.445   8.363  17.652  0.00  0.00    +0.000 OA
ATOM     29  C   UNL     1      48.305   6.022  17.960  0.00  0.00    +0.000 A 
ATOM     30  H   UNL     1      48.016   8.528  20.066  0.00  0.00    +0.000 HD
ENDBRANCH  17  20
ENDBRANCH   1  16
BRANCH   1  31
ATOM     31  C   UNL     1      46.858   8.251  13.322  0.00  0.00    +0.000 C 
BRANCH  31  32
ATOM     32  C   UNL     1      48.018   9.232  13.478  0.00  0.00    +0.000 C 
BRANCH  32  33
ATOM     33  N   UNL     1      48.215   9.544  14.891  0.00  0.00    +0.000 NA
ATOM     34  H   UNL     1      47.737   8.848  15.462  0.00  0.00    +0.000 HD
ATOM     35  H   UNL     1      47.782  10.442  15.105  0.00  0.00    +0.000 HD
ENDBRANCH  32  33
ENDBRANCH  31  32
ENDBRANCH   1  31
TORSDOF 9
ENDMDL
MODEL 3
REMARK VINA RESULT:    -8.156      2.211      2.852
REMARK INTER + INTRA:         -13.282
REMARK INTER:                 -11.645
REMARK INTRA:                  -1.636
REMARK UNBOUND:                -1.073
REMARK  Name = 
REMARK  9 active torsions:
REMARK  status: ('A' for Active; 'I' for Inactive)
REMARK    1  A    between atoms: N_1  and  C_2
REMARK    2  A    between atoms: C_2  and  C_3
REMARK    3  A    between atoms: C_3  and  C_4
REMARK    4  A    between atoms: C_4  and  N_5
REMARK    5  A    between atoms: C_4  and  C_18
REMARK    6  A    between atoms: C_6  and  C_8
REMARK    7  A    between atoms: C_21  and  O_22
REMARK    8  A    between atoms: O_22  and  C_23
REMARK    9  A    between atoms: C_23  and  C_24
REMARK                            x       y       z     vdW  Elec       q    Type
REMARK                         _______ _______ _______ _____ _____    ______ ____
ROOT
ATOM      1  C   UNL     1      48.281   6.919  13.271  0.00  0.00    +0.000 C 
ENDROOT
BRANCH   1   2
ATOM      2  C   UNL     1      47.126   6.090  12.722  0.00  0.00    +0.000 A 
ATOM      3  C   UNL     1      46.347   6.539  11.646  0.00  0.00    +0.000 A 
ATOM      4  C   UNL     1      45.333   5.729  11.121  0.00  0.00    +0.000 A 
ATOM      5  C   UNL     1      45.098   4.458  11.649  0.00  0.00    +0.000 A 
ATOM      6  C   UNL     1      45.823   4.034  12.760  0.00  0.00    +0.000 A 
ATOM      7  C   UNL     1      46.839   4.833  13.279  0.00  0.00    +0.000 A 
BRANCH   5   8
ATOM      8  O   UNL     1      44.153   3.700  11.005  0.00  0.00    +0.000 OA
BRANCH   8   9
ATOM      9  C   UNL     1      44.013   4.001   9.609  0.00  0.00    +0.000 C 
BRANCH   9  10
ATOM     10  C   UNL     1      45.057   3.309   8.765  0.00  0.00    +0.000 A 
ATOM     11  C   UNL     1      45.339   1.955   8.921  0.00  0.00    +0.000 A 
ATOM     12  C   UNL     1      46.334   1.382   8.135  0.00  0.00    +0.000 A 
ATOM     13  C   UNL     1      47.031   2.173   7.229  0.00  0.00    +0.000 A 
ATOM     14  C   UNL     1      46.705   3.515   7.148  0.00  0.00    +0.000 A 
ATOM     15  N   UNL     1      45.744   4.097   7.894  0.00  0.00    +0.000 NA
ENDBRANCH   9  10
ENDBRANCH   8   9
ENDBRANCH   5   8
ENDBRANCH   1   2
BRANCH   1  16
ATOM     16  N   UNL     1      48.144   6.965  14.722  0.00  0.00    +0.000 N 
ATOM     17  C   UNL     1      49.188   6.860  15.603  0.00  0.00    +0.000 C 
ATOM     18  O   UNL     1      50.357   6.779  15.253  0.00  0.00    +0.000 OA
ATOM     19  H   UNL     1      47.212   6.761  15.072  0.00  0.00    +0.000 HD
BRANCH  17  20
ATOM     20  C   UNL     1      48.820   6.910  17.023  0.00  0.00    +0.000 A 
ATOM     21  C   UNL     1      48.410   8.107  17.597  0.00  0.00    +0.000 A 
ATOM     22  S   UNL     1      48.024   7.970  19.254  0.00  0.00    +0.000 S 
ATOM     23  C   UNL     1      48.434   6.317  19.270  0.00  0.00    +0.000 A 
ATOM     24  N   UNL     1      48.375   5.587  20.416  0.00  0.00    +0.000 NA
ATOM     25  C   UNL     1      48.746   4.357  20.285  0.00  0.00    +0.000 A 
ATOM     26  N   UNL     1      49.157   3.785  19.109  0.00  0.00    +0.000 N 
ATOM     27  C   UNL     1      49.190   4.471  17.921  0.00  0.00    +0.000 A 
ATOM     28  O   UNL     1      49.487   3.914  16.869  0.00  0.00    +0.000 OA
ATOM     29  C   UNL     1      48.821   5.870  18.021  0.00  0.00    +0.000 A 
ATOM     30  H   UNL     1      49.408   2.809  19.063  0.00  0.00    +0.000 HD
ENDBRANCH  17  20
ENDBRANCH   1  16
BRANCH   1  31
ATOM     31  C   UNL     1      48.307   8.332  12.652  0.00  0.00    +0.000 C 
BRANCH  31  32
ATOM     32  C   UNL     1      49.681   8.708  12.103  0.00  0.00    +0.000 C 
BRANCH  32  33
ATOM     33  N   UNL     1      50.635   7.638  12.383  0.00  0.00    +0.000 NA
ATOM     34  H   UNL     1      51.415   7.700  11.732  0.00  0.00    +0.000 HD
ATOM     35  H   UNL     1      50.191   6.735  12.221  0.00  0.00    +0.000 HD
ENDBRANCH  32  33
ENDBRANCH  31  32
ENDBRANCH   1  31
TORSDOF 9
ENDMDL
MODEL 4
REMARK VINA RESULT:    -7.858      2.429      4.610
REMARK INTER + INTRA:         -12.835
REMARK INTER:                 -11.449
REMARK INTRA:                  -1.386
REMARK UNBOUND:                -1.073
REMARK  Name = 
REMARK  9 active torsions:
REMARK  status: ('A' for Active; 'I' for Inactive)
REMARK    1  A    between atoms: N_1  and  C_2
REMARK    2  A    between atoms: C_2  and  C_3
REMARK    3  A    between atoms: C_3  and  C_4
REMARK    4  A    between atoms: C_4  and  N_5
REMARK    5  A    between atoms: C_4  and  C_18
REMARK    6  A    between atoms: C_6  and  C_8
REMARK    7  A    between atoms: C_21  and  O_22
REMARK    8  A    between atoms: O_22  and  C_23
REMARK    9  A    between atoms: C_23  and  C_24
REMARK                            x       y       z     vdW  Elec       q    Type
REMARK                         _______ _______ _______ _____ _____    ______ ____
ROOT
ATOM      1  C   UNL     1      47.085   5.328  14.540  0.00  0.00    +0.000 C 
ENDROOT
BRANCH   1   2
ATOM      2  C   UNL     1      46.385   4.925  13.248  0.00  0.00    +0.000 A 
ATOM      3  C   UNL     1      45.891   3.627  13.056  0.00  0.00    +0.000 A 
ATOM      4  C   UNL     1      45.195   3.302  11.885  0.00  0.00    +0.000 A 
ATOM      5  C   UNL     1      44.969   4.270  10.905  0.00  0.00    +0.000 A 
ATOM      6  C   UNL     1      45.514   5.542  11.061  0.00  0.00    +0.000 A 
ATOM      7  C   UNL     1      46.198   5.872  12.228  0.00  0.00    +0.000 A 
BRANCH   5   8
ATOM      8  O   UNL     1      44.193   3.885   9.842  0.00  0.00    +0.000 OA
BRANCH   8   9
ATOM      9  C   UNL     1      44.394   2.524   9.431  0.00  0.00    +0.000 C 
BRANCH   9  10
ATOM     10  C   UNL     1      45.472   2.395   8.382  0.00  0.00    +0.000 A 
ATOM     11  C   UNL     1      45.747   3.428   7.490  0.00  0.00    +0.000 A 
ATOM     12  C   UNL     1      46.732   3.237   6.525  0.00  0.00    +0.000 A 
ATOM     13  C   UNL     1      47.403   2.022   6.465  0.00  0.00    +0.000 A 
ATOM     14  C   UNL     1      47.058   1.039   7.375  0.00  0.00    +0.000 A 
ATOM     15  N   UNL     1      46.111   1.197   8.322  0.00  0.00    +0.000 NA
ENDBRANCH   9  10
ENDBRANCH   8   9
ENDBRANCH   5   8
ENDBRANCH   1   2
BRANCH   1  16
ATOM     16  N   UNL     1      48.272   6.097  14.181  0.00  0.00    +0.000 N 
ATOM     17  C   UNL     1      48.775   7.136  14.919  0.00  0.00    +0.000 C 
ATOM     18  O   UNL     1      48.309   7.483  15.997  0.00  0.00    +0.000 OA
ATOM     19  H   UNL     1      48.535   6.047  13.201  0.00  0.00    +0.000 HD
BRANCH  17  20
ATOM     20  C   UNL     1      49.967   7.785  14.360  0.00  0.00    +0.000 A 
ATOM     21  C   UNL     1      51.191   7.676  15.007  0.00  0.00    +0.000 A 
ATOM     22  S   UNL     1      52.458   8.495  14.209  0.00  0.00    +0.000 S 
ATOM     23  C   UNL     1      51.404   9.060  12.997  0.00  0.00    +0.000 A 
ATOM     24  N   UNL     1      51.845   9.876  12.003  0.00  0.00    +0.000 NA
ATOM     25  C   UNL     1      50.929  10.253  11.174  0.00  0.00    +0.000 A 
ATOM     26  N   UNL     1      49.613   9.874  11.239  0.00  0.00    +0.000 N 
ATOM     27  C   UNL     1      49.133   9.017  12.197  0.00  0.00    +0.000 A 
ATOM     28  O   UNL     1      47.968   8.633  12.185  0.00  0.00    +0.000 OA
ATOM     29  C   UNL     1      50.114   8.597  13.178  0.00  0.00    +0.000 A 
ATOM     30  H   UNL     1      48.948  10.179  10.544  0.00  0.00    +0.000 HD
ENDBRANCH  17  20
ENDBRANCH   1  16
BRANCH   1  31
ATOM     31  C   UNL     1      47.439   4.097  15.400  0.00  0.00    +0.000 C 
BRANCH  31  32
ATOM     32  C   UNL     1      47.175   4.322  16.887  0.00  0.00    +0.000 C 
BRANCH  32  33
ATOM     33  N   UNL     1      46.602   3.115  17.476  0.00  0.00    +0.000 NA
ATOM     34  H   UNL     1      46.631   2.359  16.795  0.00  0.00    +0.000 HD
ATOM     35  H   UNL     1      45.618   3.275  17.692  0.00  0.00    +0.000 HD
ENDBRANCH  32  33
ENDBRANCH  31  32
ENDBRANCH   1  31
TORSDOF 9
ENDMDL
MODEL 5
REMARK VINA RESULT:    -7.769      2.619      4.383
REMARK INTER + INTRA:         -12.702
REMARK INTER:                 -11.475
REMARK INTRA:                  -1.228
REMARK UNBOUND:                -1.073
REMARK  Name = 
REMARK  9 active torsions:
REMARK  status: ('A' for Active; 'I' for Inactive)
REMARK    1  A    between atoms: N_1  and  C_2
REMARK    2  A    between atoms: C_2  and  C_3
REMARK    3  A    between atoms: C_3  and  C_4
REMARK    4  A    between atoms: C_4  and  N_5
REMARK    5  A    between atoms: C_4  and  C_18
REMARK    6  A    between atoms: C_6  and  C_8
REMARK    7  A    between atoms: C_21  and  O_22
REMARK    8  A    between atoms: O_22  and  C_23
REMARK    9  A    between atoms: C_23  and  C_24
REMARK                            x       y       z     vdW  Elec       q    Type
REMARK                         _______ _______ _______ _____ _____    ______ ____
ROOT
ATOM      1  C   UNL     1      46.857   5.434  14.202  0.00  0.00    +0.000 C 
ENDROOT
BRANCH   1   2
ATOM      2  C   UNL     1      46.056   5.004  12.980  0.00  0.00    +0.000 A 
ATOM      3  C   UNL     1      45.932   5.833  11.856  0.00  0.00    +0.000 A 
ATOM      4  C   UNL     1      45.243   5.386  10.721  0.00  0.00    +0.000 A 
ATOM      5  C   UNL     1      44.689   4.105  10.689  0.00  0.00    +0.000 A 
ATOM      6  C   UNL     1      44.751   3.303  11.826  0.00  0.00    +0.000 A 
ATOM      7  C   UNL     1      45.444   3.740  12.952  0.00  0.00    +0.000 A 
BRANCH   5   8
ATOM      8  O   UNL     1      44.122   3.720   9.500  0.00  0.00    +0.000 OA
BRANCH   8   9
ATOM      9  C   UNL     1      44.427   2.371   9.116  0.00  0.00    +0.000 C 
BRANCH   9  10
ATOM     10  C   UNL     1      45.603   2.296   8.171  0.00  0.00    +0.000 A 
ATOM     11  C   UNL     1      45.899   3.335   7.293  0.00  0.00    +0.000 A 
ATOM     12  C   UNL     1      46.978   3.193   6.425  0.00  0.00    +0.000 A 
ATOM     13  C   UNL     1      47.721   2.019   6.445  0.00  0.00    +0.000 A 
ATOM     14  C   UNL     1      47.352   1.026   7.334  0.00  0.00    +0.000 A 
ATOM     15  N   UNL     1      46.314   1.137   8.188  0.00  0.00    +0.000 NA
ENDBRANCH   9  10
ENDBRANCH   8   9
ENDBRANCH   5   8
ENDBRANCH   1   2
BRANCH   1  16
ATOM     16  N   UNL     1      48.004   6.204  13.732  0.00  0.00    +0.000 N 
ATOM     17  C   UNL     1      48.039   7.571  13.650  0.00  0.00    +0.000 C 
ATOM     18  O   UNL     1      47.124   8.290  14.027  0.00  0.00    +0.000 OA
ATOM     19  H   UNL     1      48.668   5.683  13.167  0.00  0.00    +0.000 HD
BRANCH  17  20
ATOM     20  C   UNL     1      49.288   8.138  13.128  0.00  0.00    +0.000 A 
ATOM     21  C   UNL     1      49.297   8.807  11.911  0.00  0.00    +0.000 A 
ATOM     22  S   UNL     1      50.839   9.395  11.470  0.00  0.00    +0.000 S 
ATOM     23  C   UNL     1      51.552   8.736  12.868  0.00  0.00    +0.000 A 
ATOM     24  N   UNL     1      52.889   8.840  13.094  0.00  0.00    +0.000 NA
ATOM     25  C   UNL     1      53.294   8.264  14.176  0.00  0.00    +0.000 A 
ATOM     26  N   UNL     1      52.482   7.608  15.065  0.00  0.00    +0.000 N 
ATOM     27  C   UNL     1      51.122   7.517  14.901  0.00  0.00    +0.000 A 
ATOM     28  O   UNL     1      50.410   6.992  15.750  0.00  0.00    +0.000 OA
ATOM     29  C   UNL     1      50.621   8.113  13.678  0.00  0.00    +0.000 A 
ATOM     30  H   UNL     1      52.854   7.202  15.910  0.00  0.00    +0.000 HD
ENDBRANCH  17  20
ENDBRANCH   1  16
BRANCH   1  31
ATOM     31  C   UNL     1      47.291   4.220  15.050  0.00  0.00    +0.000 C 
BRANCH  31  32
ATOM     32  C   UNL     1      47.317   4.528  16.546  0.00  0.00    +0.000 C 
BRANCH  32  33
ATOM     33  N   UNL     1      46.689   3.437  17.286  0.00  0.00    +0.000 NA
ATOM     34  H   UNL     1      46.533   3.728  18.250  0.00  0.00    +0.000 HD
ATOM     35  H   UNL     1      47.324   2.640  17.323  0.00  0.00    +0.000 HD
ENDBRANCH  32  33
ENDBRANCH  31  32
ENDBRANCH   1  31
TORSDOF 9
ENDMDL
MODEL 6
REMARK VINA RESULT:    -7.355      2.781      3.837
REMARK INTER + INTRA:         -12.083
REMARK INTER:                 -10.692
REMARK INTRA:                  -1.390
REMARK UNBOUND:                -1.073
REMARK  Name = 
REMARK  9 active torsions:
REMARK  status: ('A' for Active; 'I' for Inactive)
REMARK    1  A    between atoms: N_1  and  C_2
REMARK    2  A    between atoms: C_2  and  C_3
REMARK    3  A    between atoms: C_3  and  C_4
REMARK    4  A    between atoms: C_4  and  N_5
REMARK    5  A    between atoms: C_4  and  C_18
REMARK    6  A    between atoms: C_6  and  C_8
REMARK    7  A    between atoms: C_21  and  O_22
REMARK    8  A    between atoms: O_22  and  C_23
REMARK    9  A    between atoms: C_23  and  C_24
REMARK                            x       y       z     vdW  Elec       q    Type
REMARK                         _______ _______ _______ _____ _____    ______ ____
ROOT
ATOM      1  C   UNL     1      48.435   6.620  13.897  0.00  0.00    +0.000 C 
ENDROOT
BRANCH   1   2
ATOM      2  C   UNL     1      47.233   5.905  13.294  0.00  0.00    +0.000 A 
ATOM      3  C   UNL     1      46.371   6.550  12.395  0.00  0.00    +0.000 A 
ATOM      4  C   UNL     1      45.311   5.850  11.807  0.00  0.00    +0.000 A 
ATOM      5  C   UNL     1      45.110   4.498  12.093  0.00  0.00    +0.000 A 
ATOM      6  C   UNL     1      45.921   3.870  13.035  0.00  0.00    +0.000 A 
ATOM      7  C   UNL     1      46.983   4.560  13.615  0.00  0.00    +0.000 A 
BRANCH   5   8
ATOM      8  O   UNL     1      44.110   3.873  11.393  0.00  0.00    +0.000 OA
BRANCH   8   9
ATOM      9  C   UNL     1      43.993   4.301  10.028  0.00  0.00    +0.000 C 
BRANCH   9  10
ATOM     10  C   UNL     1      44.977   3.602   9.121  0.00  0.00    +0.000 A 
ATOM     11  C   UNL     1      45.683   4.295   8.141  0.00  0.00    +0.000 A 
ATOM     12  C   UNL     1      46.553   3.588   7.315  0.00  0.00    +0.000 A 
ATOM     13  C   UNL     1      46.685   2.215   7.478  0.00  0.00    +0.000 A 
ATOM     14  C   UNL     1      45.935   1.597   8.462  0.00  0.00    +0.000 A 
ATOM     15  N   UNL     1      45.087   2.256   9.278  0.00  0.00    +0.000 NA
ENDBRANCH   9  10
ENDBRANCH   8   9
ENDBRANCH   5   8
ENDBRANCH   1   2
BRANCH   1  16
ATOM     16  N   UNL     1      48.140   6.877  15.303  0.00  0.00    +0.000 N 
ATOM     17  C   UNL     1      48.913   6.447  16.348  0.00  0.00    +0.000 C 
ATOM     18  O   UNL     1      49.972   5.853  16.202  0.00  0.00    +0.000 OA
ATOM     19  H   UNL     1      47.173   7.116  15.501  0.00  0.00    +0.000 HD
BRANCH  17  20
ATOM     20  C   UNL     1      48.417   6.801  17.684  0.00  0.00    +0.000 A 
ATOM     21  C   UNL     1      48.221   5.813  18.641  0.00  0.00    +0.000 A 
ATOM     22  S   UNL     1      47.641   6.415  20.130  0.00  0.00    +0.000 S 
ATOM     23  C   UNL     1      47.590   8.007  19.530  0.00  0.00    +0.000 A 
ATOM     24  N   UNL     1      47.132   9.035  20.295  0.00  0.00    +0.000 NA
ATOM     25  C   UNL     1      47.119  10.180  19.699  0.00  0.00    +0.000 A 
ATOM     26  N   UNL     1      47.538  10.396  18.411  0.00  0.00    +0.000 N 
ATOM     27  C   UNL     1      48.048   9.399  17.619  0.00  0.00    +0.000 A 
ATOM     28  O   UNL     1      48.488   9.636  16.499  0.00  0.00    +0.000 OA
ATOM     29  C   UNL     1      48.046   8.083  18.228  0.00  0.00    +0.000 A 
ATOM     30  H   UNL     1      47.530  11.322  18.009  0.00  0.00    +0.000 HD
ENDBRANCH  17  20
ENDBRANCH   1  16
BRANCH   1  31
ATOM     31  C   UNL     1      48.763   7.920  13.133  0.00  0.00    +0.000 C 
BRANCH  31  32
ATOM     32  C   UNL     1      49.757   7.698  11.996  0.00  0.00    +0.000 C 
BRANCH  32  33
ATOM     33  N   UNL     1      51.120   7.891  12.486  0.00  0.00    +0.000 NA
ATOM     34  H   UNL     1      51.772   7.405  11.874  0.00  0.00    +0.000 HD
ATOM     35  H   UNL     1      51.214   7.465  13.408  0.00  0.00    +0.000 HD
ENDBRANCH  32  33
ENDBRANCH  31  32
ENDBRANCH   1  31
TORSDOF 9
ENDMDL
MODEL 7
REMARK VINA RESULT:    -7.005      3.385      7.739
REMARK INTER + INTRA:         -11.558
REMARK INTER:                  -9.819
REMARK INTRA:                  -1.740
REMARK UNBOUND:                -1.073
REMARK  Name = 
REMARK  9 active torsions:
REMARK  status: ('A' for Active; 'I' for Inactive)
REMARK    1  A    between atoms: N_1  and  C_2
REMARK    2  A    between atoms: C_2  and  C_3
REMARK    3  A    between atoms: C_3  and  C_4
REMARK    4  A    between atoms: C_4  and  N_5
REMARK    5  A    between atoms: C_4  and  C_18
REMARK    6  A    between atoms: C_6  and  C_8
REMARK    7  A    between atoms: C_21  and  O_22
REMARK    8  A    between atoms: O_22  and  C_23
REMARK    9  A    between atoms: C_23  and  C_24
REMARK                            x       y       z     vdW  Elec       q    Type
REMARK                         _______ _______ _______ _____ _____    ______ ____
ROOT
ATOM      1  C   UNL     1      47.881   7.199  13.384  0.00  0.00    +0.000 C 
ENDROOT
BRANCH   1   2
ATOM      2  C   UNL     1      48.218   6.446  14.664  0.00  0.00    +0.000 A 
ATOM      3  C   UNL     1      47.531   5.279  15.031  0.00  0.00    +0.000 A 
ATOM      4  C   UNL     1      47.904   4.571  16.180  0.00  0.00    +0.000 A 
ATOM      5  C   UNL     1      48.976   5.006  16.963  0.00  0.00    +0.000 A 
ATOM      6  C   UNL     1      49.618   6.199  16.640  0.00  0.00    +0.000 A 
ATOM      7  C   UNL     1      49.257   6.901  15.493  0.00  0.00    +0.000 A 
BRANCH   5   8
ATOM      8  O   UNL     1      49.331   4.194  18.009  0.00  0.00    +0.000 OA
BRANCH   8   9
ATOM      9  C   UNL     1      49.557   2.826  17.638  0.00  0.00    +0.000 C 
BRANCH   9  10
ATOM     10  C   UNL     1      51.015   2.443  17.721  0.00  0.00    +0.000 A 
ATOM     11  C   UNL     1      51.994   3.374  18.056  0.00  0.00    +0.000 A 
ATOM     12  C   UNL     1      53.325   2.966  18.086  0.00  0.00    +0.000 A 
ATOM     13  C   UNL     1      53.645   1.652  17.768  0.00  0.00    +0.000 A 
ATOM     14  C   UNL     1      52.615   0.793  17.426  0.00  0.00    +0.000 A 
ATOM     15  N   UNL     1      51.318   1.158  17.393  0.00  0.00    +0.000 NA
ENDBRANCH   9  10
ENDBRANCH   8   9
ENDBRANCH   5   8
ENDBRANCH   1   2
BRANCH   1  16
ATOM     16  N   UNL     1      47.205   6.269  12.486  0.00  0.00    +0.000 N 
ATOM     17  C   UNL     1      46.108   6.582  11.729  0.00  0.00    +0.000 C 
ATOM     18  O   UNL     1      45.620   7.704  11.682  0.00  0.00    +0.000 OA
ATOM     19  H   UNL     1      47.379   5.286  12.676  0.00  0.00    +0.000 HD
BRANCH  17  20
ATOM     20  C   UNL     1      45.575   5.486  10.911  0.00  0.00    +0.000 A 
ATOM     21  C   UNL     1      45.717   5.510   9.529  0.00  0.00    +0.000 A 
ATOM     22  S   UNL     1      45.035   4.152   8.751  0.00  0.00    +0.000 S 
ATOM     23  C   UNL     1      44.488   3.510  10.230  0.00  0.00    +0.000 A 
ATOM     24  N   UNL     1      43.770   2.355  10.275  0.00  0.00    +0.000 NA
ATOM     25  C   UNL     1      43.393   2.006  11.460  0.00  0.00    +0.000 A 
ATOM     26  N   UNL     1      43.683   2.698  12.608  0.00  0.00    +0.000 N 
ATOM     27  C   UNL     1      44.441   3.841  12.615  0.00  0.00    +0.000 A 
ATOM     28  O   UNL     1      44.751   4.396  13.664  0.00  0.00    +0.000 OA
ATOM     29  C   UNL     1      44.856   4.299  11.303  0.00  0.00    +0.000 A 
ATOM     30  H   UNL     1      43.385   2.358  13.510  0.00  0.00    +0.000 HD
ENDBRANCH  17  20
ENDBRANCH   1  16
BRANCH   1  31
ATOM     31  C   UNL     1      49.143   7.806  12.736  0.00  0.00    +0.000 C 
BRANCH  31  32
ATOM     32  C   UNL     1      49.054   9.323  12.585  0.00  0.00    +0.000 C 
BRANCH  32  33
ATOM     33  N   UNL     1      47.731   9.695  12.090  0.00  0.00    +0.000 NA
ATOM     34  H   UNL     1      47.262  10.276  12.782  0.00  0.00    +0.000 HD
ATOM     35  H   UNL     1      47.161   8.856  11.980  0.00  0.00    +0.000 HD
ENDBRANCH  32  33
ENDBRANCH  31  32
ENDBRANCH   1  31
TORSDOF 9
ENDMDL
MODEL 8
REMARK VINA RESULT:    -6.655      3.238      5.903
REMARK INTER + INTRA:         -11.034
REMARK INTER:                 -10.086
REMARK INTRA:                  -0.949
REMARK UNBOUND:                -1.073
REMARK  Name = 
REMARK  9 active torsions:
REMARK  status: ('A' for Active; 'I' for Inactive)
REMARK    1  A    between atoms: N_1  and  C_2
REMARK    2  A    between atoms: C_2  and  C_3
REMARK    3  A    between atoms: C_3  and  C_4
REMARK    4  A    between atoms: C_4  and  N_5
REMARK    5  A    between atoms: C_4  and  C_18
REMARK    6  A    between atoms: C_6  and  C_8
REMARK    7  A    between atoms: C_21  and  O_22
REMARK    8  A    between atoms: O_22  and  C_23
REMARK    9  A    between atoms: C_23  and  C_24
REMARK                            x       y       z     vdW  Elec       q    Type
REMARK                         _______ _______ _______ _____ _____    ______ ____
ROOT
ATOM      1  C   UNL     1      46.281   4.578  14.044  0.00  0.00    +0.000 C 
ENDROOT
BRANCH   1   2
ATOM      2  C   UNL     1      46.216   5.911  13.310  0.00  0.00    +0.000 A 
ATOM      3  C   UNL     1      44.995   6.453  12.881  0.00  0.00    +0.000 A 
ATOM      4  C   UNL     1      44.959   7.711  12.266  0.00  0.00    +0.000 A 
ATOM      5  C   UNL     1      46.132   8.447  12.089  0.00  0.00    +0.000 A 
ATOM      6  C   UNL     1      47.353   7.885  12.453  0.00  0.00    +0.000 A 
ATOM      7  C   UNL     1      47.393   6.639  13.074  0.00  0.00    +0.000 A 
BRANCH   5   8
ATOM      8  O   UNL     1      45.983   9.707  11.570  0.00  0.00    +0.000 OA
BRANCH   8   9
ATOM      9  C   UNL     1      44.809  10.395  12.028  0.00  0.00    +0.000 C 
BRANCH   9  10
ATOM     10  C   UNL     1      43.895  10.787  10.892  0.00  0.00    +0.000 A 
ATOM     11  C   UNL     1      42.511  10.682  11.002  0.00  0.00    +0.000 A 
ATOM     12  C   UNL     1      41.723  11.030   9.909  0.00  0.00    +0.000 A 
ATOM     13  C   UNL     1      42.332  11.457   8.736  0.00  0.00    +0.000 A 
ATOM     14  C   UNL     1      43.713  11.516   8.700  0.00  0.00    +0.000 A 
ATOM     15  N   UNL     1      44.502  11.189   9.743  0.00  0.00    +0.000 NA
ENDBRANCH   9  10
ENDBRANCH   8   9
ENDBRANCH   5   8
ENDBRANCH   1   2
BRANCH   1  16
ATOM     16  N   UNL     1      47.388   4.646  14.992  0.00  0.00    +0.000 N 
ATOM     17  C   UNL     1      47.339   4.169  16.275  0.00  0.00    +0.000 C 
ATOM     18  O   UNL     1      46.374   3.576  16.736  0.00  0.00    +0.000 OA
ATOM     19  H   UNL     1      48.094   5.343  14.776  0.00  0.00    +0.000 HD
BRANCH  17  20
ATOM     20  C   UNL     1      48.563   4.362  17.064  0.00  0.00    +0.000 A 
ATOM     21  C   UNL     1      48.768   5.549  17.757  0.00  0.00    +0.000 A 
ATOM     22  S   UNL     1      50.243   5.589  18.615  0.00  0.00    +0.000 S 
ATOM     23  C   UNL     1      50.677   4.042  18.051  0.00  0.00    +0.000 A 
ATOM     24  N   UNL     1      51.873   3.482  18.379  0.00  0.00    +0.000 NA
ATOM     25  C   UNL     1      52.081   2.321  17.853  0.00  0.00    +0.000 A 
ATOM     26  N   UNL     1      51.194   1.660  17.042  0.00  0.00    +0.000 N 
ATOM     27  C   UNL     1      49.960   2.166  16.722  0.00  0.00    +0.000 A 
ATOM     28  O   UNL     1      49.156   1.519  16.059  0.00  0.00    +0.000 OA
ATOM     29  C   UNL     1      49.693   3.488  17.255  0.00  0.00    +0.000 A 
ATOM     30  H   UNL     1      51.402   0.740  16.684  0.00  0.00    +0.000 HD
ENDBRANCH  17  20
ENDBRANCH   1  16
BRANCH   1  31
ATOM     31  C   UNL     1      46.440   3.398  13.062  0.00  0.00    +0.000 C 
BRANCH  31  32
ATOM     32  C   UNL     1      45.272   3.287  12.084  0.00  0.00    +0.000 C 
BRANCH  32  33
ATOM     33  N   UNL     1      44.077   2.833  12.790  0.00  0.00    +0.000 NA
ATOM     34  H   UNL     1      44.105   3.164  13.752  0.00  0.00    +0.000 HD
ATOM     35  H   UNL     1      44.073   1.814  12.833  0.00  0.00    +0.000 HD
ENDBRANCH  32  33
ENDBRANCH  31  32
ENDBRANCH   1  31
TORSDOF 9
ENDMDL
MODEL 9
REMARK VINA RESULT:    -6.564      2.787      7.664
REMARK INTER + INTRA:         -10.898
REMARK INTER:                  -9.327
REMARK INTRA:                  -1.571
REMARK UNBOUND:                -1.073
REMARK  Name = 
REMARK  9 active torsions:
REMARK  status: ('A' for Active; 'I' for Inactive)
REMARK    1  A    between atoms: N_1  and  C_2
REMARK    2  A    between atoms: C_2  and  C_3
REMARK    3  A    between atoms: C_3  and  C_4
REMARK    4  A    between atoms: C_4  and  N_5
REMARK    5  A    between atoms: C_4  and  C_18
REMARK    6  A    between atoms: C_6  and  C_8
REMARK    7  A    between atoms: C_21  and  O_22
REMARK    8  A    between atoms: O_22  and  C_23
REMARK    9  A    between atoms: C_23  and  C_24
REMARK                            x       y       z     vdW  Elec       q    Type
REMARK                         _______ _______ _______ _____ _____    ______ ____
ROOT
ATOM      1  C   UNL     1      47.657   8.352  12.922  0.00  0.00    +0.000 C 
ENDROOT
BRANCH   1   2
ATOM      2  C   UNL     1      48.431   8.119  14.213  0.00  0.00    +0.000 A 
ATOM      3  C   UNL     1      48.029   8.703  15.424  0.00  0.00    +0.000 A 
ATOM      4  C   UNL     1      48.721   8.420  16.608  0.00  0.00    +0.000 A 
ATOM      5  C   UNL     1      49.807   7.542  16.601  0.00  0.00    +0.000 A 
ATOM      6  C   UNL     1      50.250   7.012  15.391  0.00  0.00    +0.000 A 
ATOM      7  C   UNL     1      49.558   7.282  14.213  0.00  0.00    +0.000 A 
BRANCH   5   8
ATOM      8  O   UNL     1      50.357   7.250  17.822  0.00  0.00    +0.000 OA
BRANCH   8   9
ATOM      9  C   UNL     1      49.468   6.565  18.717  0.00  0.00    +0.000 C 
BRANCH   9  10
ATOM     10  C   UNL     1      49.023   5.228  18.173  0.00  0.00    +0.000 A 
ATOM     11  C   UNL     1      49.938   4.218  17.888  0.00  0.00    +0.000 A 
ATOM     12  C   UNL     1      49.470   3.019  17.359  0.00  0.00    +0.000 A 
ATOM     13  C   UNL     1      48.111   2.863  17.116  0.00  0.00    +0.000 A 
ATOM     14  C   UNL     1      47.269   3.921  17.409  0.00  0.00    +0.000 A 
ATOM     15  N   UNL     1      47.694   5.093  17.924  0.00  0.00    +0.000 NA
ENDBRANCH   9  10
ENDBRANCH   8   9
ENDBRANCH   5   8
ENDBRANCH   1   2
BRANCH   1  16
ATOM     16  N   UNL     1      46.800   7.191  12.703  0.00  0.00    +0.000 N 
ATOM     17  C   UNL     1      45.623   7.219  12.003  0.00  0.00    +0.000 C 
ATOM     18  O   UNL     1      45.202   8.216  11.432  0.00  0.00    +0.000 OA
ATOM     19  H   UNL     1      46.941   6.425  13.354  0.00  0.00    +0.000 HD
BRANCH  17  20
ATOM     20  C   UNL     1      44.908   5.939  11.924  0.00  0.00    +0.000 A 
ATOM     21  C   UNL     1      44.139   5.500  12.995  0.00  0.00    +0.000 A 
ATOM     22  S   UNL     1      43.386   3.993  12.719  0.00  0.00    +0.000 S 
ATOM     23  C   UNL     1      44.099   3.856  11.179  0.00  0.00    +0.000 A 
ATOM     24  N   UNL     1      43.901   2.754  10.405  0.00  0.00    +0.000 NA
ATOM     25  C   UNL     1      44.530   2.773   9.278  0.00  0.00    +0.000 A 
ATOM     26  N   UNL     1      45.327   3.801   8.844  0.00  0.00    +0.000 N 
ATOM     27  C   UNL     1      45.519   4.950   9.570  0.00  0.00    +0.000 A 
ATOM     28  O   UNL     1      46.173   5.886   9.123  0.00  0.00    +0.000 OA
ATOM     29  C   UNL     1      44.866   4.962  10.865  0.00  0.00    +0.000 A 
ATOM     30  H   UNL     1      45.770   3.771   7.938  0.00  0.00    +0.000 HD
ENDBRANCH  17  20
ENDBRANCH   1  16
BRANCH   1  31
ATOM     31  C   UNL     1      48.605   8.596  11.729  0.00  0.00    +0.000 C 
BRANCH  31  32
ATOM     32  C   UNL     1      48.699  10.071  11.346  0.00  0.00    +0.000 C 
BRANCH  32  33
ATOM     33  N   UNL     1      47.385  10.698  11.466  0.00  0.00    +0.000 NA
ATOM     34  H   UNL     1      46.784  10.372  10.712  0.00  0.00    +0.000 HD
ATOM     35  H   UNL     1      47.477  11.707  11.349  0.00  0.00    +0.000 HD
ENDBRANCH  32  33
ENDBRANCH  31  32
ENDBRANCH   1  31
TORSDOF 9
ENDMDL
