MODEL 1
REMARK VINA RESULT:    -8.343      0.000      0.000
REMARK INTER + INTRA:         -13.338
REMARK INTER:                 -12.244
REMARK INTRA:                  -1.094
REMARK UNBOUND:                -1.094
REMARK  Name = 
REMARK  9 active torsions:
REMARK  status: ('A' for Active; 'I' for Inactive)
REMARK    1  A    between atoms: C_1  and  O_2
REMARK    2  A    between atoms: O_2  and  C_3
REMARK    3  A    between atoms: C_10  and  C_11
REMARK    4  A    between atoms: N_13  and  C_14
REMARK    5  A    between atoms: C_14  and  C_15
REMARK    6  A    between atoms: C_18  and  C_19
REMARK    7  A    between atoms: C_19  and  N_20
REMARK    8  A    between atoms: N_20  and  C_21
REMARK    9  A    between atoms: C_21  and  C_22
REMARK                            x       y       z     vdW  Elec       q    Type
REMARK                         _______ _______ _______ _____ _____    ______ ____
ROOT
ATOM      1  C   UNL     1      48.066   6.699  13.307  0.00  0.00    +0.000 C 
ENDROOT
BRANCH   1   2
ATOM      2  C   UNL     1      46.908   5.944  12.720  0.00  0.00    +0.000 A 
ATOM      3  C   UNL     1      46.386   6.261  11.465  0.00  0.00    +0.000 A 
ATOM      4  C   UNL     1      45.322   5.520  10.948  0.00  0.00    +0.000 A 
ATOM      5  C   UNL     1      44.789   4.483  11.711  0.00  0.00    +0.000 A 
ATOM      6  N   UNL     1      45.252   4.186  12.952  0.00  0.00    +0.000 NA
ATOM      7  C   UNL     1      46.293   4.913  13.421  0.00  0.00    +0.000 A 
BRANCH   5   8
ATOM      8  C   UNL     1      43.638   3.649  11.173  0.00  0.00    +0.000 C 
BRANCH   8   9
ATOM      9  N   UNL     1      43.753   3.301   9.749  0.00  0.00    +0.000 NA
ATOM     10  H   UNL     1      44.237   4.075   9.290  0.00  0.00    +0.000 HD
BRANCH   9  11
ATOM     11  C   UNL     1      44.534   2.084   9.547  0.00  0.00    +0.000 C 
BRANCH  11  12
ATOM     12  C   UNL     1      45.555   2.255   8.447  0.00  0.00    +0.000 A 
ATOM     13  C   UNL     1      45.692   3.481   7.779  0.00  0.00    +0.000 A 
ATOM     14  C   UNL     1      46.654   3.640   6.779  0.00  0.00    +0.000 A 
ATOM     15  C   UNL     1      47.484   2.573   6.431  0.00  0.00    +0.000 A 
ATOM     16  C   UNL     1      47.344   1.346   7.076  0.00  0.00    +0.000 A 
ATOM     17  C   UNL     1      46.381   1.185   8.073  0.00  0.00    +0.000 A 
ENDBRANCH  11  12
ENDBRANCH   9  11
ENDBRANCH   8   9
ENDBRANCH   5   8
ENDBRANCH   1   2
BRANCH   1  20
ATOM     18  C   UNL     1      49.082   6.878  15.538  0.00  0.00    +0.000 C 
ATOM     19  O   UNL     1      50.212   6.906  15.055  0.00  0.00    +0.000 OA
ATOM     20  N   UNL     1      47.976   6.771  14.742  0.00  0.00    +0.000 N 
ATOM     21  H   UNL     1      47.062   6.663  15.166  0.00  0.00    +0.000 HD
BRANCH  18  29
ATOM     22  C   UNL     1      49.097   4.559  18.090  0.00  0.00    +0.000 A 
ATOM     23  N   UNL     1      48.955   3.874  19.241  0.00  0.00    +0.000 NA
ATOM     24  C   UNL     1      48.606   4.545  20.341  0.00  0.00    +0.000 A 
ATOM     25  N   UNL     1      48.380   5.850  20.438  0.00  0.00    +0.000 NA
ATOM     26  C   UNL     1      48.519   6.500  19.269  0.00  0.00    +0.000 A 
ATOM     27  S   UNL     1      48.285   8.179  19.215  0.00  0.00    +0.000 S 
ATOM     28  C   UNL     1      48.589   8.217  17.543  0.00  0.00    +0.000 A 
ATOM     29  C   UNL     1      48.863   6.970  16.992  0.00  0.00    +0.000 A 
ATOM     30  C   UNL     1      48.855   5.947  18.037  0.00  0.00    +0.000 A 
BRANCH  22  32
ATOM     31  C   UNL     1      49.221   2.476  17.021  0.00  0.00    +0.000 C 
ATOM     32  O   UNL     1      49.508   3.872  16.967  0.00  0.00    +0.000 OA
ENDBRANCH  22  32
ENDBRANCH  18  29
ENDBRANCH   1  20
TORSDOF 8
ENDMDL
MODEL 2
REMARK VINA RESULT:    -8.113      1.704      2.738
REMARK INTER + INTRA:         -13.001
REMARK INTER:                 -11.849
REMARK INTRA:                  -1.152
REMARK UNBOUND:                -1.094
REMARK  Name = 
REMARK  9 active torsions:
REMARK  status: ('A' for Active; 'I' for Inactive)
REMARK    1  A    between atoms: C_1  and  O_2
REMARK    2  A    between atoms: O_2  and  C_3
REMARK    3  A    between atoms: C_10  and  C_11
REMARK    4  A    between atoms: N_13  and  C_14
REMARK    5  A    between atoms: C_14  and  C_15
REMARK    6  A    between atoms: C_18  and  C_19
REMARK    7  A    between atoms: C_19  and  N_20
REMARK    8  A    between atoms: N_20  and  C_21
REMARK    9  A    between atoms: C_21  and  C_22
REMARK                            x       y       z     vdW  Elec       q    Type
REMARK                         _______ _______ _______ _____ _____    ______ ____
ROOT
ATOM      1  C   UNL     1      48.316   6.679  14.249  0.00  0.00    +0.000 C 
ENDROOT
BRANCH   1   2
ATOM      2  C   UNL     1      47.275   5.859  13.544  0.00  0.00    +0.000 A 
ATOM      3  C   UNL     1      46.733   6.255  12.320  0.00  0.00    +0.000 A 
ATOM      4  C   UNL     1      45.782   5.453  11.689  0.00  0.00    +0.000 A 
ATOM      5  C   UNL     1      45.376   4.274  12.309  0.00  0.00    +0.000 A 
ATOM      6  N   UNL     1      45.855   3.891  13.521  0.00  0.00    +0.000 NA
ATOM      7  C   UNL     1      46.787   4.683  14.102  0.00  0.00    +0.000 A 
BRANCH   5   8
ATOM      8  C   UNL     1      44.350   3.371  11.644  0.00  0.00    +0.000 C 
BRANCH   8   9
ATOM      9  N   UNL     1      44.893   2.517  10.578  0.00  0.00    +0.000 NA
ATOM     10  H   UNL     1      44.499   1.583  10.713  0.00  0.00    +0.000 HD
BRANCH   9  11
ATOM     11  C   UNL     1      44.510   2.991   9.251  0.00  0.00    +0.000 C 
BRANCH  11  12
ATOM     12  C   UNL     1      45.550   2.641   8.213  0.00  0.00    +0.000 A 
ATOM     13  C   UNL     1      45.938   3.575   7.242  0.00  0.00    +0.000 A 
ATOM     14  C   UNL     1      46.917   3.253   6.299  0.00  0.00    +0.000 A 
ATOM     15  C   UNL     1      47.512   1.991   6.313  0.00  0.00    +0.000 A 
ATOM     16  C   UNL     1      47.120   1.049   7.261  0.00  0.00    +0.000 A 
ATOM     17  C   UNL     1      46.140   1.369   8.201  0.00  0.00    +0.000 A 
ENDBRANCH  11  12
ENDBRANCH   9  11
ENDBRANCH   8   9
ENDBRANCH   5   8
ENDBRANCH   1   2
BRANCH   1  20
ATOM     18  C   UNL     1      48.941   6.314  16.598  0.00  0.00    +0.000 C 
ATOM     19  O   UNL     1      50.008   5.801  16.268  0.00  0.00    +0.000 OA
ATOM     20  N   UNL     1      48.053   6.765  15.663  0.00  0.00    +0.000 N 
ATOM     21  H   UNL     1      47.144   7.105  15.956  0.00  0.00    +0.000 HD
BRANCH  18  29
ATOM     22  C   UNL     1      47.736   8.969  18.441  0.00  0.00    +0.000 A 
ATOM     23  N   UNL     1      47.358   9.837  19.399  0.00  0.00    +0.000 NA
ATOM     24  C   UNL     1      47.293   9.402  20.660  0.00  0.00    +0.000 A 
ATOM     25  N   UNL     1      47.563   8.176  21.093  0.00  0.00    +0.000 NA
ATOM     26  C   UNL     1      47.949   7.340  20.112  0.00  0.00    +0.000 A 
ATOM     27  S   UNL     1      48.314   5.726  20.486  0.00  0.00    +0.000 S 
ATOM     28  C   UNL     1      48.701   5.388  18.866  0.00  0.00    +0.000 A 
ATOM     29  C   UNL     1      48.572   6.480  18.016  0.00  0.00    +0.000 A 
ATOM     30  C   UNL     1      48.086   7.641  18.760  0.00  0.00    +0.000 A 
BRANCH  22  32
ATOM     31  C   UNL     1      48.941  10.114  16.786  0.00  0.00    +0.000 C 
ATOM     32  O   UNL     1      47.752   9.407  17.132  0.00  0.00    +0.000 OA
ENDBRANCH  22  32
ENDBRANCH  18  29
ENDBRANCH   1  20
TORSDOF 8
ENDMDL
MODEL 3
REMARK VINA RESULT:    -7.920      1.811      2.569
REMARK INTER + INTRA:         -12.718
REMARK INTER:                 -11.675
REMARK INTRA:                  -1.044
REMARK UNBOUND:                -1.094
REMARK  Name = 
REMARK  9 active torsions:
REMARK  status: ('A' for Active; 'I' for Inactive)
REMARK    1  A    between atoms: C_1  and  O_2
REMARK    2  A    between atoms: O_2  and  C_3
REMARK    3  A    between atoms: C_10  and  C_11
REMARK    4  A    between atoms: N_13  and  C_14
REMARK    5  A    between atoms: C_14  and  C_15
REMARK    6  A    between atoms: C_18  and  C_19
REMARK    7  A    between atoms: C_19  and  N_20
REMARK    8  A    between atoms: N_20  and  C_21
REMARK    9  A    between atoms: C_21  and  C_22
REMARK                            x       y       z     vdW  Elec       q    Type
REMARK                         _______ _______ _______ _____ _____    ______ ____
ROOT
ATOM      1  C   UNL     1      47.433   3.262  14.953  0.00  0.00    +0.000 C 
ENDROOT
BRANCH   1   2
ATOM      2  C   UNL     1      46.805   3.920  13.758  0.00  0.00    +0.000 A 
ATOM      3  C   UNL     1      45.891   3.248  12.946  0.00  0.00    +0.000 A 
ATOM      4  C   UNL     1      45.315   3.904  11.858  0.00  0.00    +0.000 A 
ATOM      5  C   UNL     1      45.683   5.222  11.593  0.00  0.00    +0.000 A 
ATOM      6  N   UNL     1      46.604   5.880  12.343  0.00  0.00    +0.000 NA
ATOM      7  C   UNL     1      47.134   5.223  13.400  0.00  0.00    +0.000 A 
BRANCH   5   8
ATOM      8  C   UNL     1      45.067   5.970  10.422  0.00  0.00    +0.000 C 
BRANCH   8   9
ATOM      9  N   UNL     1      45.488   5.483   9.100  0.00  0.00    +0.000 NA
ATOM     10  H   UNL     1      46.483   5.258   9.167  0.00  0.00    +0.000 HD
BRANCH   9  11
ATOM     11  C   UNL     1      44.768   4.275   8.708  0.00  0.00    +0.000 C 
BRANCH  11  12
ATOM     12  C   UNL     1      45.695   3.243   8.112  0.00  0.00    +0.000 A 
ATOM     13  C   UNL     1      45.638   1.903   8.524  0.00  0.00    +0.000 A 
ATOM     14  C   UNL     1      46.483   0.949   7.952  0.00  0.00    +0.000 A 
ATOM     15  C   UNL     1      47.398   1.325   6.970  0.00  0.00    +0.000 A 
ATOM     16  C   UNL     1      47.477   2.657   6.566  0.00  0.00    +0.000 A 
ATOM     17  C   UNL     1      46.635   3.612   7.139  0.00  0.00    +0.000 A 
ENDBRANCH  11  12
ENDBRANCH   9  11
ENDBRANCH   8   9
ENDBRANCH   5   8
ENDBRANCH   1   2
BRANCH   1  20
ATOM     18  C   UNL     1      47.362   4.158  17.240  0.00  0.00    +0.000 C 
ATOM     19  O   UNL     1      46.601   3.262  17.601  0.00  0.00    +0.000 OA
ATOM     20  N   UNL     1      47.811   4.228  15.951  0.00  0.00    +0.000 N 
ATOM     21  H   UNL     1      48.367   5.022  15.656  0.00  0.00    +0.000 HD
BRANCH  18  29
ATOM     22  C   UNL     1      50.493   5.320  18.100  0.00  0.00    +0.000 A 
ATOM     23  N   UNL     1      51.568   5.889  18.680  0.00  0.00    +0.000 NA
ATOM     24  C   UNL     1      51.367   6.780  19.653  0.00  0.00    +0.000 A 
ATOM     25  N   UNL     1      50.197   7.187  20.130  0.00  0.00    +0.000 NA
ATOM     26  C   UNL     1      49.147   6.590  19.538  0.00  0.00    +0.000 A 
ATOM     27  S   UNL     1      47.573   7.008  20.012  0.00  0.00    +0.000 S 
ATOM     28  C   UNL     1      46.896   5.899  18.916  0.00  0.00    +0.000 A 
ATOM     29  C   UNL     1      47.838   5.190  18.179  0.00  0.00    +0.000 A 
ATOM     30  C   UNL     1      49.187   5.632  18.529  0.00  0.00    +0.000 A 
BRANCH  22  32
ATOM     31  C   UNL     1      50.935   3.100  17.490  0.00  0.00    +0.000 C 
ATOM     32  O   UNL     1      50.701   4.439  17.059  0.00  0.00    +0.000 OA
ENDBRANCH  22  32
ENDBRANCH  18  29
ENDBRANCH   1  20
TORSDOF 8
ENDMDL
MODEL 4
REMARK VINA RESULT:    -7.503      1.749      3.164
REMARK INTER + INTRA:         -12.105
REMARK INTER:                 -11.025
REMARK INTRA:                  -1.080
REMARK UNBOUND:                -1.094
REMARK  Name = 
REMARK  9 active torsions:
REMARK  status: ('A' for Active; 'I' for Inactive)
REMARK    1  A    between atoms: C_1  and  O_2
REMARK    2  A    between atoms: O_2  and  C_3
REMARK    3  A    between atoms: C_10  and  C_11
REMARK    4  A    between atoms: N_13  and  C_14
REMARK    5  A    between atoms: C_14  and  C_15
REMARK    6  A    between atoms: C_18  and  C_19
REMARK    7  A    between atoms: C_19  and  N_20
REMARK    8  A    between atoms: N_20  and  C_21
REMARK    9  A    between atoms: C_21  and  C_22
REMARK                            x       y       z     vdW  Elec       q    Type
REMARK                         _______ _______ _______ _____ _____    ______ ____
ROOT
ATOM      1  C   UNL     1      47.479   4.211  15.265  0.00  0.00    +0.000 C 
ENDROOT
BRANCH   1   2
ATOM      2  C   UNL     1      46.875   4.710  13.984  0.00  0.00    +0.000 A 
ATOM      3  C   UNL     1      47.365   5.843  13.333  0.00  0.00    +0.000 A 
ATOM      4  C   UNL     1      46.786   6.259  12.134  0.00  0.00    +0.000 A 
ATOM      5  C   UNL     1      45.711   5.539  11.617  0.00  0.00    +0.000 A 
ATOM      6  N   UNL     1      45.190   4.461  12.255  0.00  0.00    +0.000 NA
ATOM      7  C   UNL     1      45.780   4.072  13.410  0.00  0.00    +0.000 A 
BRANCH   5   8
ATOM      8  C   UNL     1      45.066   5.959  10.307  0.00  0.00    +0.000 C 
BRANCH   8   9
ATOM      9  N   UNL     1      45.664   5.348   9.111  0.00  0.00    +0.000 NA
ATOM     10  H   UNL     1      46.605   5.042   9.370  0.00  0.00    +0.000 HD
BRANCH   9  11
ATOM     11  C   UNL     1      44.909   4.184   8.657  0.00  0.00    +0.000 C 
BRANCH  11  12
ATOM     12  C   UNL     1      45.807   3.159   8.004  0.00  0.00    +0.000 A 
ATOM     13  C   UNL     1      45.808   1.825   8.438  0.00  0.00    +0.000 A 
ATOM     14  C   UNL     1      46.623   0.877   7.815  0.00  0.00    +0.000 A 
ATOM     15  C   UNL     1      47.451   1.254   6.758  0.00  0.00    +0.000 A 
ATOM     16  C   UNL     1      47.472   2.580   6.331  0.00  0.00    +0.000 A 
ATOM     17  C   UNL     1      46.661   3.529   6.955  0.00  0.00    +0.000 A 
ENDBRANCH  11  12
ENDBRANCH   9  11
ENDBRANCH   8   9
ENDBRANCH   5   8
ENDBRANCH   1   2
BRANCH   1  20
ATOM     18  C   UNL     1      48.539   5.493  17.074  0.00  0.00    +0.000 C 
ATOM     19  O   UNL     1      49.590   4.868  16.943  0.00  0.00    +0.000 OA
ATOM     20  N   UNL     1      47.453   5.223  16.289  0.00  0.00    +0.000 N 
ATOM     21  H   UNL     1      46.573   5.690  16.473  0.00  0.00    +0.000 HD
BRANCH  18  29
ATOM     22  C   UNL     1      48.336   8.928  16.846  0.00  0.00    +0.000 A 
ATOM     23  N   UNL     1      48.327  10.258  17.056  0.00  0.00    +0.000 NA
ATOM     24  C   UNL     1      48.296  10.703  18.315  0.00  0.00    +0.000 A 
ATOM     25  N   UNL     1      48.270   9.964  19.418  0.00  0.00    +0.000 NA
ATOM     26  C   UNL     1      48.293   8.643  19.172  0.00  0.00    +0.000 A 
ATOM     27  S   UNL     1      48.244   7.551  20.469  0.00  0.00    +0.000 S 
ATOM     28  C   UNL     1      48.327   6.220  19.416  0.00  0.00    +0.000 A 
ATOM     29  C   UNL     1      48.402   6.569  18.073  0.00  0.00    +0.000 A 
ATOM     30  C   UNL     1      48.344   8.023  17.927  0.00  0.00    +0.000 A 
BRANCH  22  32
ATOM     31  C   UNL     1      49.610   8.381  14.955  0.00  0.00    +0.000 C 
ATOM     32  O   UNL     1      48.315   8.471  15.545  0.00  0.00    +0.000 OA
ENDBRANCH  22  32
ENDBRANCH  18  29
ENDBRANCH   1  20
TORSDOF 8
ENDMDL
MODEL 5
REMARK VINA RESULT:    -7.471      1.636      2.248
REMARK INTER + INTRA:         -12.059
REMARK INTER:                 -11.254
REMARK INTRA:                  -0.805
REMARK UNBOUND:                -1.094
REMARK  Name = 
REMARK  9 active torsions:
REMARK  status: ('A' for Active; 'I' for Inactive)
REMARK    1  A    between atoms: C_1  and  O_2
REMARK    2  A    between atoms: O_2  and  C_3
REMARK    3  A    between atoms: C_10  and  C_11
REMARK    4  A    between atoms: N_13  and  C_14
REMARK    5  A    between atoms: C_14  and  C_15
REMARK    6  A    between atoms: C_18  and  C_19
REMARK    7  A    between atoms: C_19  and  N_20
REMARK    8  A    between atoms: N_20  and  C_21
REMARK    9  A    between atoms: C_21  and  C_22
REMARK                            x       y       z     vdW  Elec       q    Type
REMARK                         _______ _______ _______ _____ _____    ______ ____
ROOT
ATOM      1  C   UNL     1      47.981   5.387  14.124  0.00  0.00    +0.000 C 
ENDROOT
BRANCH   1   2
ATOM      2  C   UNL     1      46.828   5.344  13.164  0.00  0.00    +0.000 A 
ATOM      3  C   UNL     1      46.696   6.276  12.133  0.00  0.00    +0.000 A 
ATOM      4  C   UNL     1      45.620   6.187  11.250  0.00  0.00    +0.000 A 
ATOM      5  C   UNL     1      44.682   5.173  11.430  0.00  0.00    +0.000 A 
ATOM      6  N   UNL     1      44.765   4.283  12.452  0.00  0.00    +0.000 NA
ATOM      7  C   UNL     1      45.828   4.386  13.284  0.00  0.00    +0.000 A 
BRANCH   5   8
ATOM      8  C   UNL     1      43.503   5.040  10.480  0.00  0.00    +0.000 C 
BRANCH   8   9
ATOM      9  N   UNL     1      43.823   4.389   9.201  0.00  0.00    +0.000 NA
ATOM     10  H   UNL     1      44.554   4.948   8.755  0.00  0.00    +0.000 HD
BRANCH   9  11
ATOM     11  C   UNL     1      44.333   3.034   9.391  0.00  0.00    +0.000 C 
BRANCH  11  12
ATOM     12  C   UNL     1      45.406   2.696   8.384  0.00  0.00    +0.000 A 
ATOM     13  C   UNL     1      46.025   1.437   8.389  0.00  0.00    +0.000 A 
ATOM     14  C   UNL     1      47.001   1.123   7.440  0.00  0.00    +0.000 A 
ATOM     15  C   UNL     1      47.374   2.066   6.482  0.00  0.00    +0.000 A 
ATOM     16  C   UNL     1      46.779   3.326   6.480  0.00  0.00    +0.000 A 
ATOM     17  C   UNL     1      45.806   3.642   7.430  0.00  0.00    +0.000 A 
ENDBRANCH  11  12
ENDBRANCH   9  11
ENDBRANCH   8   9
ENDBRANCH   5   8
ENDBRANCH   1   2
BRANCH   1  20
ATOM     18  C   UNL     1      48.864   6.821  15.915  0.00  0.00    +0.000 C 
ATOM     19  O   UNL     1      49.900   6.162  15.975  0.00  0.00    +0.000 OA
ATOM     20  N   UNL     1      47.870   6.499  15.034  0.00  0.00    +0.000 N 
ATOM     21  H   UNL     1      46.992   7.003  15.062  0.00  0.00    +0.000 HD
BRANCH  18  29
ATOM     22  C   UNL     1      48.079   7.200  19.251  0.00  0.00    +0.000 A 
ATOM     23  N   UNL     1      47.697   7.634  20.468  0.00  0.00    +0.000 NA
ATOM     24  C   UNL     1      47.550   8.947  20.658  0.00  0.00    +0.000 A 
ATOM     25  N   UNL     1      47.745   9.906  19.761  0.00  0.00    +0.000 NA
ATOM     26  C   UNL     1      48.113   9.438  18.555  0.00  0.00    +0.000 A 
ATOM     27  S   UNL     1      48.424  10.530  17.295  0.00  0.00    +0.000 S 
ATOM     28  C   UNL     1      48.767   9.262  16.216  0.00  0.00    +0.000 A 
ATOM     29  C   UNL     1      48.647   7.996  16.778  0.00  0.00    +0.000 A 
ATOM     30  C   UNL     1      48.290   8.106  18.192  0.00  0.00    +0.000 A 
BRANCH  22  32
ATOM     31  C   UNL     1      47.150   5.174  18.524  0.00  0.00    +0.000 C 
ATOM     32  O   UNL     1      48.281   5.847  19.073  0.00  0.00    +0.000 OA
ENDBRANCH  22  32
ENDBRANCH  18  29
ENDBRANCH   1  20
TORSDOF 8
ENDMDL
MODEL 6
REMARK VINA RESULT:    -7.306      2.222      3.149
REMARK INTER + INTRA:         -11.818
REMARK INTER:                 -10.843
REMARK INTRA:                  -0.975
REMARK UNBOUND:                -1.094
REMARK  Name = 
REMARK  9 active torsions:
REMARK  status: ('A' for Active; 'I' for Inactive)
REMARK    1  A    between atoms: C_1  and  O_2
REMARK    2  A    between atoms: O_2  and  C_3
REMARK    3  A    between atoms: C_10  and  C_11
REMARK    4  A    between atoms: N_13  and  C_14
REMARK    5  A    between atoms: C_14  and  C_15
REMARK    6  A    between atoms: C_18  and  C_19
REMARK    7  A    between atoms: C_19  and  N_20
REMARK    8  A    between atoms: N_20  and  C_21
REMARK    9  A    between atoms: C_21  and  C_22
REMARK                            x       y       z     vdW  Elec       q    Type
REMARK                         _______ _______ _______ _____ _____    ______ ____
ROOT
ATOM      1  C   UNL     1      48.606   7.701  15.265  0.00  0.00    +0.000 C 
ENDROOT
BRANCH   1   2
ATOM      2  C   UNL     1      47.920   7.175  14.038  0.00  0.00    +0.000 A 
ATOM      3  C   UNL     1      47.243   5.955  14.040  0.00  0.00    +0.000 A 
ATOM      4  C   UNL     1      46.602   5.514  12.883  0.00  0.00    +0.000 A 
ATOM      5  C   UNL     1      46.667   6.299  11.734  0.00  0.00    +0.000 A 
ATOM      6  N   UNL     1      47.357   7.468  11.695  0.00  0.00    +0.000 NA
ATOM      7  C   UNL     1      47.958   7.877  12.838  0.00  0.00    +0.000 A 
BRANCH   5   8
ATOM      8  C   UNL     1      45.971   5.854  10.459  0.00  0.00    +0.000 C 
BRANCH   8   9
ATOM      9  N   UNL     1      45.262   4.570  10.570  0.00  0.00    +0.000 NA
ATOM     10  H   UNL     1      44.544   4.686  11.288  0.00  0.00    +0.000 HD
BRANCH   9  11
ATOM     11  C   UNL     1      44.608   4.198   9.319  0.00  0.00    +0.000 C 
BRANCH  11  12
ATOM     12  C   UNL     1      45.487   3.305   8.476  0.00  0.00    +0.000 A 
ATOM     13  C   UNL     1      45.577   1.930   8.742  0.00  0.00    +0.000 A 
ATOM     14  C   UNL     1      46.374   1.105   7.944  0.00  0.00    +0.000 A 
ATOM     15  C   UNL     1      47.094   1.646   6.879  0.00  0.00    +0.000 A 
ATOM     16  C   UNL     1      47.027   3.013   6.619  0.00  0.00    +0.000 A 
ATOM     17  C   UNL     1      46.234   3.839   7.417  0.00  0.00    +0.000 A 
ENDBRANCH  11  12
ENDBRANCH   9  11
ENDBRANCH   8   9
ENDBRANCH   5   8
ENDBRANCH   1   2
BRANCH   1  20
ATOM     18  C   UNL     1      49.575   6.134  16.892  0.00  0.00    +0.000 C 
ATOM     19  O   UNL     1      48.607   6.263  17.640  0.00  0.00    +0.000 OA
ATOM     20  N   UNL     1      49.649   6.813  15.709  0.00  0.00    +0.000 N 
ATOM     21  H   UNL     1      50.493   6.757  15.151  0.00  0.00    +0.000 HD
BRANCH  18  29
ATOM     22  C   UNL     1      49.911   2.703  16.985  0.00  0.00    +0.000 A 
ATOM     23  N   UNL     1      50.290   1.427  17.190  0.00  0.00    +0.000 NA
ATOM     24  C   UNL     1      51.523   1.197  17.649  0.00  0.00    +0.000 A 
ATOM     25  N   UNL     1      52.448   2.106  17.933  0.00  0.00    +0.000 NA
ATOM     26  C   UNL     1      52.031   3.368  17.729  0.00  0.00    +0.000 A 
ATOM     27  S   UNL     1      53.094   4.656  18.023  0.00  0.00    +0.000 S 
ATOM     28  C   UNL     1      51.910   5.797  17.592  0.00  0.00    +0.000 A 
ATOM     29  C   UNL     1      50.693   5.233  17.227  0.00  0.00    +0.000 A 
ATOM     30  C   UNL     1      50.779   3.774  17.276  0.00  0.00    +0.000 A 
BRANCH  22  32
ATOM     31  C   UNL     1      47.622   2.924  17.443  0.00  0.00    +0.000 C 
ATOM     32  O   UNL     1      48.656   2.935  16.461  0.00  0.00    +0.000 OA
ENDBRANCH  22  32
ENDBRANCH  18  29
ENDBRANCH   1  20
TORSDOF 8
ENDMDL
MODEL 7
REMARK VINA RESULT:    -6.742      4.032      9.370
REMARK INTER + INTRA:         -10.990
REMARK INTER:                  -9.956
REMARK INTRA:                  -1.034
REMARK UNBOUND:                -1.094
REMARK  Name = 
REMARK  9 active torsions:
REMARK  status: ('A' for Active; 'I' for Inactive)
REMARK    1  A    between atoms: C_1  and  O_2
REMARK    2  A    between atoms: O_2  and  C_3
REMARK    3  A    between atoms: C_10  and  C_11
REMARK    4  A    between atoms: N_13  and  C_14
REMARK    5  A    between atoms: C_14  and  C_15
REMARK    6  A    between atoms: C_18  and  C_19
REMARK    7  A    between atoms: C_19  and  N_20
REMARK    8  A    between atoms: N_20  and  C_21
REMARK    9  A    between atoms: C_21  and  C_22
REMARK                            x       y       z     vdW  Elec       q    Type
REMARK                         _______ _______ _______ _____ _____    ______ ____
ROOT
ATOM      1  C   UNL     1      47.408   3.188  16.691  0.00  0.00    +0.000 C 
ENDROOT
BRANCH   1   2
ATOM      2  C   UNL     1      48.834   3.261  17.155  0.00  0.00    +0.000 A 
ATOM      3  C   UNL     1      49.714   2.189  16.994  0.00  0.00    +0.000 A 
ATOM      4  C   UNL     1      51.037   2.306  17.421  0.00  0.00    +0.000 A 
ATOM      5  C   UNL     1      51.450   3.494  18.021  0.00  0.00    +0.000 A 
ATOM      6  N   UNL     1      50.600   4.533  18.228  0.00  0.00    +0.000 NA
ATOM      7  C   UNL     1      49.326   4.395  17.790  0.00  0.00    +0.000 A 
BRANCH   5   8
ATOM      8  C   UNL     1      52.886   3.659  18.487  0.00  0.00    +0.000 C 
BRANCH   8   9
ATOM      9  N   UNL     1      53.353   2.608  19.403  0.00  0.00    +0.000 NA
ATOM     10  H   UNL     1      52.779   1.781  19.226  0.00  0.00    +0.000 HD
BRANCH   9  11
ATOM     11  C   UNL     1      54.751   2.259  19.167  0.00  0.00    +0.000 C 
BRANCH  11  12
ATOM     12  C   UNL     1      54.881   1.118  18.187  0.00  0.00    +0.000 A 
ATOM     13  C   UNL     1      54.587  -0.198  18.574  0.00  0.00    +0.000 A 
ATOM     14  C   UNL     1      54.687  -1.246  17.656  0.00  0.00    +0.000 A 
ATOM     15  C   UNL     1      55.090  -0.991  16.345  0.00  0.00    +0.000 A 
ATOM     16  C   UNL     1      55.403   0.309  15.955  0.00  0.00    +0.000 A 
ATOM     17  C   UNL     1      55.306   1.357  16.872  0.00  0.00    +0.000 A 
ENDBRANCH  11  12
ENDBRANCH   9  11
ENDBRANCH   8   9
ENDBRANCH   5   8
ENDBRANCH   1   2
BRANCH   1  20
ATOM     18  C   UNL     1      46.979   4.181  14.484  0.00  0.00    +0.000 C 
ATOM     19  O   UNL     1      47.192   3.107  13.925  0.00  0.00    +0.000 OA
ATOM     20  N   UNL     1      47.072   4.302  15.842  0.00  0.00    +0.000 N 
ATOM     21  H   UNL     1      46.977   5.214  16.272  0.00  0.00    +0.000 HD
BRANCH  18  29
ATOM     22  C   UNL     1      44.170   5.070  12.692  0.00  0.00    +0.000 A 
ATOM     23  N   UNL     1      43.259   5.630  11.872  0.00  0.00    +0.000 NA
ATOM     24  C   UNL     1      43.536   6.820  11.333  0.00  0.00    +0.000 A 
ATOM     25  N   UNL     1      44.637   7.539  11.518  0.00  0.00    +0.000 NA
ATOM     26  C   UNL     1      45.528   6.946  12.331  0.00  0.00    +0.000 A 
ATOM     27  S   UNL     1      46.985   7.736  12.692  0.00  0.00    +0.000 S 
ATOM     28  C   UNL     1      47.506   6.439  13.658  0.00  0.00    +0.000 A 
ATOM     29  C   UNL     1      46.602   5.385  13.722  0.00  0.00    +0.000 A 
ATOM     30  C   UNL     1      45.400   5.707  12.953  0.00  0.00    +0.000 A 
BRANCH  22  32
ATOM     31  C   UNL     1      43.611   2.818  12.354  0.00  0.00    +0.000 C 
ATOM     32  O   UNL     1      43.859   3.866  13.289  0.00  0.00    +0.000 OA
ENDBRANCH  22  32
ENDBRANCH  18  29
ENDBRANCH   1  20
TORSDOF 8
ENDMDL
MODEL 8
REMARK VINA RESULT:    -6.577      3.467      5.955
REMARK INTER + INTRA:         -10.747
REMARK INTER:                  -9.549
REMARK INTRA:                  -1.198
REMARK UNBOUND:                -1.094
REMARK  Name = 
REMARK  9 active torsions:
REMARK  status: ('A' for Active; 'I' for Inactive)
REMARK    1  A    between atoms: C_1  and  O_2
REMARK    2  A    between atoms: O_2  and  C_3
REMARK    3  A    between atoms: C_10  and  C_11
REMARK    4  A    between atoms: N_13  and  C_14
REMARK    5  A    between atoms: C_14  and  C_15
REMARK    6  A    between atoms: C_18  and  C_19
REMARK    7  A    between atoms: C_19  and  N_20
REMARK    8  A    between atoms: N_20  and  C_21
REMARK    9  A    between atoms: C_21  and  C_22
REMARK                            x       y       z     vdW  Elec       q    Type
REMARK                         _______ _______ _______ _____ _____    ______ ____
ROOT
ATOM      1  C   UNL     1      48.379   3.184  17.841  0.00  0.00    +0.000 C 
ENDROOT
BRANCH   1   2
ATOM      2  C   UNL     1      48.262   4.266  16.808  0.00  0.00    +0.000 A 
ATOM      3  C   UNL     1      48.836   5.525  16.994  0.00  0.00    +0.000 A 
ATOM      4  C   UNL     1      48.721   6.495  15.999  0.00  0.00    +0.000 A 
ATOM      5  C   UNL     1      48.014   6.190  14.838  0.00  0.00    +0.000 A 
ATOM      6  N   UNL     1      47.410   4.988  14.654  0.00  0.00    +0.000 NA
ATOM      7  C   UNL     1      47.550   4.062  15.631  0.00  0.00    +0.000 A 
BRANCH   5   8
ATOM      8  C   UNL     1      47.879   7.220  13.729  0.00  0.00    +0.000 C 
BRANCH   8   9
ATOM      9  N   UNL     1      46.501   7.439  13.266  0.00  0.00    +0.000 NA
ATOM     10  H   UNL     1      46.333   8.447  13.294  0.00  0.00    +0.000 HD
BRANCH   9  11
ATOM     11  C   UNL     1      46.305   6.977  11.895  0.00  0.00    +0.000 C 
BRANCH  11  12
ATOM     12  C   UNL     1      45.143   6.018  11.792  0.00  0.00    +0.000 A 
ATOM     13  C   UNL     1      44.892   5.320  10.601  0.00  0.00    +0.000 A 
ATOM     14  C   UNL     1      43.829   4.417  10.520  0.00  0.00    +0.000 A 
ATOM     15  C   UNL     1      43.002   4.209  11.623  0.00  0.00    +0.000 A 
ATOM     16  C   UNL     1      43.230   4.911  12.805  0.00  0.00    +0.000 A 
ATOM     17  C   UNL     1      44.290   5.816  12.887  0.00  0.00    +0.000 A 
ENDBRANCH  11  12
ENDBRANCH   9  11
ENDBRANCH   8   9
ENDBRANCH   5   8
ENDBRANCH   1   2
BRANCH   1  20
ATOM     18  C   UNL     1      50.503   2.100  17.248  0.00  0.00    +0.000 C 
ATOM     19  O   UNL     1      50.024   1.660  16.205  0.00  0.00    +0.000 OA
ATOM     20  N   UNL     1      49.755   2.853  18.108  0.00  0.00    +0.000 N 
ATOM     21  H   UNL     1      50.145   3.131  19.001  0.00  0.00    +0.000 HD
BRANCH  18  29
ATOM     22  C   UNL     1      53.194   4.162  17.882  0.00  0.00    +0.000 A 
ATOM     23  N   UNL     1      54.408   4.710  18.086  0.00  0.00    +0.000 NA
ATOM     24  C   UNL     1      55.446   3.897  18.288  0.00  0.00    +0.000 A 
ATOM     25  N   UNL     1      55.423   2.569  18.317  0.00  0.00    +0.000 NA
ATOM     26  C   UNL     1      54.199   2.056  18.098  0.00  0.00    +0.000 A 
ATOM     27  S   UNL     1      53.983   0.374  18.119  0.00  0.00    +0.000 S 
ATOM     28  C   UNL     1      52.329   0.532  17.765  0.00  0.00    +0.000 A 
ATOM     29  C   UNL     1      51.908   1.849  17.616  0.00  0.00    +0.000 A 
ATOM     30  C   UNL     1      53.026   2.763  17.852  0.00  0.00    +0.000 A 
BRANCH  22  32
ATOM     31  C   UNL     1      52.361   6.078  16.817  0.00  0.00    +0.000 C 
ATOM     32  O   UNL     1      52.114   5.006  17.725  0.00  0.00    +0.000 OA
ENDBRANCH  22  32
ENDBRANCH  18  29
ENDBRANCH   1  20
TORSDOF 8
ENDMDL
MODEL 9
REMARK VINA RESULT:    -6.333      3.469      8.851
REMARK INTER + INTRA:         -10.388
REMARK INTER:                  -8.832
REMARK INTRA:                  -1.556
REMARK UNBOUND:                -1.094
REMARK  Name = 
REMARK  9 active torsions:
REMARK  status: ('A' for Active; 'I' for Inactive)
REMARK    1  A    between atoms: C_1  and  O_2
REMARK    2  A    between atoms: O_2  and  C_3
REMARK    3  A    between atoms: C_10  and  C_11
REMARK    4  A    between atoms: N_13  and  C_14
REMARK    5  A    between atoms: C_14  and  C_15
REMARK    6  A    between atoms: C_18  and  C_19
REMARK    7  A    between atoms: C_19  and  N_20
REMARK    8  A    between atoms: N_20  and  C_21
REMARK    9  A    between atoms: C_21  and  C_22
REMARK                            x       y       z     vdW  Elec       q    Type
REMARK                         _______ _______ _______ _____ _____    ______ ____
ROOT
ATOM      1  C   UNL     1      47.209   3.310  16.757  0.00  0.00    +0.000 C 
ENDROOT
BRANCH   1   2
ATOM      2  C   UNL     1      48.482   3.661  17.471  0.00  0.00    +0.000 A 
ATOM      3  C   UNL     1      49.701   3.075  17.128  0.00  0.00    +0.000 A 
ATOM      4  C   UNL     1      50.864   3.445  17.804  0.00  0.00    +0.000 A 
ATOM      5  C   UNL     1      50.779   4.386  18.828  0.00  0.00    +0.000 A 
ATOM      6  N   UNL     1      49.598   4.936  19.208  0.00  0.00    +0.000 NA
ATOM      7  C   UNL     1      48.488   4.568  18.525  0.00  0.00    +0.000 A 
BRANCH   5   8
ATOM      8  C   UNL     1      52.028   4.820  19.577  0.00  0.00    +0.000 C 
BRANCH   8   9
ATOM      9  N   UNL     1      52.301   6.264  19.519  0.00  0.00    +0.000 NA
ATOM     10  H   UNL     1      53.045   6.455  20.194  0.00  0.00    +0.000 HD
BRANCH   9  11
ATOM     11  C   UNL     1      52.759   6.680  18.197  0.00  0.00    +0.000 C 
BRANCH  11  12
ATOM     12  C   UNL     1      51.627   7.236  17.366  0.00  0.00    +0.000 A 
ATOM     13  C   UNL     1      51.464   6.853  16.026  0.00  0.00    +0.000 A 
ATOM     14  C   UNL     1      50.402   7.353  15.270  0.00  0.00    +0.000 A 
ATOM     15  C   UNL     1      49.497   8.247  15.841  0.00  0.00    +0.000 A 
ATOM     16  C   UNL     1      49.660   8.650  17.165  0.00  0.00    +0.000 A 
ATOM     17  C   UNL     1      50.723   8.154  17.921  0.00  0.00    +0.000 A 
ENDBRANCH  11  12
ENDBRANCH   9  11
ENDBRANCH   8   9
ENDBRANCH   5   8
ENDBRANCH   1   2
BRANCH   1  20
ATOM     18  C   UNL     1      46.874   4.234  14.504  0.00  0.00    +0.000 C 
ATOM     19  O   UNL     1      47.313   3.209  13.985  0.00  0.00    +0.000 OA
ATOM     20  N   UNL     1      46.798   4.362  15.862  0.00  0.00    +0.000 N 
ATOM     21  H   UNL     1      46.515   5.246  16.268  0.00  0.00    +0.000 HD
BRANCH  18  29
ATOM     22  C   UNL     1      44.036   4.779  12.623  0.00  0.00    +0.000 A 
ATOM     23  N   UNL     1      43.095   5.218  11.764  0.00  0.00    +0.000 NA
ATOM     24  C   UNL     1      43.267   6.409  11.187  0.00  0.00    +0.000 A 
ATOM     25  N   UNL     1      44.287   7.240  11.368  0.00  0.00    +0.000 NA
ATOM     26  C   UNL     1      45.213   6.766  12.220  0.00  0.00    +0.000 A 
ATOM     27  S   UNL     1      46.576   7.708  12.583  0.00  0.00    +0.000 S 
ATOM     28  C   UNL     1      47.198   6.503  13.607  0.00  0.00    +0.000 A 
ATOM     29  C   UNL     1      46.400   5.368  13.690  0.00  0.00    +0.000 A 
ATOM     30  C   UNL     1      45.191   5.543  12.885  0.00  0.00    +0.000 A 
BRANCH  22  32
ATOM     31  C   UNL     1      43.489   2.514  12.364  0.00  0.00    +0.000 C 
ATOM     32  O   UNL     1      43.829   3.572  13.258  0.00  0.00    +0.000 OA
ENDBRANCH  22  32
ENDBRANCH  18  29
ENDBRANCH   1  20
TORSDOF 8
ENDMDL
