MODEL 1
REMARK VINA RESULT:    -8.122      0.000      0.000
REMARK INTER + INTRA:         -11.975
REMARK INTER:                 -11.445
REMARK INTRA:                  -0.530
REMARK UNBOUND:                -0.530
REMARK  Name = 
REMARK  8 active torsions:
REMARK  status: ('A' for Active; 'I' for Inactive)
REMARK    1  A    between atoms: C_1  and  C_2
REMARK    2  A    between atoms: C_2  and  N_3
REMARK    3  A    between atoms: N_3  and  C_4
REMARK    4  A    between atoms: C_8  and  C_9
REMARK    5  A    between atoms: C_9  and  C_10
REMARK    6  A    between atoms: C_10  and  N_11
REMARK    7  A    between atoms: N_11  and  C_12
REMARK    8  A    between atoms: C_15  and  C_16
REMARK                            x       y       z     vdW  Elec       q    Type
REMARK                         _______ _______ _______ _____ _____    ______ ____
ROOT
ATOM      1  C   UNL     1      43.576   5.591  12.332  0.00  0.00    +0.000 C 
ENDROOT
BRANCH   1   6
ATOM      2  C   UNL     1      46.798   4.453  14.087  0.00  0.00    +0.000 A 
ATOM      3  C   UNL     1      47.666   5.485  13.729  0.00  0.00    +0.000 A 
ATOM      4  C   UNL     1      47.222   6.543  12.931  0.00  0.00    +0.000 A 
ATOM      5  C   UNL     1      45.896   6.595  12.504  0.00  0.00    +0.000 A 
ATOM      6  C   UNL     1      45.001   5.576  12.847  0.00  0.00    +0.000 A 
ATOM      7  C   UNL     1      45.463   4.520  13.650  0.00  0.00    +0.000 A 
BRANCH   2   8
ATOM      8  N   UNL     1      47.160   3.410  14.959  0.00  0.00    +0.000 N 
ATOM      9  H   UNL     1      47.171   2.504  14.497  0.00  0.00    +0.000 HD
BRANCH   8  11
ATOM     10  C   UNL     1      48.981   2.447  16.303  0.00  0.00    +0.000 C 
ATOM     11  C   UNL     1      47.841   3.443  16.234  0.00  0.00    +0.000 C 
ATOM     12  C   UNL     1      48.088   4.856  16.813  0.00  0.00    +0.000 C 
ATOM     13  O   UNL     1      46.896   4.777  17.638  0.00  0.00    +0.000 OA
ATOM     14  C   UNL     1      46.811   3.351  17.391  0.00  0.00    +0.000 C 
ENDBRANCH   8  11
ENDBRANCH   2   8
ENDBRANCH   1   6
BRANCH   1  15
ATOM     15  C   UNL     1      43.366   4.474  11.302  0.00  0.00    +0.000 C 
BRANCH  15  16
ATOM     16  N   UNL     1      43.772   4.875   9.949  0.00  0.00    +0.000 N 
ATOM     17  H   UNL     1      44.166   5.813   9.923  0.00  0.00    +0.000 HD
BRANCH  16  18
ATOM     18  C   UNL     1      44.576   3.955   9.246  0.00  0.00    +0.000 A 
ATOM     19  C   UNL     1      45.522   4.345   8.292  0.00  0.00    +0.000 A 
ATOM     20  C   UNL     1      46.341   3.407   7.669  0.00  0.00    +0.000 A 
ATOM     21  C   UNL     1      46.217   2.082   8.039  0.00  0.00    +0.000 A 
ATOM     22  N   UNL     1      45.346   1.638   8.985  0.00  0.00    +0.000 NA
ATOM     23  C   UNL     1      44.569   2.592   9.567  0.00  0.00    +0.000 A 
BRANCH  21  24
ATOM     24  C   UNL     1      47.101   1.055   7.390  0.00  0.00    +0.000 C 
ATOM     25  N   UNL     1      46.795  -0.242   7.667  0.00  0.00    +0.000 N 
ATOM     26  O   UNL     1      48.042   1.356   6.663  0.00  0.00    +0.000 OA
ATOM     27  H   UNL     1      46.024  -0.452   8.295  0.00  0.00    +0.000 HD
ATOM     28  H   UNL     1      47.367  -0.983   7.287  0.00  0.00    +0.000 HD
ENDBRANCH  21  24
ENDBRANCH  16  18
ENDBRANCH  15  16
ENDBRANCH   1  15
TORSDOF 7
ENDMDL
MODEL 2
REMARK VINA RESULT:    -8.044      1.117      1.548
REMARK INTER + INTRA:         -11.866
REMARK INTER:                 -11.414
REMARK INTRA:                  -0.452
REMARK UNBOUND:                -0.530
REMARK  Name = 
REMARK  8 active torsions:
REMARK  status: ('A' for Active; 'I' for Inactive)
REMARK    1  A    between atoms: C_1  and  C_2
REMARK    2  A    between atoms: C_2  and  N_3
REMARK    3  A    between atoms: N_3  and  C_4
REMARK    4  A    between atoms: C_8  and  C_9
REMARK    5  A    between atoms: C_9  and  C_10
REMARK    6  A    between atoms: C_10  and  N_11
REMARK    7  A    between atoms: N_11  and  C_12
REMARK    8  A    between atoms: C_15  and  C_16
REMARK                            x       y       z     vdW  Elec       q    Type
REMARK                         _______ _______ _______ _____ _____    ______ ____
ROOT
ATOM      1  C   UNL     1      43.241   5.254  12.430  0.00  0.00    +0.000 C 
ENDROOT
BRANCH   1   6
ATOM      2  C   UNL     1      46.721   4.825  13.999  0.00  0.00    +0.000 A 
ATOM      3  C   UNL     1      47.386   5.924  13.457  0.00  0.00    +0.000 A 
ATOM      4  C   UNL     1      46.724   6.802  12.595  0.00  0.00    +0.000 A 
ATOM      5  C   UNL     1      45.379   6.605  12.285  0.00  0.00    +0.000 A 
ATOM      6  C   UNL     1      44.684   5.512  12.814  0.00  0.00    +0.000 A 
ATOM      7  C   UNL     1      45.363   4.640  13.680  0.00  0.00    +0.000 A 
BRANCH   2   8
ATOM      8  N   UNL     1      47.305   3.958  14.941  0.00  0.00    +0.000 N 
ATOM      9  H   UNL     1      47.667   3.109  14.515  0.00  0.00    +0.000 HD
BRANCH   8  11
ATOM     10  C   UNL     1      48.647   5.456  16.356  0.00  0.00    +0.000 C 
ATOM     11  C   UNL     1      47.787   4.211  16.280  0.00  0.00    +0.000 C 
ATOM     12  C   UNL     1      46.751   3.987  17.407  0.00  0.00    +0.000 C 
ATOM     13  O   UNL     1      47.247   2.646  17.659  0.00  0.00    +0.000 OA
ATOM     14  C   UNL     1      48.429   2.926  16.868  0.00  0.00    +0.000 C 
ENDBRANCH   8  11
ENDBRANCH   2   8
ENDBRANCH   1   6
BRANCH   1  15
ATOM     15  C   UNL     1      43.165   4.256  11.269  0.00  0.00    +0.000 C 
BRANCH  15  16
ATOM     16  N   UNL     1      43.741   4.793  10.030  0.00  0.00    +0.000 N 
ATOM     17  H   UNL     1      44.120   5.730  10.150  0.00  0.00    +0.000 HD
BRANCH  16  18
ATOM     18  C   UNL     1      44.645   3.950   9.351  0.00  0.00    +0.000 A 
ATOM     19  C   UNL     1      44.618   2.556   9.464  0.00  0.00    +0.000 A 
ATOM     20  C   UNL     1      45.488   1.760   8.724  0.00  0.00    +0.000 A 
ATOM     21  C   UNL     1      46.360   2.379   7.851  0.00  0.00    +0.000 A 
ATOM     22  N   UNL     1      46.415   3.726   7.664  0.00  0.00    +0.000 NA
ATOM     23  C   UNL     1      45.545   4.462   8.407  0.00  0.00    +0.000 A 
BRANCH  21  24
ATOM     24  C   UNL     1      47.298   1.539   7.032  0.00  0.00    +0.000 C 
ATOM     25  N   UNL     1      48.421   2.170   6.593  0.00  0.00    +0.000 N 
ATOM     26  O   UNL     1      47.071   0.362   6.767  0.00  0.00    +0.000 OA
ATOM     27  H   UNL     1      48.561   3.152   6.812  0.00  0.00    +0.000 HD
ATOM     28  H   UNL     1      49.079   1.671   6.013  0.00  0.00    +0.000 HD
ENDBRANCH  21  24
ENDBRANCH  16  18
ENDBRANCH  15  16
ENDBRANCH   1  15
TORSDOF 7
ENDMDL
MODEL 3
REMARK VINA RESULT:    -7.875      3.340      5.073
REMARK INTER + INTRA:         -11.627
REMARK INTER:                 -11.006
REMARK INTRA:                  -0.621
REMARK UNBOUND:                -0.530
REMARK  Name = 
REMARK  8 active torsions:
REMARK  status: ('A' for Active; 'I' for Inactive)
REMARK    1  A    between atoms: C_1  and  C_2
REMARK    2  A    between atoms: C_2  and  N_3
REMARK    3  A    between atoms: N_3  and  C_4
REMARK    4  A    between atoms: C_8  and  C_9
REMARK    5  A    between atoms: C_9  and  C_10
REMARK    6  A    between atoms: C_10  and  N_11
REMARK    7  A    between atoms: N_11  and  C_12
REMARK    8  A    between atoms: C_15  and  C_16
REMARK                            x       y       z     vdW  Elec       q    Type
REMARK                         _______ _______ _______ _____ _____    ______ ____
ROOT
ATOM      1  C   UNL     1      45.360   4.863  11.823  0.00  0.00    +0.000 C 
ENDROOT
BRANCH   1   6
ATOM      2  C   UNL     1      45.401   8.623  12.608  0.00  0.00    +0.000 A 
ATOM      3  C   UNL     1      46.740   8.799  12.960  0.00  0.00    +0.000 A 
ATOM      4  C   UNL     1      47.627   7.720  12.943  0.00  0.00    +0.000 A 
ATOM      5  C   UNL     1      47.192   6.456  12.548  0.00  0.00    +0.000 A 
ATOM      6  C   UNL     1      45.856   6.247  12.189  0.00  0.00    +0.000 A 
ATOM      7  C   UNL     1      44.977   7.343  12.210  0.00  0.00    +0.000 A 
BRANCH   2   8
ATOM      8  N   UNL     1      44.483   9.685  12.519  0.00  0.00    +0.000 N 
ATOM      9  H   UNL     1      44.247  10.073  13.429  0.00  0.00    +0.000 HD
BRANCH   8  11
ATOM     10  C   UNL     1      45.207  11.503  11.030  0.00  0.00    +0.000 C 
ATOM     11  C   UNL     1      44.115  10.519  11.396  0.00  0.00    +0.000 C 
ATOM     12  C   UNL     1      43.392   9.789  10.241  0.00  0.00    +0.000 C 
ATOM     13  O   UNL     1      42.089  10.180  10.748  0.00  0.00    +0.000 OA
ATOM     14  C   UNL     1      42.714  11.143  11.633  0.00  0.00    +0.000 C 
ENDBRANCH   8  11
ENDBRANCH   2   8
ENDBRANCH   1   6
BRANCH   1  15
ATOM     15  C   UNL     1      43.930   4.933  11.273  0.00  0.00    +0.000 C 
BRANCH  15  16
ATOM     16  N   UNL     1      43.896   5.003   9.807  0.00  0.00    +0.000 N 
ATOM     17  H   UNL     1      44.074   5.942   9.457  0.00  0.00    +0.000 HD
BRANCH  16  18
ATOM     18  C   UNL     1      44.667   4.040   9.124  0.00  0.00    +0.000 A 
ATOM     19  C   UNL     1      45.676   4.377   8.215  0.00  0.00    +0.000 A 
ATOM     20  C   UNL     1      46.457   3.395   7.613  0.00  0.00    +0.000 A 
ATOM     21  C   UNL     1      46.232   2.077   7.959  0.00  0.00    +0.000 A 
ATOM     22  N   UNL     1      45.294   1.680   8.862  0.00  0.00    +0.000 NA
ATOM     23  C   UNL     1      44.557   2.676   9.425  0.00  0.00    +0.000 A 
BRANCH  21  24
ATOM     24  C   UNL     1      47.073   1.001   7.333  0.00  0.00    +0.000 C 
ATOM     25  N   UNL     1      46.730  -0.275   7.656  0.00  0.00    +0.000 N 
ATOM     26  O   UNL     1      48.012   1.248   6.583  0.00  0.00    +0.000 OA
ATOM     27  H   UNL     1      45.962  -0.440   8.301  0.00  0.00    +0.000 HD
ATOM     28  H   UNL     1      47.272  -1.046   7.293  0.00  0.00    +0.000 HD
ENDBRANCH  21  24
ENDBRANCH  16  18
ENDBRANCH  15  16
ENDBRANCH   1  15
TORSDOF 7
ENDMDL
MODEL 4
REMARK VINA RESULT:    -7.794      2.498      3.747
REMARK INTER + INTRA:         -11.513
REMARK INTER:                 -10.530
REMARK INTRA:                  -0.983
REMARK UNBOUND:                -0.530
REMARK  Name = 
REMARK  8 active torsions:
REMARK  status: ('A' for Active; 'I' for Inactive)
REMARK    1  A    between atoms: C_1  and  C_2
REMARK    2  A    between atoms: C_2  and  N_3
REMARK    3  A    between atoms: N_3  and  C_4
REMARK    4  A    between atoms: C_8  and  C_9
REMARK    5  A    between atoms: C_9  and  C_10
REMARK    6  A    between atoms: C_10  and  N_11
REMARK    7  A    between atoms: N_11  and  C_12
REMARK    8  A    between atoms: C_15  and  C_16
REMARK                            x       y       z     vdW  Elec       q    Type
REMARK                         _______ _______ _______ _____ _____    ______ ____
ROOT
ATOM      1  C   UNL     1      43.265   4.853  12.416  0.00  0.00    +0.000 C 
ENDROOT
BRANCH   1   6
ATOM      2  C   UNL     1      46.565   6.500  13.490  0.00  0.00    +0.000 A 
ATOM      3  C   UNL     1      47.352   5.372  13.723  0.00  0.00    +0.000 A 
ATOM      4  C   UNL     1      46.832   4.089  13.534  0.00  0.00    +0.000 A 
ATOM      5  C   UNL     1      45.523   3.919  13.084  0.00  0.00    +0.000 A 
ATOM      6  C   UNL     1      44.708   5.030  12.841  0.00  0.00    +0.000 A 
ATOM      7  C   UNL     1      45.247   6.312  13.034  0.00  0.00    +0.000 A 
BRANCH   2   8
ATOM      8  N   UNL     1      47.057   7.814  13.576  0.00  0.00    +0.000 N 
ATOM      9  H   UNL     1      47.125   8.142  14.536  0.00  0.00    +0.000 HD
BRANCH   8  11
ATOM     10  C   UNL     1      46.976   9.771  12.089  0.00  0.00    +0.000 C 
ATOM     11  C   UNL     1      47.792   8.608  12.616  0.00  0.00    +0.000 C 
ATOM     12  C   UNL     1      49.271   8.876  12.977  0.00  0.00    +0.000 C 
ATOM     13  O   UNL     1      49.720   7.767  12.155  0.00  0.00    +0.000 OA
ATOM     14  C   UNL     1      48.415   7.691  11.530  0.00  0.00    +0.000 C 
ENDBRANCH   8  11
ENDBRANCH   2   8
ENDBRANCH   1   6
BRANCH   1  15
ATOM     15  C   UNL     1      43.184   4.037  11.120  0.00  0.00    +0.000 C 
BRANCH  15  16
ATOM     16  N   UNL     1      43.756   4.751   9.971  0.00  0.00    +0.000 N 
ATOM     17  H   UNL     1      44.060   5.692  10.210  0.00  0.00    +0.000 HD
BRANCH  16  18
ATOM     18  C   UNL     1      44.741   4.057   9.239  0.00  0.00    +0.000 A 
ATOM     19  C   UNL     1      44.840   2.662   9.228  0.00  0.00    +0.000 A 
ATOM     20  C   UNL     1      45.788   2.016   8.439  0.00  0.00    +0.000 A 
ATOM     21  C   UNL     1      46.609   2.787   7.640  0.00  0.00    +0.000 A 
ATOM     22  N   UNL     1      46.543   4.145   7.573  0.00  0.00    +0.000 NA
ATOM     23  C   UNL     1      45.600   4.730   8.361  0.00  0.00    +0.000 A 
BRANCH  21  24
ATOM     24  C   UNL     1      47.629   2.111   6.769  0.00  0.00    +0.000 C 
ATOM     25  N   UNL     1      48.072   2.840   5.709  0.00  0.00    +0.000 N 
ATOM     26  O   UNL     1      48.037   0.975   6.988  0.00  0.00    +0.000 OA
ATOM     27  H   UNL     1      47.692   3.768   5.546  0.00  0.00    +0.000 HD
ATOM     28  H   UNL     1      48.737   2.434   5.066  0.00  0.00    +0.000 HD
ENDBRANCH  21  24
ENDBRANCH  16  18
ENDBRANCH  15  16
ENDBRANCH   1  15
TORSDOF 7
ENDMDL
MODEL 5
REMARK VINA RESULT:    -7.432      1.982      2.609
REMARK INTER + INTRA:         -11.004
REMARK INTER:                 -10.348
REMARK INTRA:                  -0.656
REMARK UNBOUND:                -0.530
REMARK  Name = 
REMARK  8 active torsions:
REMARK  status: ('A' for Active; 'I' for Inactive)
REMARK    1  A    between atoms: C_1  and  C_2
REMARK    2  A    between atoms: C_2  and  N_3
REMARK    3  A    between atoms: N_3  and  C_4
REMARK    4  A    between atoms: C_8  and  C_9
REMARK    5  A    between atoms: C_9  and  C_10
REMARK    6  A    between atoms: C_10  and  N_11
REMARK    7  A    between atoms: N_11  and  C_12
REMARK    8  A    between atoms: C_15  and  C_16
REMARK                            x       y       z     vdW  Elec       q    Type
REMARK                         _______ _______ _______ _____ _____    ______ ____
ROOT
ATOM      1  C   UNL     1      45.392   4.640  12.196  0.00  0.00    +0.000 C 
ENDROOT
BRANCH   1   6
ATOM      2  C   UNL     1      47.794   7.183  13.785  0.00  0.00    +0.000 A 
ATOM      3  C   UNL     1      47.126   8.376  13.508  0.00  0.00    +0.000 A 
ATOM      4  C   UNL     1      45.910   8.368  12.820  0.00  0.00    +0.000 A 
ATOM      5  C   UNL     1      45.334   7.163  12.422  0.00  0.00    +0.000 A 
ATOM      6  C   UNL     1      45.979   5.949  12.684  0.00  0.00    +0.000 A 
ATOM      7  C   UNL     1      47.199   5.975  13.378  0.00  0.00    +0.000 A 
BRANCH   2   8
ATOM      8  N   UNL     1      48.972   7.119  14.550  0.00  0.00    +0.000 N 
ATOM      9  H   UNL     1      49.791   7.422  14.029  0.00  0.00    +0.000 HD
BRANCH   8  11
ATOM     10  C   UNL     1      48.757   8.341  16.673  0.00  0.00    +0.000 C 
ATOM     11  C   UNL     1      49.161   7.055  15.982  0.00  0.00    +0.000 C 
ATOM     12  C   UNL     1      48.738   5.722  16.643  0.00  0.00    +0.000 C 
ATOM     13  O   UNL     1      50.099   5.219  16.606  0.00  0.00    +0.000 OA
ATOM     14  C   UNL     1      50.592   6.549  16.308  0.00  0.00    +0.000 C 
ENDBRANCH   8  11
ENDBRANCH   2   8
ENDBRANCH   1   6
BRANCH   1  15
ATOM     15  C   UNL     1      44.088   4.890  11.429  0.00  0.00    +0.000 C 
BRANCH  15  16
ATOM     16  N   UNL     1      43.713   3.754  10.577  0.00  0.00    +0.000 N 
ATOM     17  H   UNL     1      42.750   3.812  10.252  0.00  0.00    +0.000 HD
BRANCH  16  18
ATOM     18  C   UNL     1      44.599   3.451   9.523  0.00  0.00    +0.000 A 
ATOM     19  C   UNL     1      45.239   4.434   8.760  0.00  0.00    +0.000 A 
ATOM     20  C   UNL     1      46.157   4.090   7.772  0.00  0.00    +0.000 A 
ATOM     21  C   UNL     1      46.445   2.752   7.583  0.00  0.00    +0.000 A 
ATOM     22  N   UNL     1      45.889   1.748   8.313  0.00  0.00    +0.000 NA
ATOM     23  C   UNL     1      44.999   2.133   9.268  0.00  0.00    +0.000 A 
BRANCH  21  24
ATOM     24  C   UNL     1      47.444   2.359   6.532  0.00  0.00    +0.000 C 
ATOM     25  N   UNL     1      47.342   3.022   5.348  0.00  0.00    +0.000 N 
ATOM     26  O   UNL     1      48.294   1.495   6.718  0.00  0.00    +0.000 OA
ATOM     27  H   UNL     1      46.608   3.713   5.223  0.00  0.00    +0.000 HD
ATOM     28  H   UNL     1      47.963   2.786   4.588  0.00  0.00    +0.000 HD
ENDBRANCH  21  24
ENDBRANCH  16  18
ENDBRANCH  15  16
ENDBRANCH   1  15
TORSDOF 7
ENDMDL
MODEL 6
REMARK VINA RESULT:    -7.354      3.057      3.833
REMARK INTER + INTRA:         -10.894
REMARK INTER:                 -10.253
REMARK INTRA:                  -0.642
REMARK UNBOUND:                -0.530
REMARK  Name = 
REMARK  8 active torsions:
REMARK  status: ('A' for Active; 'I' for Inactive)
REMARK    1  A    between atoms: C_1  and  C_2
REMARK    2  A    between atoms: C_2  and  N_3
REMARK    3  A    between atoms: N_3  and  C_4
REMARK    4  A    between atoms: C_8  and  C_9
REMARK    5  A    between atoms: C_9  and  C_10
REMARK    6  A    between atoms: C_10  and  N_11
REMARK    7  A    between atoms: N_11  and  C_12
REMARK    8  A    between atoms: C_15  and  C_16
REMARK                            x       y       z     vdW  Elec       q    Type
REMARK                         _______ _______ _______ _____ _____    ______ ____
ROOT
ATOM      1  C   UNL     1      45.364   5.319  11.693  0.00  0.00    +0.000 C 
ENDROOT
BRANCH   1   6
ATOM      2  C   UNL     1      46.559   8.672  13.138  0.00  0.00    +0.000 A 
ATOM      3  C   UNL     1      45.708   9.556  12.476  0.00  0.00    +0.000 A 
ATOM      4  C   UNL     1      44.752   9.083  11.573  0.00  0.00    +0.000 A 
ATOM      5  C   UNL     1      44.619   7.715  11.341  0.00  0.00    +0.000 A 
ATOM      6  C   UNL     1      45.458   6.802  11.990  0.00  0.00    +0.000 A 
ATOM      7  C   UNL     1      46.412   7.294  12.895  0.00  0.00    +0.000 A 
BRANCH   2   8
ATOM      8  N   UNL     1      47.478   9.078  14.122  0.00  0.00    +0.000 N 
ATOM      9  H   UNL     1      47.201   8.786  15.057  0.00  0.00    +0.000 HD
BRANCH   8  11
ATOM     10  C   UNL     1      49.066  10.925  14.458  0.00  0.00    +0.000 C 
ATOM     11  C   UNL     1      48.858   9.494  14.007  0.00  0.00    +0.000 C 
ATOM     12  C   UNL     1      49.902   8.444  14.452  0.00  0.00    +0.000 C 
ATOM     13  O   UNL     1      50.097   7.991  13.086  0.00  0.00    +0.000 OA
ATOM     14  C   UNL     1      49.399   9.161  12.591  0.00  0.00    +0.000 C 
ENDBRANCH   8  11
ENDBRANCH   2   8
ENDBRANCH   1   6
BRANCH   1  15
ATOM     15  C   UNL     1      43.936   4.945  11.277  0.00  0.00    +0.000 C 
BRANCH  15  16
ATOM     16  N   UNL     1      43.772   4.895   9.819  0.00  0.00    +0.000 N 
ATOM     17  H   UNL     1      43.822   5.817   9.390  0.00  0.00    +0.000 HD
BRANCH  16  18
ATOM     18  C   UNL     1      44.577   3.961   9.137  0.00  0.00    +0.000 A 
ATOM     19  C   UNL     1      45.572   4.334   8.227  0.00  0.00    +0.000 A 
ATOM     20  C   UNL     1      46.388   3.379   7.625  0.00  0.00    +0.000 A 
ATOM     21  C   UNL     1      46.212   2.055   7.974  0.00  0.00    +0.000 A 
ATOM     22  N   UNL     1      45.290   1.625   8.878  0.00  0.00    +0.000 NA
ATOM     23  C   UNL     1      44.518   2.594   9.440  0.00  0.00    +0.000 A 
BRANCH  21  24
ATOM     24  C   UNL     1      47.091   1.010   7.348  0.00  0.00    +0.000 C 
ATOM     25  N   UNL     1      46.792  -0.279   7.669  0.00  0.00    +0.000 N 
ATOM     26  O   UNL     1      48.023   1.290   6.601  0.00  0.00    +0.000 OA
ATOM     27  H   UNL     1      46.028  -0.470   8.311  0.00  0.00    +0.000 HD
ATOM     28  H   UNL     1      47.362  -1.029   7.306  0.00  0.00    +0.000 HD
ENDBRANCH  21  24
ENDBRANCH  16  18
ENDBRANCH  15  16
ENDBRANCH   1  15
TORSDOF 7
ENDMDL
MODEL 7
REMARK VINA RESULT:    -6.542      3.010      7.322
REMARK INTER + INTRA:          -9.750
REMARK INTER:                  -8.777
REMARK INTRA:                  -0.973
REMARK UNBOUND:                -0.530
REMARK  Name = 
REMARK  8 active torsions:
REMARK  status: ('A' for Active; 'I' for Inactive)
REMARK    1  A    between atoms: C_1  and  C_2
REMARK    2  A    between atoms: C_2  and  N_3
REMARK    3  A    between atoms: N_3  and  C_4
REMARK    4  A    between atoms: C_8  and  C_9
REMARK    5  A    between atoms: C_9  and  C_10
REMARK    6  A    between atoms: C_10  and  N_11
REMARK    7  A    between atoms: N_11  and  C_12
REMARK    8  A    between atoms: C_15  and  C_16
REMARK                            x       y       z     vdW  Elec       q    Type
REMARK                         _______ _______ _______ _____ _____    ______ ____
ROOT
ATOM      1  C   UNL     1      49.067   8.442  12.202  0.00  0.00    +0.000 C 
ENDROOT
BRANCH   1   6
ATOM      2  C   UNL     1      45.809   6.482  11.656  0.00  0.00    +0.000 A 
ATOM      3  C   UNL     1      44.864   7.466  11.946  0.00  0.00    +0.000 A 
ATOM      4  C   UNL     1      45.266   8.753  12.312  0.00  0.00    +0.000 A 
ATOM      5  C   UNL     1      46.620   9.079  12.367  0.00  0.00    +0.000 A 
ATOM      6  C   UNL     1      47.593   8.114  12.080  0.00  0.00    +0.000 A 
ATOM      7  C   UNL     1      47.172   6.826  11.713  0.00  0.00    +0.000 A 
BRANCH   2   8
ATOM      8  N   UNL     1      45.467   5.198  11.196  0.00  0.00    +0.000 N 
ATOM      9  H   UNL     1      45.974   4.939  10.353  0.00  0.00    +0.000 HD
BRANCH   8  11
ATOM     10  C   UNL     1      45.768   3.404  12.851  0.00  0.00    +0.000 C 
ATOM     11  C   UNL     1      44.832   4.092  11.878  0.00  0.00    +0.000 C 
ATOM     12  C   UNL     1      43.380   4.351  12.342  0.00  0.00    +0.000 C 
ATOM     13  O   UNL     1      42.839   3.714  11.154  0.00  0.00    +0.000 OA
ATOM     14  C   UNL     1      44.142   3.157  10.849  0.00  0.00    +0.000 C 
ENDBRANCH   8  11
ENDBRANCH   2   8
ENDBRANCH   1   6
BRANCH   1  15
ATOM     15  C   UNL     1      49.706   7.630  13.335  0.00  0.00    +0.000 C 
BRANCH  15  16
ATOM     16  N   UNL     1      49.123   7.942  14.646  0.00  0.00    +0.000 N 
ATOM     17  H   UNL     1      48.348   8.599  14.582  0.00  0.00    +0.000 HD
BRANCH  16  18
ATOM     18  C   UNL     1      48.800   6.837  15.460  0.00  0.00    +0.000 A 
ATOM     19  C   UNL     1      48.984   6.833  16.846  0.00  0.00    +0.000 A 
ATOM     20  C   UNL     1      48.589   5.743  17.619  0.00  0.00    +0.000 A 
ATOM     21  C   UNL     1      47.981   4.678  16.985  0.00  0.00    +0.000 A 
ATOM     22  N   UNL     1      47.737   4.631  15.647  0.00  0.00    +0.000 NA
ATOM     23  C   UNL     1      48.139   5.719  14.935  0.00  0.00    +0.000 A 
BRANCH  21  24
ATOM     24  C   UNL     1      47.533   3.498  17.801  0.00  0.00    +0.000 C 
ATOM     25  N   UNL     1      48.298   3.214  18.890  0.00  0.00    +0.000 N 
ATOM     26  O   UNL     1      46.549   2.828  17.508  0.00  0.00    +0.000 OA
ATOM     27  H   UNL     1      49.121   3.777  19.085  0.00  0.00    +0.000 HD
ATOM     28  H   UNL     1      48.070   2.416  19.465  0.00  0.00    +0.000 HD
ENDBRANCH  21  24
ENDBRANCH  16  18
ENDBRANCH  15  16
ENDBRANCH   1  15
TORSDOF 7
ENDMDL
MODEL 8
REMARK VINA RESULT:    -6.539      2.873      4.248
REMARK INTER + INTRA:          -9.746
REMARK INTER:                  -8.775
REMARK INTRA:                  -0.971
REMARK UNBOUND:                -0.530
REMARK  Name = 
REMARK  8 active torsions:
REMARK  status: ('A' for Active; 'I' for Inactive)
REMARK    1  A    between atoms: C_1  and  C_2
REMARK    2  A    between atoms: C_2  and  N_3
REMARK    3  A    between atoms: N_3  and  C_4
REMARK    4  A    between atoms: C_8  and  C_9
REMARK    5  A    between atoms: C_9  and  C_10
REMARK    6  A    between atoms: C_10  and  N_11
REMARK    7  A    between atoms: N_11  and  C_12
REMARK    8  A    between atoms: C_15  and  C_16
REMARK                            x       y       z     vdW  Elec       q    Type
REMARK                         _______ _______ _______ _____ _____    ______ ____
ROOT
ATOM      1  C   UNL     1      47.984   8.110  12.613  0.00  0.00    +0.000 C 
ENDROOT
BRANCH   1   6
ATOM      2  C   UNL     1      48.865   6.703  16.078  0.00  0.00    +0.000 A 
ATOM      3  C   UNL     1      48.831   7.867  16.845  0.00  0.00    +0.000 A 
ATOM      4  C   UNL     1      48.524   9.098  16.259  0.00  0.00    +0.000 A 
ATOM      5  C   UNL     1      48.221   9.175  14.900  0.00  0.00    +0.000 A 
ATOM      6  C   UNL     1      48.246   8.025  14.103  0.00  0.00    +0.000 A 
ATOM      7  C   UNL     1      48.556   6.796  14.708  0.00  0.00    +0.000 A 
BRANCH   2   8
ATOM      8  N   UNL     1      49.079   5.426  16.625  0.00  0.00    +0.000 N 
ATOM      9  H   UNL     1      49.981   5.347  17.088  0.00  0.00    +0.000 HD
BRANCH   8  11
ATOM     10  C   UNL     1      47.175   4.781  18.041  0.00  0.00    +0.000 C 
ATOM     11  C   UNL     1      48.143   4.372  16.950  0.00  0.00    +0.000 C 
ATOM     12  C   UNL     1      47.572   3.601  15.737  0.00  0.00    +0.000 C 
ATOM     13  O   UNL     1      48.557   2.545  15.886  0.00  0.00    +0.000 OA
ATOM     14  C   UNL     1      48.903   3.043  17.203  0.00  0.00    +0.000 C 
ENDBRANCH   8  11
ENDBRANCH   2   8
ENDBRANCH   1   6
BRANCH   1  15
ATOM     15  C   UNL     1      46.530   8.521  12.347  0.00  0.00    +0.000 C 
BRANCH  15  16
ATOM     16  N   UNL     1      45.578   7.792  13.195  0.00  0.00    +0.000 N 
ATOM     17  H   UNL     1      44.823   8.387  13.533  0.00  0.00    +0.000 HD
BRANCH  16  18
ATOM     18  C   UNL     1      45.088   6.578  12.673  0.00  0.00    +0.000 A 
ATOM     19  C   UNL     1      44.539   6.466  11.391  0.00  0.00    +0.000 A 
ATOM     20  C   UNL     1      44.128   5.234  10.891  0.00  0.00    +0.000 A 
ATOM     21  C   UNL     1      44.304   4.116  11.682  0.00  0.00    +0.000 A 
ATOM     22  N   UNL     1      44.864   4.145  12.922  0.00  0.00    +0.000 NA
ATOM     23  C   UNL     1      45.252   5.372  13.366  0.00  0.00    +0.000 A 
BRANCH  21  24
ATOM     24  C   UNL     1      43.881   2.773  11.158  0.00  0.00    +0.000 C 
ATOM     25  N   UNL     1      44.623   2.286  10.125  0.00  0.00    +0.000 N 
ATOM     26  O   UNL     1      42.929   2.152  11.619  0.00  0.00    +0.000 OA
ATOM     27  H   UNL     1      45.388   2.841   9.753  0.00  0.00    +0.000 HD
ATOM     28  H   UNL     1      44.374   1.402   9.706  0.00  0.00    +0.000 HD
ENDBRANCH  21  24
ENDBRANCH  16  18
ENDBRANCH  15  16
ENDBRANCH   1  15
TORSDOF 7
ENDMDL
MODEL 9
REMARK VINA RESULT:    -6.398      3.448      7.712
REMARK INTER + INTRA:          -9.547
REMARK INTER:                  -8.848
REMARK INTRA:                  -0.699
REMARK UNBOUND:                -0.530
REMARK  Name = 
REMARK  8 active torsions:
REMARK  status: ('A' for Active; 'I' for Inactive)
REMARK    1  A    between atoms: C_1  and  C_2
REMARK    2  A    between atoms: C_2  and  N_3
REMARK    3  A    between atoms: N_3  and  C_4
REMARK    4  A    between atoms: C_8  and  C_9
REMARK    5  A    between atoms: C_9  and  C_10
REMARK    6  A    between atoms: C_10  and  N_11
REMARK    7  A    between atoms: N_11  and  C_12
REMARK    8  A    between atoms: C_15  and  C_16
REMARK                            x       y       z     vdW  Elec       q    Type
REMARK                         _______ _______ _______ _____ _____    ______ ____
ROOT
ATOM      1  C   UNL     1      48.810   7.021  14.192  0.00  0.00    +0.000 C 
ENDROOT
BRANCH   1   6
ATOM      2  C   UNL     1      45.680   6.519  12.022  0.00  0.00    +0.000 A 
ATOM      3  C   UNL     1      45.111   7.791  12.093  0.00  0.00    +0.000 A 
ATOM      4  C   UNL     1      45.726   8.806  12.829  0.00  0.00    +0.000 A 
ATOM      5  C   UNL     1      46.935   8.569  13.482  0.00  0.00    +0.000 A 
ATOM      6  C   UNL     1      47.532   7.305  13.430  0.00  0.00    +0.000 A 
ATOM      7  C   UNL     1      46.900   6.295  12.685  0.00  0.00    +0.000 A 
BRANCH   2   8
ATOM      8  N   UNL     1      45.157   5.484  11.227  0.00  0.00    +0.000 N 
ATOM      9  H   UNL     1      45.801   5.190  10.498  0.00  0.00    +0.000 HD
BRANCH   8  11
ATOM     10  C   UNL     1      44.057   3.411  10.491  0.00  0.00    +0.000 C 
ATOM     11  C   UNL     1      44.073   4.560  11.479  0.00  0.00    +0.000 C 
ATOM     12  C   UNL     1      43.823   4.228  12.968  0.00  0.00    +0.000 C 
ATOM     13  O   UNL     1      42.773   5.227  13.062  0.00  0.00    +0.000 OA
ATOM     14  C   UNL     1      42.734   5.333  11.617  0.00  0.00    +0.000 C 
ENDBRANCH   8  11
ENDBRANCH   2   8
ENDBRANCH   1   6
BRANCH   1  15
ATOM     15  C   UNL     1      48.759   7.661  15.584  0.00  0.00    +0.000 C 
BRANCH  15  16
ATOM     16  N   UNL     1      48.316   6.718  16.619  0.00  0.00    +0.000 N 
ATOM     17  H   UNL     1      47.339   6.453  16.513  0.00  0.00    +0.000 HD
BRANCH  16  18
ATOM     18  C   UNL     1      49.139   5.592  16.823  0.00  0.00    +0.000 A 
ATOM     19  C   UNL     1      50.494   5.689  17.157  0.00  0.00    +0.000 A 
ATOM     20  C   UNL     1      51.253   4.550  17.414  0.00  0.00    +0.000 A 
ATOM     21  C   UNL     1      50.627   3.321  17.362  0.00  0.00    +0.000 A 
ATOM     22  N   UNL     1      49.306   3.155  17.080  0.00  0.00    +0.000 NA
ATOM     23  C   UNL     1      48.606   4.297  16.838  0.00  0.00    +0.000 A 
BRANCH  21  24
ATOM     24  C   UNL     1      51.423   2.080  17.650  0.00  0.00    +0.000 C 
ATOM     25  N   UNL     1      52.446   2.232  18.534  0.00  0.00    +0.000 N 
ATOM     26  O   UNL     1      51.178   1.000  17.123  0.00  0.00    +0.000 OA
ATOM     27  H   UNL     1      52.635   3.148  18.931  0.00  0.00    +0.000 HD
ATOM     28  H   UNL     1      53.040   1.444  18.751  0.00  0.00    +0.000 HD
ENDBRANCH  21  24
ENDBRANCH  16  18
ENDBRANCH  15  16
ENDBRANCH   1  15
TORSDOF 7
ENDMDL
