MODEL 1
REMARK VINA RESULT:    -8.328      0.000      0.000
REMARK INTER + INTRA:         -12.965
REMARK INTER:                 -12.223
REMARK INTRA:                  -0.742
REMARK UNBOUND:                -0.742
REMARK  Name = 
REMARK  12 active torsions:
REMARK  status: ('A' for Active; 'I' for Inactive)
REMARK    1  A    between atoms: C_1  and  C_2
REMARK    2  A    between atoms: N_4  and  C_5
REMARK    3  A    between atoms: C_7  and  C_8
REMARK    4  A    between atoms: C_8  and  C_9
REMARK    5  A    between atoms: C_9  and  C_10
REMARK    6  A    between atoms: C_9  and  C_11
REMARK    7  A    between atoms: C_9  and  C_12
REMARK    8  A    between atoms: C_12  and  N_13
REMARK    9  A    between atoms: N_13  and  C_14
REMARK   10  A    between atoms: C_17  and  C_18
REMARK   11  A    between atoms: C_25  and  C_26
REMARK   12  A    between atoms: C_29  and  C_30
REMARK                            x       y       z     vdW  Elec       q    Type
REMARK                         _______ _______ _______ _____ _____    ______ ____
ROOT
ATOM      1  C   UNL     1      45.544   4.542  12.280  0.00  0.00    +0.000 C 
ENDROOT
BRANCH   1   4
ATOM      2  C   UNL     1      47.647   5.142  15.481  0.00  0.00    +0.000 A 
ATOM      3  C   UNL     1      46.711   4.629  14.552  0.00  0.00    +0.000 A 
ATOM      4  C   UNL     1      46.569   5.130  13.243  0.00  0.00    +0.000 A 
ATOM      5  C   UNL     1      47.388   6.191  12.849  0.00  0.00    +0.000 A 
ATOM      6  C   UNL     1      48.331   6.715  13.732  0.00  0.00    +0.000 A 
ATOM      7  C   UNL     1      48.472   6.204  15.025  0.00  0.00    +0.000 A 
BRANCH   2  11
ATOM      8  C   UNL     1      50.459   3.540  17.729  0.00  0.00    +0.000 C 
ATOM      9  C   UNL     1      49.066   3.063  18.149  0.00  0.00    +0.000 C 
ATOM     10  C   UNL     1      48.057   3.167  16.980  0.00  0.00    +0.000 C 
ATOM     11  N   UNL     1      47.748   4.585  16.745  0.00  0.00    +0.000 N 
ATOM     12  C   UNL     1      47.212   5.249  17.948  0.00  0.00    +0.000 C 
ATOM     13  C   UNL     1      48.255   5.133  19.080  0.00  0.00    +0.000 C 
ATOM     14  C   UNL     1      47.710   5.726  20.371  0.00  0.00    +0.000 C 
ATOM     15  O   UNL     1      48.600   3.752  19.329  0.00  0.00    +0.000 OA
ENDBRANCH   2  11
BRANCH   7  16
ATOM     16  C   UNL     1      49.535   6.748  15.831  0.00  0.00    +0.000 C 
ATOM     17  N   UNL     1      50.398   7.155  16.496  0.00  0.00    +0.000 NA
ENDBRANCH   7  16
ENDBRANCH   1   4
BRANCH   1  18
ATOM     18  C   UNL     1      44.172   5.286  12.161  0.00  0.00    +0.000 C 
ATOM     19  C   UNL     1      43.184   4.766  13.226  0.00  0.00    +0.000 C 
ATOM     20  C   UNL     1      44.399   6.810  12.293  0.00  0.00    +0.000 C 
BRANCH  18  21
ATOM     21  C   UNL     1      43.540   4.996  10.755  0.00  0.00    +0.000 C 
BRANCH  21  22
ATOM     22  N   UNL     1      43.829   3.615  10.345  0.00  0.00    +0.000 N 
ATOM     23  H   UNL     1      43.001   3.027  10.300  0.00  0.00    +0.000 HD
BRANCH  22  24
ATOM     24  C   UNL     1      44.707   3.330   9.309  0.00  0.00    +0.000 A 
ATOM     25  C   UNL     1      45.260   4.258   8.446  0.00  0.00    +0.000 A 
ATOM     26  N   UNL     1      46.172   3.976   7.488  0.00  0.00    +0.000 NA
ATOM     27  C   UNL     1      46.559   2.678   7.419  0.00  0.00    +0.000 A 
ATOM     28  N   UNL     1      46.126   1.685   8.211  0.00  0.00    +0.000 NA
ATOM     29  C   UNL     1      45.223   2.050   9.144  0.00  0.00    +0.000 A 
BRANCH  27  30
ATOM     30  C   UNL     1      47.579   2.344   6.357  0.00  0.00    +0.000 C 
ATOM     31  N   UNL     1      47.560   3.148   5.245  0.00  0.00    +0.000 N 
ATOM     32  O   UNL     1      48.395   1.428   6.447  0.00  0.00    +0.000 OA
ATOM     33  H   UNL     1      46.900   3.922   5.195  0.00  0.00    +0.000 HD
ATOM     34  H   UNL     1      48.233   2.997   4.513  0.00  0.00    +0.000 HD
ENDBRANCH  27  30
ENDBRANCH  22  24
ENDBRANCH  21  22
ENDBRANCH  18  21
ENDBRANCH   1  18
TORSDOF 8
ENDMDL
MODEL 2
REMARK VINA RESULT:    -7.137      2.761      4.352
REMARK INTER + INTRA:         -11.216
REMARK INTER:                 -10.015
REMARK INTRA:                  -1.202
REMARK UNBOUND:                -0.742
REMARK  Name = 
REMARK  12 active torsions:
REMARK  status: ('A' for Active; 'I' for Inactive)
REMARK    1  A    between atoms: C_1  and  C_2
REMARK    2  A    between atoms: N_4  and  C_5
REMARK    3  A    between atoms: C_7  and  C_8
REMARK    4  A    between atoms: C_8  and  C_9
REMARK    5  A    between atoms: C_9  and  C_10
REMARK    6  A    between atoms: C_9  and  C_11
REMARK    7  A    between atoms: C_9  and  C_12
REMARK    8  A    between atoms: C_12  and  N_13
REMARK    9  A    between atoms: N_13  and  C_14
REMARK   10  A    between atoms: C_17  and  C_18
REMARK   11  A    between atoms: C_25  and  C_26
REMARK   12  A    between atoms: C_29  and  C_30
REMARK                            x       y       z     vdW  Elec       q    Type
REMARK                         _______ _______ _______ _____ _____    ______ ____
ROOT
ATOM      1  C   UNL     1      48.571   9.208  13.933  0.00  0.00    +0.000 C 
ENDROOT
BRANCH   1   4
ATOM      2  C   UNL     1      49.600   6.431  16.434  0.00  0.00    +0.000 A 
ATOM      3  C   UNL     1      48.846   7.315  15.628  0.00  0.00    +0.000 A 
ATOM      4  C   UNL     1      49.430   8.278  14.781  0.00  0.00    +0.000 A 
ATOM      5  C   UNL     1      50.824   8.368  14.746  0.00  0.00    +0.000 A 
ATOM      6  C   UNL     1      51.602   7.506  15.517  0.00  0.00    +0.000 A 
ATOM      7  C   UNL     1      51.013   6.546  16.344  0.00  0.00    +0.000 A 
BRANCH   2  11
ATOM      8  C   UNL     1      49.876   2.566  17.150  0.00  0.00    +0.000 C 
ATOM      9  C   UNL     1      48.479   3.099  17.478  0.00  0.00    +0.000 C 
ATOM     10  C   UNL     1      48.162   4.384  16.677  0.00  0.00    +0.000 C 
ATOM     11  N   UNL     1      48.959   5.493  17.225  0.00  0.00    +0.000 N 
ATOM     12  C   UNL     1      48.709   5.706  18.662  0.00  0.00    +0.000 C 
ATOM     13  C   UNL     1      49.051   4.406  19.420  0.00  0.00    +0.000 C 
ATOM     14  C   UNL     1      48.723   4.548  20.900  0.00  0.00    +0.000 C 
ATOM     15  O   UNL     1      48.300   3.288  18.899  0.00  0.00    +0.000 OA
ENDBRANCH   2  11
BRANCH   7  16
ATOM     16  C   UNL     1      51.900   5.641  17.030  0.00  0.00    +0.000 C 
ATOM     17  N   UNL     1      52.633   4.905  17.552  0.00  0.00    +0.000 NA
ENDBRANCH   7  16
ENDBRANCH   1   4
BRANCH   1  18
ATOM     18  C   UNL     1      48.304   8.777  12.453  0.00  0.00    +0.000 C 
ATOM     19  C   UNL     1      48.710   9.905  11.482  0.00  0.00    +0.000 C 
ATOM     20  C   UNL     1      49.067   7.467  12.152  0.00  0.00    +0.000 C 
BRANCH  18  21
ATOM     21  C   UNL     1      46.770   8.518  12.251  0.00  0.00    +0.000 C 
BRANCH  21  22
ATOM     22  N   UNL     1      46.312   7.458  13.160  0.00  0.00    +0.000 N 
ATOM     23  H   UNL     1      45.787   7.810  13.957  0.00  0.00    +0.000 HD
BRANCH  22  24
ATOM     24  C   UNL     1      45.772   6.271  12.685  0.00  0.00    +0.000 A 
ATOM     25  C   UNL     1      45.426   5.180  13.460  0.00  0.00    +0.000 A 
ATOM     26  N   UNL     1      44.831   4.058  12.992  0.00  0.00    +0.000 NA
ATOM     27  C   UNL     1      44.556   4.057  11.665  0.00  0.00    +0.000 A 
ATOM     28  N   UNL     1      44.811   5.057  10.808  0.00  0.00    +0.000 NA
ATOM     29  C   UNL     1      45.398   6.142  11.352  0.00  0.00    +0.000 A 
BRANCH  27  30
ATOM     30  C   UNL     1      43.889   2.814  11.125  0.00  0.00    +0.000 C 
ATOM     31  N   UNL     1      44.446   2.293   9.983  0.00  0.00    +0.000 N 
ATOM     32  O   UNL     1      42.919   2.268  11.648  0.00  0.00    +0.000 OA
ATOM     33  H   UNL     1      45.267   2.735   9.577  0.00  0.00    +0.000 HD
ATOM     34  H   UNL     1      44.067   1.449   9.588  0.00  0.00    +0.000 HD
ENDBRANCH  27  30
ENDBRANCH  22  24
ENDBRANCH  21  22
ENDBRANCH  18  21
ENDBRANCH   1  18
TORSDOF 8
ENDMDL
MODEL 3
REMARK VINA RESULT:    -6.941      1.511      2.330
REMARK INTER + INTRA:         -10.930
REMARK INTER:                 -10.104
REMARK INTRA:                  -0.825
REMARK UNBOUND:                -0.742
REMARK  Name = 
REMARK  12 active torsions:
REMARK  status: ('A' for Active; 'I' for Inactive)
REMARK    1  A    between atoms: C_1  and  C_2
REMARK    2  A    between atoms: N_4  and  C_5
REMARK    3  A    between atoms: C_7  and  C_8
REMARK    4  A    between atoms: C_8  and  C_9
REMARK    5  A    between atoms: C_9  and  C_10
REMARK    6  A    between atoms: C_9  and  C_11
REMARK    7  A    between atoms: C_9  and  C_12
REMARK    8  A    between atoms: C_12  and  N_13
REMARK    9  A    between atoms: N_13  and  C_14
REMARK   10  A    between atoms: C_17  and  C_18
REMARK   11  A    between atoms: C_25  and  C_26
REMARK   12  A    between atoms: C_29  and  C_30
REMARK                            x       y       z     vdW  Elec       q    Type
REMARK                         _______ _______ _______ _____ _____    ______ ____
ROOT
ATOM      1  C   UNL     1      46.379   5.031  12.112  0.00  0.00    +0.000 C 
ENDROOT
BRANCH   1   4
ATOM      2  C   UNL     1      48.360   7.205  14.637  0.00  0.00    +0.000 A 
ATOM      3  C   UNL     1      47.706   6.123  14.004  0.00  0.00    +0.000 A 
ATOM      4  C   UNL     1      47.071   6.230  12.750  0.00  0.00    +0.000 A 
ATOM      5  C   UNL     1      47.082   7.470  12.108  0.00  0.00    +0.000 A 
ATOM      6  C   UNL     1      47.727   8.558  12.694  0.00  0.00    +0.000 A 
ATOM      7  C   UNL     1      48.364   8.439  13.932  0.00  0.00    +0.000 A 
BRANCH   2  11
ATOM      8  C   UNL     1      47.732   5.141  17.933  0.00  0.00    +0.000 C 
ATOM      9  C   UNL     1      48.626   6.355  18.194  0.00  0.00    +0.000 C 
ATOM     10  C   UNL     1      48.400   7.461  17.136  0.00  0.00    +0.000 C 
ATOM     11  N   UNL     1      48.984   7.022  15.859  0.00  0.00    +0.000 N 
ATOM     12  C   UNL     1      50.420   6.709  15.977  0.00  0.00    +0.000 C 
ATOM     13  C   UNL     1      50.596   5.594  17.030  0.00  0.00    +0.000 C 
ATOM     14  C   UNL     1      52.071   5.298  17.253  0.00  0.00    +0.000 C 
ATOM     15  O   UNL     1      50.018   5.980  18.297  0.00  0.00    +0.000 OA
ENDBRANCH   2  11
BRANCH   7  16
ATOM     16  C   UNL     1      49.082   9.593  14.412  0.00  0.00    +0.000 C 
ATOM     17  N   UNL     1      49.648  10.516  14.832  0.00  0.00    +0.000 NA
ENDBRANCH   7  16
ENDBRANCH   1   4
BRANCH   1  18
ATOM     18  C   UNL     1      44.816   4.988  12.188  0.00  0.00    +0.000 C 
ATOM     19  C   UNL     1      44.345   5.144  13.649  0.00  0.00    +0.000 C 
ATOM     20  C   UNL     1      44.226   6.091  11.280  0.00  0.00    +0.000 C 
BRANCH  18  21
ATOM     21  C   UNL     1      44.305   3.596  11.679  0.00  0.00    +0.000 C 
BRANCH  21  22
ATOM     22  N   UNL     1      43.888   3.693  10.273  0.00  0.00    +0.000 N 
ATOM     23  H   UNL     1      43.357   4.535  10.068  0.00  0.00    +0.000 HD
BRANCH  22  24
ATOM     24  C   UNL     1      44.748   3.373   9.232  0.00  0.00    +0.000 A 
ATOM     25  C   UNL     1      45.296   4.273   8.338  0.00  0.00    +0.000 A 
ATOM     26  N   UNL     1      46.192   3.957   7.375  0.00  0.00    +0.000 NA
ATOM     27  C   UNL     1      46.566   2.654   7.334  0.00  0.00    +0.000 A 
ATOM     28  N   UNL     1      46.136   1.687   8.157  0.00  0.00    +0.000 NA
ATOM     29  C   UNL     1      45.250   2.084   9.093  0.00  0.00    +0.000 A 
BRANCH  27  30
ATOM     30  C   UNL     1      47.568   2.284   6.266  0.00  0.00    +0.000 C 
ATOM     31  N   UNL     1      47.514   3.035   5.119  0.00  0.00    +0.000 N 
ATOM     32  O   UNL     1      48.398   1.383   6.381  0.00  0.00    +0.000 OA
ATOM     33  H   UNL     1      46.844   3.797   5.047  0.00  0.00    +0.000 HD
ATOM     34  H   UNL     1      48.173   2.858   4.380  0.00  0.00    +0.000 HD
ENDBRANCH  27  30
ENDBRANCH  22  24
ENDBRANCH  21  22
ENDBRANCH  18  21
ENDBRANCH   1  18
TORSDOF 8
ENDMDL
MODEL 4
REMARK VINA RESULT:    -6.651      2.781      4.593
REMARK INTER + INTRA:         -10.503
REMARK INTER:                  -9.597
REMARK INTRA:                  -0.906
REMARK UNBOUND:                -0.742
REMARK  Name = 
REMARK  12 active torsions:
REMARK  status: ('A' for Active; 'I' for Inactive)
REMARK    1  A    between atoms: C_1  and  C_2
REMARK    2  A    between atoms: N_4  and  C_5
REMARK    3  A    between atoms: C_7  and  C_8
REMARK    4  A    between atoms: C_8  and  C_9
REMARK    5  A    between atoms: C_9  and  C_10
REMARK    6  A    between atoms: C_9  and  C_11
REMARK    7  A    between atoms: C_9  and  C_12
REMARK    8  A    between atoms: C_12  and  N_13
REMARK    9  A    between atoms: N_13  and  C_14
REMARK   10  A    between atoms: C_17  and  C_18
REMARK   11  A    between atoms: C_25  and  C_26
REMARK   12  A    between atoms: C_29  and  C_30
REMARK                            x       y       z     vdW  Elec       q    Type
REMARK                         _______ _______ _______ _____ _____    ______ ____
ROOT
ATOM      1  C   UNL     1      49.391   8.890  13.921  0.00  0.00    +0.000 C 
ENDROOT
BRANCH   1   4
ATOM      2  C   UNL     1      48.739   6.926  17.199  0.00  0.00    +0.000 A 
ATOM      3  C   UNL     1      49.100   7.268  15.875  0.00  0.00    +0.000 A 
ATOM      4  C   UNL     1      48.987   8.574  15.356  0.00  0.00    +0.000 A 
ATOM      5  C   UNL     1      48.484   9.575  16.190  0.00  0.00    +0.000 A 
ATOM      6  C   UNL     1      48.128   9.279  17.505  0.00  0.00    +0.000 A 
ATOM      7  C   UNL     1      48.255   7.984  18.014  0.00  0.00    +0.000 A 
BRANCH   2  11
ATOM      8  C   UNL     1      47.716   3.305  16.030  0.00  0.00    +0.000 C 
ATOM      9  C   UNL     1      47.973   3.356  17.537  0.00  0.00    +0.000 C 
ATOM     10  C   UNL     1      47.777   4.785  18.097  0.00  0.00    +0.000 C 
ATOM     11  N   UNL     1      48.898   5.627  17.649  0.00  0.00    +0.000 N 
ATOM     12  C   UNL     1      50.205   5.087  18.064  0.00  0.00    +0.000 C 
ATOM     13  C   UNL     1      50.362   3.669  17.474  0.00  0.00    +0.000 C 
ATOM     14  C   UNL     1      51.660   3.033  17.949  0.00  0.00    +0.000 C 
ATOM     15  O   UNL     1      49.269   2.815  17.876  0.00  0.00    +0.000 OA
ENDBRANCH   2  11
BRANCH   7  16
ATOM     16  C   UNL     1      47.949   7.797  19.410  0.00  0.00    +0.000 C 
ATOM     17  N   UNL     1      47.723   7.616  20.535  0.00  0.00    +0.000 NA
ENDBRANCH   7  16
ENDBRANCH   1   4
BRANCH   1  18
ATOM     18  C   UNL     1      48.308   8.667  12.812  0.00  0.00    +0.000 C 
ATOM     19  C   UNL     1      47.819  10.021  12.257  0.00  0.00    +0.000 C 
ATOM     20  C   UNL     1      48.893   7.773  11.695  0.00  0.00    +0.000 C 
BRANCH  18  21
ATOM     21  C   UNL     1      47.065   7.940  13.433  0.00  0.00    +0.000 C 
BRANCH  21  22
ATOM     22  N   UNL     1      45.970   7.884  12.455  0.00  0.00    +0.000 N 
ATOM     23  H   UNL     1      46.098   8.518  11.670  0.00  0.00    +0.000 HD
BRANCH  22  24
ATOM     24  C   UNL     1      45.418   6.679  12.045  0.00  0.00    +0.000 A 
ATOM     25  C   UNL     1      45.706   6.025  10.861  0.00  0.00    +0.000 A 
ATOM     26  N   UNL     1      45.217   4.814  10.508  0.00  0.00    +0.000 NA
ATOM     27  C   UNL     1      44.407   4.226  11.423  0.00  0.00    +0.000 A 
ATOM     28  N   UNL     1      44.071   4.734  12.618  0.00  0.00    +0.000 NA
ATOM     29  C   UNL     1      44.604   5.941  12.897  0.00  0.00    +0.000 A 
BRANCH  27  30
ATOM     30  C   UNL     1      43.854   2.872  11.047  0.00  0.00    +0.000 C 
ATOM     31  N   UNL     1      44.445   2.272   9.963  0.00  0.00    +0.000 N 
ATOM     32  O   UNL     1      42.943   2.306  11.651  0.00  0.00    +0.000 OA
ATOM     33  H   UNL     1      45.217   2.736   9.490  0.00  0.00    +0.000 HD
ATOM     34  H   UNL     1      44.142   1.356   9.678  0.00  0.00    +0.000 HD
ENDBRANCH  27  30
ENDBRANCH  22  24
ENDBRANCH  21  22
ENDBRANCH  18  21
ENDBRANCH   1  18
TORSDOF 8
ENDMDL
MODEL 5
REMARK VINA RESULT:    -6.521      2.406      4.018
REMARK INTER + INTRA:         -10.312
REMARK INTER:                 -10.776
REMARK INTRA:                   0.464
REMARK UNBOUND:                -0.742
REMARK  Name = 
REMARK  12 active torsions:
REMARK  status: ('A' for Active; 'I' for Inactive)
REMARK    1  A    between atoms: C_1  and  C_2
REMARK    2  A    between atoms: N_4  and  C_5
REMARK    3  A    between atoms: C_7  and  C_8
REMARK    4  A    between atoms: C_8  and  C_9
REMARK    5  A    between atoms: C_9  and  C_10
REMARK    6  A    between atoms: C_9  and  C_11
REMARK    7  A    between atoms: C_9  and  C_12
REMARK    8  A    between atoms: C_12  and  N_13
REMARK    9  A    between atoms: N_13  and  C_14
REMARK   10  A    between atoms: C_17  and  C_18
REMARK   11  A    between atoms: C_25  and  C_26
REMARK   12  A    between atoms: C_29  and  C_30
REMARK                            x       y       z     vdW  Elec       q    Type
REMARK                         _______ _______ _______ _____ _____    ______ ____
ROOT
ATOM      1  C   UNL     1      45.653   4.781  12.423  0.00  0.00    +0.000 C 
ENDROOT
BRANCH   1   4
ATOM      2  C   UNL     1      48.625   6.706  13.998  0.00  0.00    +0.000 A 
ATOM      3  C   UNL     1      47.635   6.245  13.100  0.00  0.00    +0.000 A 
ATOM      4  C   UNL     1      46.701   5.242  13.428  0.00  0.00    +0.000 A 
ATOM      5  C   UNL     1      46.766   4.669  14.701  0.00  0.00    +0.000 A 
ATOM      6  C   UNL     1      47.720   5.105  15.618  0.00  0.00    +0.000 A 
ATOM      7  C   UNL     1      48.635   6.109  15.287  0.00  0.00    +0.000 A 
BRANCH   2  11
ATOM      8  C   UNL     1      48.593   9.800  11.559  0.00  0.00    +0.000 C 
ATOM      9  C   UNL     1      50.020   9.321  11.839  0.00  0.00    +0.000 C 
ATOM     10  C   UNL     1      50.045   7.832  12.256  0.00  0.00    +0.000 C 
ATOM     11  N   UNL     1      49.497   7.712  13.616  0.00  0.00    +0.000 N 
ATOM     12  C   UNL     1      50.236   8.532  14.593  0.00  0.00    +0.000 C 
ATOM     13  C   UNL     1      50.173  10.008  14.144  0.00  0.00    +0.000 C 
ATOM     14  C   UNL     1      51.000  10.885  15.073  0.00  0.00    +0.000 C 
ATOM     15  O   UNL     1      50.687  10.165  12.803  0.00  0.00    +0.000 OA
ENDBRANCH   2  11
BRANCH   7  16
ATOM     16  C   UNL     1      49.521   6.556  16.332  0.00  0.00    +0.000 C 
ATOM     17  N   UNL     1      50.260   6.927  17.149  0.00  0.00    +0.000 NA
ENDBRANCH   7  16
ENDBRANCH   1   4
BRANCH   1  18
ATOM     18  C   UNL     1      44.355   5.648  12.299  0.00  0.00    +0.000 C 
ATOM     19  C   UNL     1      43.219   5.041  13.148  0.00  0.00    +0.000 C 
ATOM     20  C   UNL     1      44.666   7.102  12.721  0.00  0.00    +0.000 C 
BRANCH  18  21
ATOM     21  C   UNL     1      43.871   5.655  10.807  0.00  0.00    +0.000 C 
BRANCH  21  22
ATOM     22  N   UNL     1      43.687   4.278  10.327  0.00  0.00    +0.000 N 
ATOM     23  H   UNL     1      42.719   4.051  10.115  0.00  0.00    +0.000 HD
BRANCH  22  24
ATOM     24  C   UNL     1      44.554   3.704   9.408  0.00  0.00    +0.000 A 
ATOM     25  C   UNL     1      45.325   4.394   8.491  0.00  0.00    +0.000 A 
ATOM     26  N   UNL     1      46.221   3.826   7.652  0.00  0.00    +0.000 NA
ATOM     27  C   UNL     1      46.354   2.481   7.768  0.00  0.00    +0.000 A 
ATOM     28  N   UNL     1      45.692   1.697   8.632  0.00  0.00    +0.000 NA
ATOM     29  C   UNL     1      44.823   2.340   9.438  0.00  0.00    +0.000 A 
BRANCH  27  30
ATOM     30  C   UNL     1      47.352   1.830   6.841  0.00  0.00    +0.000 C 
ATOM     31  N   UNL     1      48.423   2.610   6.483  0.00  0.00    +0.000 N 
ATOM     32  O   UNL     1      47.253   0.679   6.419  0.00  0.00    +0.000 OA
ATOM     33  H   UNL     1      48.510   3.550   6.861  0.00  0.00    +0.000 HD
ATOM     34  H   UNL     1      49.139   2.226   5.889  0.00  0.00    +0.000 HD
ENDBRANCH  27  30
ENDBRANCH  22  24
ENDBRANCH  21  22
ENDBRANCH  18  21
ENDBRANCH   1  18
TORSDOF 8
ENDMDL
MODEL 6
REMARK VINA RESULT:    -6.434      2.784      4.852
REMARK INTER + INTRA:         -10.185
REMARK INTER:                  -9.109
REMARK INTRA:                  -1.076
REMARK UNBOUND:                -0.742
REMARK  Name = 
REMARK  12 active torsions:
REMARK  status: ('A' for Active; 'I' for Inactive)
REMARK    1  A    between atoms: C_1  and  C_2
REMARK    2  A    between atoms: N_4  and  C_5
REMARK    3  A    between atoms: C_7  and  C_8
REMARK    4  A    between atoms: C_8  and  C_9
REMARK    5  A    between atoms: C_9  and  C_10
REMARK    6  A    between atoms: C_9  and  C_11
REMARK    7  A    between atoms: C_9  and  C_12
REMARK    8  A    between atoms: C_12  and  N_13
REMARK    9  A    between atoms: N_13  and  C_14
REMARK   10  A    between atoms: C_17  and  C_18
REMARK   11  A    between atoms: C_25  and  C_26
REMARK   12  A    between atoms: C_29  and  C_30
REMARK                            x       y       z     vdW  Elec       q    Type
REMARK                         _______ _______ _______ _____ _____    ______ ____
ROOT
ATOM      1  C   UNL     1      50.381   8.358  13.989  0.00  0.00    +0.000 C 
ENDROOT
BRANCH   1   4
ATOM      2  C   UNL     1      50.138   6.504  17.384  0.00  0.00    +0.000 A 
ATOM      3  C   UNL     1      50.126   6.805  16.002  0.00  0.00    +0.000 A 
ATOM      4  C   UNL     1      50.407   8.087  15.488  0.00  0.00    +0.000 A 
ATOM      5  C   UNL     1      50.702   9.110  16.391  0.00  0.00    +0.000 A 
ATOM      6  C   UNL     1      50.735   8.850  17.760  0.00  0.00    +0.000 A 
ATOM      7  C   UNL     1      50.466   7.573  18.259  0.00  0.00    +0.000 A 
BRANCH   2  11
ATOM      8  C   UNL     1      47.417   3.727  16.741  0.00  0.00    +0.000 C 
ATOM      9  C   UNL     1      48.109   3.532  18.092  0.00  0.00    +0.000 C 
ATOM     10  C   UNL     1      48.696   4.861  18.624  0.00  0.00    +0.000 C 
ATOM     11  N   UNL     1      49.874   5.215  17.817  0.00  0.00    +0.000 N 
ATOM     12  C   UNL     1      50.901   4.158  17.830  0.00  0.00    +0.000 C 
ATOM     13  C   UNL     1      50.277   2.858  17.279  0.00  0.00    +0.000 C 
ATOM     14  C   UNL     1      51.274   1.711  17.356  0.00  0.00    +0.000 C 
ATOM     15  O   UNL     1      49.103   2.485  18.036  0.00  0.00    +0.000 OA
ENDBRANCH   2  11
BRANCH   7  16
ATOM     16  C   UNL     1      50.616   7.381  19.680  0.00  0.00    +0.000 C 
ATOM     17  N   UNL     1      50.739   7.190  20.820  0.00  0.00    +0.000 NA
ENDBRANCH   7  16
ENDBRANCH   1   4
BRANCH   1  18
ATOM     18  C   UNL     1      48.974   8.502  13.317  0.00  0.00    +0.000 C 
ATOM     19  C   UNL     1      47.902   8.827  14.377  0.00  0.00    +0.000 C 
ATOM     20  C   UNL     1      49.037   9.590  12.220  0.00  0.00    +0.000 C 
BRANCH  18  21
ATOM     21  C   UNL     1      48.573   7.142  12.647  0.00  0.00    +0.000 C 
BRANCH  21  22
ATOM     22  N   UNL     1      47.441   6.539  13.364  0.00  0.00    +0.000 N 
ATOM     23  H   UNL     1      46.874   7.217  13.866  0.00  0.00    +0.000 HD
BRANCH  22  24
ATOM     24  C   UNL     1      46.655   5.551  12.789  0.00  0.00    +0.000 A 
ATOM     25  C   UNL     1      46.360   4.326  13.358  0.00  0.00    +0.000 A 
ATOM     26  N   UNL     1      45.531   3.403  12.819  0.00  0.00    +0.000 NA
ATOM     27  C   UNL     1      44.953   3.757  11.644  0.00  0.00    +0.000 A 
ATOM     28  N   UNL     1      45.129   4.921  11.001  0.00  0.00    +0.000 NA
ATOM     29  C   UNL     1      45.964   5.789  11.606  0.00  0.00    +0.000 A 
BRANCH  27  30
ATOM     30  C   UNL     1      44.022   2.740  11.028  0.00  0.00    +0.000 C 
ATOM     31  N   UNL     1      44.461   2.169   9.860  0.00  0.00    +0.000 N 
ATOM     32  O   UNL     1      42.941   2.411  11.514  0.00  0.00    +0.000 OA
ATOM     33  H   UNL     1      45.370   2.426   9.483  0.00  0.00    +0.000 HD
ATOM     34  H   UNL     1      43.900   1.462   9.413  0.00  0.00    +0.000 HD
ENDBRANCH  27  30
ENDBRANCH  22  24
ENDBRANCH  21  22
ENDBRANCH  18  21
ENDBRANCH   1  18
TORSDOF 8
ENDMDL
MODEL 7
REMARK VINA RESULT:    -6.282      2.913      8.288
REMARK INTER + INTRA:          -9.962
REMARK INTER:                  -8.671
REMARK INTRA:                  -1.291
REMARK UNBOUND:                -0.742
REMARK  Name = 
REMARK  12 active torsions:
REMARK  status: ('A' for Active; 'I' for Inactive)
REMARK    1  A    between atoms: C_1  and  C_2
REMARK    2  A    between atoms: N_4  and  C_5
REMARK    3  A    between atoms: C_7  and  C_8
REMARK    4  A    between atoms: C_8  and  C_9
REMARK    5  A    between atoms: C_9  and  C_10
REMARK    6  A    between atoms: C_9  and  C_11
REMARK    7  A    between atoms: C_9  and  C_12
REMARK    8  A    between atoms: C_12  and  N_13
REMARK    9  A    between atoms: N_13  and  C_14
REMARK   10  A    between atoms: C_17  and  C_18
REMARK   11  A    between atoms: C_25  and  C_26
REMARK   12  A    between atoms: C_29  and  C_30
REMARK                            x       y       z     vdW  Elec       q    Type
REMARK                         _______ _______ _______ _____ _____    ______ ____
ROOT
ATOM      1  C   UNL     1      49.833   8.999  13.058  0.00  0.00    +0.000 C 
ENDROOT
BRANCH   1   4
ATOM      2  C   UNL     1      46.510   7.393  11.875  0.00  0.00    +0.000 A 
ATOM      3  C   UNL     1      47.834   7.581  12.336  0.00  0.00    +0.000 A 
ATOM      4  C   UNL     1      48.400   8.851  12.561  0.00  0.00    +0.000 A 
ATOM      5  C   UNL     1      47.617   9.979  12.305  0.00  0.00    +0.000 A 
ATOM      6  C   UNL     1      46.303   9.834  11.862  0.00  0.00    +0.000 A 
ATOM      7  C   UNL     1      45.746   8.570  11.653  0.00  0.00    +0.000 A 
BRANCH   2  11
ATOM      8  C   UNL     1      43.404   5.298  13.095  0.00  0.00    +0.000 C 
ATOM      9  C   UNL     1      44.564   4.390  12.678  0.00  0.00    +0.000 C 
ATOM     10  C   UNL     1      45.922   5.124  12.783  0.00  0.00    +0.000 C 
ATOM     11  N   UNL     1      46.010   6.114  11.698  0.00  0.00    +0.000 N 
ATOM     12  C   UNL     1      45.858   5.500  10.366  0.00  0.00    +0.000 C 
ATOM     13  C   UNL     1      44.487   4.793  10.303  0.00  0.00    +0.000 C 
ATOM     14  C   UNL     1      44.320   4.067   8.976  0.00  0.00    +0.000 C 
ATOM     15  O   UNL     1      44.354   3.824  11.366  0.00  0.00    +0.000 OA
ENDBRANCH   2  11
BRANCH   7  16
ATOM     16  C   UNL     1      44.354   8.521  11.283  0.00  0.00    +0.000 C 
ATOM     17  N   UNL     1      43.223   8.478  11.020  0.00  0.00    +0.000 NA
ENDBRANCH   7  16
ENDBRANCH   1   4
BRANCH   1  18
ATOM     18  C   UNL     1      50.038   9.712  14.437  0.00  0.00    +0.000 C 
ATOM     19  C   UNL     1      51.313   9.187  15.130  0.00  0.00    +0.000 C 
ATOM     20  C   UNL     1      50.098  11.241  14.221  0.00  0.00    +0.000 C 
BRANCH  18  21
ATOM     21  C   UNL     1      48.827   9.388  15.379  0.00  0.00    +0.000 C 
BRANCH  21  22
ATOM     22  N   UNL     1      49.280   8.601  16.534  0.00  0.00    +0.000 N 
ATOM     23  H   UNL     1      49.222   9.107  17.414  0.00  0.00    +0.000 HD
BRANCH  22  24
ATOM     24  C   UNL     1      48.926   7.269  16.694  0.00  0.00    +0.000 A 
ATOM     25  C   UNL     1      48.608   6.661  17.894  0.00  0.00    +0.000 A 
ATOM     26  N   UNL     1      48.192   5.380  18.025  0.00  0.00    +0.000 NA
ATOM     27  C   UNL     1      48.073   4.687  16.866  0.00  0.00    +0.000 A 
ATOM     28  N   UNL     1      48.320   5.162  15.636  0.00  0.00    +0.000 NA
ATOM     29  C   UNL     1      48.724   6.448  15.590  0.00  0.00    +0.000 A 
BRANCH  27  30
ATOM     30  C   UNL     1      47.608   3.256  16.993  0.00  0.00    +0.000 C 
ATOM     31  N   UNL     1      48.526   2.301  16.633  0.00  0.00    +0.000 N 
ATOM     32  O   UNL     1      46.493   2.926  17.394  0.00  0.00    +0.000 OA
ATOM     33  H   UNL     1      49.456   2.585  16.331  0.00  0.00    +0.000 HD
ATOM     34  H   UNL     1      48.289   1.327  16.721  0.00  0.00    +0.000 HD
ENDBRANCH  27  30
ENDBRANCH  22  24
ENDBRANCH  21  22
ENDBRANCH  18  21
ENDBRANCH   1  18
TORSDOF 8
ENDMDL
MODEL 8
REMARK VINA RESULT:    -6.264      3.034      4.896
REMARK INTER + INTRA:          -9.935
REMARK INTER:                  -8.721
REMARK INTRA:                  -1.214
REMARK UNBOUND:                -0.742
REMARK  Name = 
REMARK  12 active torsions:
REMARK  status: ('A' for Active; 'I' for Inactive)
REMARK    1  A    between atoms: C_1  and  C_2
REMARK    2  A    between atoms: N_4  and  C_5
REMARK    3  A    between atoms: C_7  and  C_8
REMARK    4  A    between atoms: C_8  and  C_9
REMARK    5  A    between atoms: C_9  and  C_10
REMARK    6  A    between atoms: C_9  and  C_11
REMARK    7  A    between atoms: C_9  and  C_12
REMARK    8  A    between atoms: C_12  and  N_13
REMARK    9  A    between atoms: N_13  and  C_14
REMARK   10  A    between atoms: C_17  and  C_18
REMARK   11  A    between atoms: C_25  and  C_26
REMARK   12  A    between atoms: C_29  and  C_30
REMARK                            x       y       z     vdW  Elec       q    Type
REMARK                         _______ _______ _______ _____ _____    ______ ____
ROOT
ATOM      1  C   UNL     1      50.099   9.456  13.657  0.00  0.00    +0.000 C 
ENDROOT
BRANCH   1   4
ATOM      2  C   UNL     1      49.103   7.117  16.583  0.00  0.00    +0.000 A 
ATOM      3  C   UNL     1      49.632   7.619  15.371  0.00  0.00    +0.000 A 
ATOM      4  C   UNL     1      49.510   8.966  14.974  0.00  0.00    +0.000 A 
ATOM      5  C   UNL     1      48.823   9.843  15.816  0.00  0.00    +0.000 A 
ATOM      6  C   UNL     1      48.297   9.389  17.025  0.00  0.00    +0.000 A 
ATOM      7  C   UNL     1      48.434   8.055  17.415  0.00  0.00    +0.000 A 
BRANCH   2  11
ATOM      8  C   UNL     1      50.234   5.054  19.743  0.00  0.00    +0.000 C 
ATOM      9  C   UNL     1      50.447   4.262  18.451  0.00  0.00    +0.000 C 
ATOM     10  C   UNL     1      50.594   5.201  17.230  0.00  0.00    +0.000 C 
ATOM     11  N   UNL     1      49.280   5.786  16.921  0.00  0.00    +0.000 N 
ATOM     12  C   UNL     1      48.256   4.759  16.659  0.00  0.00    +0.000 C 
ATOM     13  C   UNL     1      48.134   3.857  17.906  0.00  0.00    +0.000 C 
ATOM     14  C   UNL     1      47.151   2.723  17.651  0.00  0.00    +0.000 C 
ATOM     15  O   UNL     1      49.410   3.275  18.253  0.00  0.00    +0.000 OA
ENDBRANCH   2  11
BRANCH   7  16
ATOM     16  C   UNL     1      47.939   7.701  18.722  0.00  0.00    +0.000 C 
ATOM     17  N   UNL     1      47.514   7.397  19.760  0.00  0.00    +0.000 NA
ENDBRANCH   7  16
ENDBRANCH   1   4
BRANCH   1  18
ATOM     18  C   UNL     1      49.422   8.946  12.341  0.00  0.00    +0.000 C 
ATOM     19  C   UNL     1      49.235  10.109  11.345  0.00  0.00    +0.000 C 
ATOM     20  C   UNL     1      50.273   7.808  11.732  0.00  0.00    +0.000 C 
BRANCH  18  21
ATOM     21  C   UNL     1      47.997   8.380  12.671  0.00  0.00    +0.000 C 
BRANCH  21  22
ATOM     22  N   UNL     1      47.469   7.632  11.522  0.00  0.00    +0.000 N 
ATOM     23  H   UNL     1      48.146   7.518  10.771  0.00  0.00    +0.000 HD
BRANCH  22  24
ATOM     24  C   UNL     1      46.699   6.490  11.684  0.00  0.00    +0.000 A 
ATOM     25  C   UNL     1      46.629   5.726  12.835  0.00  0.00    +0.000 A 
ATOM     26  N   UNL     1      45.817   4.657  13.004  0.00  0.00    +0.000 NA
ATOM     27  C   UNL     1      45.015   4.364  11.950  0.00  0.00    +0.000 A 
ATOM     28  N   UNL     1      44.962   5.037  10.792  0.00  0.00    +0.000 NA
ATOM     29  C   UNL     1      45.797   6.092  10.704  0.00  0.00    +0.000 A 
BRANCH  27  30
ATOM     30  C   UNL     1      44.100   3.175  12.122  0.00  0.00    +0.000 C 
ATOM     31  N   UNL     1      43.972   2.364  11.023  0.00  0.00    +0.000 N 
ATOM     32  O   UNL     1      43.498   2.912  13.162  0.00  0.00    +0.000 OA
ATOM     33  H   UNL     1      44.497   2.574  10.177  0.00  0.00    +0.000 HD
ATOM     34  H   UNL     1      43.399   1.539  11.080  0.00  0.00    +0.000 HD
ENDBRANCH  27  30
ENDBRANCH  22  24
ENDBRANCH  21  22
ENDBRANCH  18  21
ENDBRANCH   1  18
TORSDOF 8
ENDMDL
MODEL 9
REMARK VINA RESULT:    -6.150      3.579      6.234
REMARK INTER + INTRA:          -9.768
REMARK INTER:                  -8.389
REMARK INTRA:                  -1.378
REMARK UNBOUND:                -0.742
REMARK  Name = 
REMARK  12 active torsions:
REMARK  status: ('A' for Active; 'I' for Inactive)
REMARK    1  A    between atoms: C_1  and  C_2
REMARK    2  A    between atoms: N_4  and  C_5
REMARK    3  A    between atoms: C_7  and  C_8
REMARK    4  A    between atoms: C_8  and  C_9
REMARK    5  A    between atoms: C_9  and  C_10
REMARK    6  A    between atoms: C_9  and  C_11
REMARK    7  A    between atoms: C_9  and  C_12
REMARK    8  A    between atoms: C_12  and  N_13
REMARK    9  A    between atoms: N_13  and  C_14
REMARK   10  A    between atoms: C_17  and  C_18
REMARK   11  A    between atoms: C_25  and  C_26
REMARK   12  A    between atoms: C_29  and  C_30
REMARK                            x       y       z     vdW  Elec       q    Type
REMARK                         _______ _______ _______ _____ _____    ______ ____
ROOT
ATOM      1  C   UNL     1      49.724   4.444  17.004  0.00  0.00    +0.000 C 
ENDROOT
BRANCH   1   4
ATOM      2  C   UNL     1      48.869   8.046  15.857  0.00  0.00    +0.000 A 
ATOM      3  C   UNL     1      49.181   6.667  15.866  0.00  0.00    +0.000 A 
ATOM      4  C   UNL     1      49.389   5.930  17.049  0.00  0.00    +0.000 A 
ATOM      5  C   UNL     1      49.292   6.601  18.271  0.00  0.00    +0.000 A 
ATOM      6  C   UNL     1      48.975   7.957  18.303  0.00  0.00    +0.000 A 
ATOM      7  C   UNL     1      48.758   8.676  17.125  0.00  0.00    +0.000 A 
BRANCH   2  11
ATOM      8  C   UNL     1      50.140   7.780  12.137  0.00  0.00    +0.000 C 
ATOM      9  C   UNL     1      49.620   9.184  12.452  0.00  0.00    +0.000 C 
ATOM     10  C   UNL     1      49.691   9.486  13.968  0.00  0.00    +0.000 C 
ATOM     11  N   UNL     1      48.654   8.702  14.656  0.00  0.00    +0.000 N 
ATOM     12  C   UNL     1      47.302   8.984  14.138  0.00  0.00    +0.000 C 
ATOM     13  C   UNL     1      47.275   8.656  12.630  0.00  0.00    +0.000 C 
ATOM     14  C   UNL     1      45.924   9.015  12.030  0.00  0.00    +0.000 C 
ATOM     15  O   UNL     1      48.294   9.394  11.920  0.00  0.00    +0.000 OA
ENDBRANCH   2  11
BRANCH   7  16
ATOM     16  C   UNL     1      48.344  10.050  17.264  0.00  0.00    +0.000 C 
ATOM     17  N   UNL     1      48.011  11.154  17.411  0.00  0.00    +0.000 NA
ENDBRANCH   7  16
ENDBRANCH   1   4
BRANCH   1  18
ATOM     18  C   UNL     1      48.523   3.442  17.057  0.00  0.00    +0.000 C 
ATOM     19  C   UNL     1      48.927   2.085  16.443  0.00  0.00    +0.000 C 
ATOM     20  C   UNL     1      48.048   3.284  18.519  0.00  0.00    +0.000 C 
BRANCH  18  21
ATOM     21  C   UNL     1      47.334   4.005  16.204  0.00  0.00    +0.000 C 
BRANCH  21  22
ATOM     22  N   UNL     1      47.408   3.493  14.829  0.00  0.00    +0.000 N 
ATOM     23  H   UNL     1      47.547   2.486  14.782  0.00  0.00    +0.000 HD
BRANCH  22  24
ATOM     24  C   UNL     1      46.539   3.929  13.839  0.00  0.00    +0.000 A 
ATOM     25  C   UNL     1      45.960   3.131  12.871  0.00  0.00    +0.000 A 
ATOM     26  N   UNL     1      45.056   3.556  11.958  0.00  0.00    +0.000 NA
ATOM     27  C   UNL     1      44.708   4.864  12.051  0.00  0.00    +0.000 A 
ATOM     28  N   UNL     1      45.170   5.738  12.957  0.00  0.00    +0.000 NA
ATOM     29  C   UNL     1      46.062   5.235  13.835  0.00  0.00    +0.000 A 
BRANCH  27  30
ATOM     30  C   UNL     1      43.699   5.356  11.041  0.00  0.00    +0.000 C 
ATOM     31  N   UNL     1      43.844   4.860   9.770  0.00  0.00    +0.000 N 
ATOM     32  O   UNL     1      42.788   6.141  11.302  0.00  0.00    +0.000 OA
ATOM     33  H   UNL     1      44.582   4.188   9.573  0.00  0.00    +0.000 HD
ATOM     34  H   UNL     1      43.186   5.126   9.056  0.00  0.00    +0.000 HD
ENDBRANCH  27  30
ENDBRANCH  22  24
ENDBRANCH  21  22
ENDBRANCH  18  21
ENDBRANCH   1  18
TORSDOF 8
ENDMDL
