MODEL 1
REMARK VINA RESULT:    -7.530      0.000      0.000
REMARK INTER + INTRA:         -11.163
REMARK INTER:                 -10.172
REMARK INTRA:                  -0.992
REMARK UNBOUND:                -0.992
REMARK  Name = 
REMARK  6 active torsions:
REMARK  status: ('A' for Active; 'I' for Inactive)
REMARK    1  A    between atoms: C_7  and  C_8
REMARK    2  A    between atoms: N_10  and  C_11
REMARK    3  A    between atoms: C_11  and  C_12
REMARK    4  A    between atoms: N_15  and  C_16
REMARK    5  A    between atoms: C_16  and  C_17
REMARK    6  A    between atoms: C_17  and  C_18
REMARK                            x       y       z     vdW  Elec       q    Type
REMARK                         _______ _______ _______ _____ _____    ______ ____
ROOT
ATOM      1  C   UNL     1      48.811   7.289  14.740  0.00  0.00    +0.000 C 
ATOM      2  O   UNL     1      49.730   7.034  13.965  0.00  0.00    +0.000 OA
ATOM      3  N   UNL     1      47.572   7.668  14.273  0.00  0.00    +0.000 N 
ATOM      4  H   UNL     1      46.800   7.784  14.925  0.00  0.00    +0.000 HD
ENDROOT
BRANCH   1  11
ATOM      5  N   UNL     1      48.600   3.626  20.399  0.00  0.00    +0.000 N 
ATOM      6  C   UNL     1      48.682   4.500  19.367  0.00  0.00    +0.000 A 
ATOM      7  N   UNL     1      49.067   5.723  19.566  0.00  0.00    +0.000 NA
ATOM      8  C   UNL     1      49.131   6.499  18.451  0.00  0.00    +0.000 A 
ATOM      9  S   UNL     1      49.651   8.115  18.554  0.00  0.00    +0.000 S 
ATOM     10  C   UNL     1      49.482   8.332  16.875  0.00  0.00    +0.000 A 
ATOM     11  C   UNL     1      49.016   7.207  16.198  0.00  0.00    +0.000 A 
ATOM     12  C   UNL     1      48.824   6.135  17.154  0.00  0.00    +0.000 A 
ATOM     13  C   UNL     1      48.381   4.766  16.978  0.00  0.00    +0.000 A 
ATOM     14  O   UNL     1      48.078   4.277  15.889  0.00  0.00    +0.000 OA
ATOM     15  N   UNL     1      48.333   4.021  18.132  0.00  0.00    +0.000 N 
ATOM     16  H   UNL     1      48.645   4.079  21.307  0.00  0.00    +0.000 HD
ATOM     17  H   UNL     1      47.923   2.878  20.351  0.00  0.00    +0.000 HD
ATOM     18  H   UNL     1      48.078   3.054  18.023  0.00  0.00    +0.000 HD
ENDBRANCH   1  11
BRANCH   3  19
ATOM     19  C   UNL     1      47.281   7.776  12.846  0.00  0.00    +0.000 C 
BRANCH  19  20
ATOM     20  C   UNL     1      46.484   6.576  12.339  0.00  0.00    +0.000 C 
ATOM     21  C   UNL     1      45.961   5.692  13.470  0.00  0.00    +0.000 C 
ATOM     22  C   UNL     1      45.401   4.408  12.863  0.00  0.00    +0.000 C 
ATOM     23  N   UNL     1      44.312   4.643  11.895  0.00  0.00    +0.000 NA
ATOM     24  C   UNL     1      44.679   5.658  10.880  0.00  0.00    +0.000 C 
ATOM     25  C   UNL     1      45.264   6.944  11.481  0.00  0.00    +0.000 C 
BRANCH  23  26
ATOM     26  C   UNL     1      43.967   3.382  11.198  0.00  0.00    +0.000 C 
BRANCH  26  27
ATOM     27  C   UNL     1      45.071   2.861  10.262  0.00  0.00    +0.000 C 
BRANCH  27  28
ATOM     28  C   UNL     1      44.577   2.532   8.836  0.00  0.00    +0.000 C 
ATOM     29  C   UNL     1      45.174   1.193   8.361  0.00  0.00    +0.000 C 
ATOM     30  C   UNL     1      46.651   1.317   7.971  0.00  0.00    +0.000 C 
ATOM     31  N   UNL     1      46.856   2.347   6.951  0.00  0.00    +0.000 NA
ATOM     32  C   UNL     1      46.386   3.651   7.421  0.00  0.00    +0.000 C 
ATOM     33  C   UNL     1      44.903   3.616   7.792  0.00  0.00    +0.000 C 
ATOM     34  H   UNL     1      46.325   2.090   6.117  0.00  0.00    +0.000 HD
ENDBRANCH  27  28
ENDBRANCH  26  27
ENDBRANCH  23  26
ENDBRANCH  19  20
ENDBRANCH   3  19
TORSDOF 6
ENDMDL
MODEL 2
REMARK VINA RESULT:    -6.993      3.232      7.778
REMARK INTER + INTRA:         -10.438
REMARK INTER:                  -8.818
REMARK INTRA:                  -1.619
REMARK UNBOUND:                -0.992
REMARK  Name = 
REMARK  6 active torsions:
REMARK  status: ('A' for Active; 'I' for Inactive)
REMARK    1  A    between atoms: C_7  and  C_8
REMARK    2  A    between atoms: N_10  and  C_11
REMARK    3  A    between atoms: C_11  and  C_12
REMARK    4  A    between atoms: N_15  and  C_16
REMARK    5  A    between atoms: C_16  and  C_17
REMARK    6  A    between atoms: C_17  and  C_18
REMARK                            x       y       z     vdW  Elec       q    Type
REMARK                         _______ _______ _______ _____ _____    ______ ____
ROOT
ATOM      1  C   UNL     1      46.896   7.277  12.766  0.00  0.00    +0.000 C 
ATOM      2  O   UNL     1      47.998   6.933  12.344  0.00  0.00    +0.000 OA
ATOM      3  N   UNL     1      46.780   8.244  13.740  0.00  0.00    +0.000 N 
ATOM      4  H   UNL     1      45.858   8.581  14.010  0.00  0.00    +0.000 HD
ENDROOT
BRANCH   1  11
ATOM      5  N   UNL     1      43.166   1.723  11.923  0.00  0.00    +0.000 N 
ATOM      6  C   UNL     1      43.794   2.922  11.992  0.00  0.00    +0.000 A 
ATOM      7  N   UNL     1      43.250   3.983  11.481  0.00  0.00    +0.000 NA
ATOM      8  C   UNL     1      43.963   5.130  11.633  0.00  0.00    +0.000 A 
ATOM      9  S   UNL     1      43.359   6.606  11.042  0.00  0.00    +0.000 S 
ATOM     10  C   UNL     1      44.719   7.453  11.617  0.00  0.00    +0.000 A 
ATOM     11  C   UNL     1      45.666   6.651  12.248  0.00  0.00    +0.000 A 
ATOM     12  C   UNL     1      45.191   5.283  12.251  0.00  0.00    +0.000 A 
ATOM     13  C   UNL     1      45.772   4.070  12.792  0.00  0.00    +0.000 A 
ATOM     14  O   UNL     1      46.852   4.030  13.382  0.00  0.00    +0.000 OA
ATOM     15  N   UNL     1      45.014   2.937  12.616  0.00  0.00    +0.000 N 
ATOM     16  H   UNL     1      42.392   1.718  11.266  0.00  0.00    +0.000 HD
ATOM     17  H   UNL     1      43.725   0.881  11.900  0.00  0.00    +0.000 HD
ATOM     18  H   UNL     1      45.376   2.094  13.029  0.00  0.00    +0.000 HD
ENDBRANCH   1  11
BRANCH   3  19
ATOM     19  C   UNL     1      47.944   8.916  14.310  0.00  0.00    +0.000 C 
BRANCH  19  20
ATOM     20  C   UNL     1      48.559   8.110  15.453  0.00  0.00    +0.000 C 
ATOM     21  C   UNL     1      49.980   7.640  15.150  0.00  0.00    +0.000 C 
ATOM     22  C   UNL     1      50.405   6.651  16.231  0.00  0.00    +0.000 C 
ATOM     23  N   UNL     1      50.368   7.219  17.593  0.00  0.00    +0.000 NA
ATOM     24  C   UNL     1      49.077   7.884  17.884  0.00  0.00    +0.000 C 
ATOM     25  C   UNL     1      48.631   8.864  16.790  0.00  0.00    +0.000 C 
BRANCH  23  26
ATOM     26  C   UNL     1      50.587   6.152  18.598  0.00  0.00    +0.000 C 
BRANCH  26  27
ATOM     27  C   UNL     1      50.432   4.726  18.042  0.00  0.00    +0.000 C 
BRANCH  27  28
ATOM     28  C   UNL     1      49.202   3.972  18.591  0.00  0.00    +0.000 C 
ATOM     29  C   UNL     1      49.096   2.579  17.938  0.00  0.00    +0.000 C 
ATOM     30  C   UNL     1      48.584   2.648  16.495  0.00  0.00    +0.000 C 
ATOM     31  N   UNL     1      47.297   3.341  16.411  0.00  0.00    +0.000 NA
ATOM     32  C   UNL     1      47.400   4.703  16.934  0.00  0.00    +0.000 C 
ATOM     33  C   UNL     1      47.867   4.715  18.390  0.00  0.00    +0.000 C 
ATOM     34  H   UNL     1      46.613   2.827  16.969  0.00  0.00    +0.000 HD
ENDBRANCH  27  28
ENDBRANCH  26  27
ENDBRANCH  23  26
ENDBRANCH  19  20
ENDBRANCH   3  19
TORSDOF 6
ENDMDL
MODEL 3
REMARK VINA RESULT:    -6.981      3.231      9.441
REMARK INTER + INTRA:         -10.422
REMARK INTER:                  -9.412
REMARK INTRA:                  -1.010
REMARK UNBOUND:                -0.992
REMARK  Name = 
REMARK  6 active torsions:
REMARK  status: ('A' for Active; 'I' for Inactive)
REMARK    1  A    between atoms: C_7  and  C_8
REMARK    2  A    between atoms: N_10  and  C_11
REMARK    3  A    between atoms: C_11  and  C_12
REMARK    4  A    between atoms: N_15  and  C_16
REMARK    5  A    between atoms: C_16  and  C_17
REMARK    6  A    between atoms: C_17  and  C_18
REMARK                            x       y       z     vdW  Elec       q    Type
REMARK                         _______ _______ _______ _____ _____    ______ ____
ROOT
ATOM      1  C   UNL     1      44.396   4.512  10.664  0.00  0.00    +0.000 C 
ATOM      2  O   UNL     1      43.239   4.598  11.068  0.00  0.00    +0.000 OA
ATOM      3  N   UNL     1      45.358   5.413  11.066  0.00  0.00    +0.000 N 
ATOM      4  H   UNL     1      46.328   5.272  10.795  0.00  0.00    +0.000 HD
ENDROOT
BRANCH   1  11
ATOM      5  N   UNL     1      48.027   2.572   5.322  0.00  0.00    +0.000 N 
ATOM      6  C   UNL     1      47.223   2.801   6.389  0.00  0.00    +0.000 A 
ATOM      7  N   UNL     1      46.483   1.851   6.874  0.00  0.00    +0.000 NA
ATOM      8  C   UNL     1      45.737   2.194   7.957  0.00  0.00    +0.000 A 
ATOM      9  S   UNL     1      44.744   1.043   8.720  0.00  0.00    +0.000 S 
ATOM     10  C   UNL     1      44.237   2.175   9.885  0.00  0.00    +0.000 A 
ATOM     11  C   UNL     1      44.784   3.446   9.722  0.00  0.00    +0.000 A 
ATOM     12  C   UNL     1      45.674   3.427   8.579  0.00  0.00    +0.000 A 
ATOM     13  C   UNL     1      46.501   4.464   7.995  0.00  0.00    +0.000 A 
ATOM     14  O   UNL     1      46.571   5.614   8.431  0.00  0.00    +0.000 OA
ATOM     15  N   UNL     1      47.237   4.070   6.904  0.00  0.00    +0.000 N 
ATOM     16  H   UNL     1      47.814   1.702   4.844  0.00  0.00    +0.000 HD
ATOM     17  H   UNL     1      48.236   3.338   4.698  0.00  0.00    +0.000 HD
ATOM     18  H   UNL     1      47.857   4.761   6.515  0.00  0.00    +0.000 HD
ENDBRANCH   1  11
BRANCH   3  19
ATOM     19  C   UNL     1      45.062   6.500  11.994  0.00  0.00    +0.000 C 
BRANCH  19  20
ATOM     20  C   UNL     1      46.125   6.618  13.085  0.00  0.00    +0.000 C 
ATOM     21  C   UNL     1      46.683   5.264  13.518  0.00  0.00    +0.000 C 
ATOM     22  C   UNL     1      47.542   5.468  14.762  0.00  0.00    +0.000 C 
ATOM     23  N   UNL     1      48.663   6.404  14.554  0.00  0.00    +0.000 NA
ATOM     24  C   UNL     1      48.220   7.675  13.935  0.00  0.00    +0.000 C 
ATOM     25  C   UNL     1      47.337   7.478  12.695  0.00  0.00    +0.000 C 
BRANCH  23  26
ATOM     26  C   UNL     1      49.319   6.712  15.847  0.00  0.00    +0.000 C 
BRANCH  26  27
ATOM     27  C   UNL     1      48.756   5.921  17.040  0.00  0.00    +0.000 C 
BRANCH  27  28
ATOM     28  C   UNL     1      49.765   4.936  17.669  0.00  0.00    +0.000 C 
ATOM     29  C   UNL     1      49.360   3.483  17.352  0.00  0.00    +0.000 C 
ATOM     30  C   UNL     1      48.167   3.012  18.190  0.00  0.00    +0.000 C 
ATOM     31  N   UNL     1      48.423   3.159  19.624  0.00  0.00    +0.000 NA
ATOM     32  C   UNL     1      48.711   4.553  19.965  0.00  0.00    +0.000 C 
ATOM     33  C   UNL     1      49.920   5.084  19.194  0.00  0.00    +0.000 C 
ATOM     34  H   UNL     1      49.233   2.589  19.871  0.00  0.00    +0.000 HD
ENDBRANCH  27  28
ENDBRANCH  26  27
ENDBRANCH  23  26
ENDBRANCH  19  20
ENDBRANCH   3  19
TORSDOF 6
ENDMDL
MODEL 4
REMARK VINA RESULT:    -6.964      2.588      2.894
REMARK INTER + INTRA:         -10.399
REMARK INTER:                  -9.710
REMARK INTRA:                  -0.689
REMARK UNBOUND:                -0.992
REMARK  Name = 
REMARK  6 active torsions:
REMARK  status: ('A' for Active; 'I' for Inactive)
REMARK    1  A    between atoms: C_7  and  C_8
REMARK    2  A    between atoms: N_10  and  C_11
REMARK    3  A    between atoms: C_11  and  C_12
REMARK    4  A    between atoms: N_15  and  C_16
REMARK    5  A    between atoms: C_16  and  C_17
REMARK    6  A    between atoms: C_17  and  C_18
REMARK                            x       y       z     vdW  Elec       q    Type
REMARK                         _______ _______ _______ _____ _____    ______ ____
ROOT
ATOM      1  C   UNL     1      49.564   6.006  16.795  0.00  0.00    +0.000 C 
ATOM      2  O   UNL     1      48.779   6.501  17.602  0.00  0.00    +0.000 OA
ATOM      3  N   UNL     1      49.373   6.153  15.438  0.00  0.00    +0.000 N 
ATOM      4  H   UNL     1      50.081   5.817  14.789  0.00  0.00    +0.000 HD
ENDROOT
BRANCH   1  11
ATOM      5  N   UNL     1      52.357  -0.003  18.049  0.00  0.00    +0.000 N 
ATOM      6  C   UNL     1      51.942   1.275  17.869  0.00  0.00    +0.000 A 
ATOM      7  N   UNL     1      52.727   2.269  18.148  0.00  0.00    +0.000 NA
ATOM      8  C   UNL     1      52.209   3.503  17.905  0.00  0.00    +0.000 A 
ATOM      9  S   UNL     1      53.135   4.900  18.192  0.00  0.00    +0.000 S 
ATOM     10  C   UNL     1      51.877   5.910  17.652  0.00  0.00    +0.000 A 
ATOM     11  C   UNL     1      50.727   5.228  17.260  0.00  0.00    +0.000 A 
ATOM     12  C   UNL     1      50.953   3.806  17.413  0.00  0.00    +0.000 A 
ATOM     13  C   UNL     1      50.101   2.667  17.131  0.00  0.00    +0.000 A 
ATOM     14  O   UNL     1      48.960   2.758  16.680  0.00  0.00    +0.000 OA
ATOM     15  N   UNL     1      50.669   1.442  17.392  0.00  0.00    +0.000 N 
ATOM     16  H   UNL     1      53.201  -0.071  18.608  0.00  0.00    +0.000 HD
ATOM     17  H   UNL     1      51.669  -0.712  18.262  0.00  0.00    +0.000 HD
ATOM     18  H   UNL     1      50.113   0.638  17.155  0.00  0.00    +0.000 HD
ENDBRANCH   1  11
BRANCH   3  19
ATOM     19  C   UNL     1      48.249   6.906  14.890  0.00  0.00    +0.000 C 
BRANCH  19  20
ATOM     20  C   UNL     1      47.524   6.123  13.797  0.00  0.00    +0.000 C 
ATOM     21  C   UNL     1      46.745   4.928  14.341  0.00  0.00    +0.000 C 
ATOM     22  C   UNL     1      46.269   4.082  13.164  0.00  0.00    +0.000 C 
ATOM     23  N   UNL     1      45.412   4.822  12.218  0.00  0.00    +0.000 NA
ATOM     24  C   UNL     1      46.020   6.108  11.805  0.00  0.00    +0.000 C 
ATOM     25  C   UNL     1      46.522   6.956  12.983  0.00  0.00    +0.000 C 
BRANCH  23  26
ATOM     26  C   UNL     1      45.165   4.006  11.006  0.00  0.00    +0.000 C 
BRANCH  26  27
ATOM     27  C   UNL     1      45.692   4.639   9.706  0.00  0.00    +0.000 C 
BRANCH  27  28
ATOM     28  C   UNL     1      45.065   4.049   8.425  0.00  0.00    +0.000 C 
ATOM     29  C   UNL     1      44.569   2.612   8.687  0.00  0.00    +0.000 C 
ATOM     30  C   UNL     1      45.718   1.601   8.758  0.00  0.00    +0.000 C 
ATOM     31  N   UNL     1      46.542   1.634   7.548  0.00  0.00    +0.000 NA
ATOM     32  C   UNL     1      47.107   2.967   7.334  0.00  0.00    +0.000 C 
ATOM     33  C   UNL     1      46.014   4.029   7.212  0.00  0.00    +0.000 C 
ATOM     34  H   UNL     1      45.955   1.395   6.747  0.00  0.00    +0.000 HD
ENDBRANCH  27  28
ENDBRANCH  26  27
ENDBRANCH  23  26
ENDBRANCH  19  20
ENDBRANCH   3  19
TORSDOF 6
ENDMDL
MODEL 5
REMARK VINA RESULT:    -6.709      2.709      3.791
REMARK INTER + INTRA:         -10.055
REMARK INTER:                  -9.324
REMARK INTRA:                  -0.731
REMARK UNBOUND:                -0.992
REMARK  Name = 
REMARK  6 active torsions:
REMARK  status: ('A' for Active; 'I' for Inactive)
REMARK    1  A    between atoms: C_7  and  C_8
REMARK    2  A    between atoms: N_10  and  C_11
REMARK    3  A    between atoms: C_11  and  C_12
REMARK    4  A    between atoms: N_15  and  C_16
REMARK    5  A    between atoms: C_16  and  C_17
REMARK    6  A    between atoms: C_17  and  C_18
REMARK                            x       y       z     vdW  Elec       q    Type
REMARK                         _______ _______ _______ _____ _____    ______ ____
ROOT
ATOM      1  C   UNL     1      50.341   6.727  16.921  0.00  0.00    +0.000 C 
ATOM      2  O   UNL     1      49.362   6.905  17.643  0.00  0.00    +0.000 OA
ATOM      3  N   UNL     1      50.533   7.484  15.786  0.00  0.00    +0.000 N 
ATOM      4  H   UNL     1      51.394   7.386  15.253  0.00  0.00    +0.000 HD
ENDROOT
BRANCH   1  11
ATOM      5  N   UNL     1      51.716   0.221  18.045  0.00  0.00    +0.000 N 
ATOM      6  C   UNL     1      51.608   1.560  17.865  0.00  0.00    +0.000 A 
ATOM      7  N   UNL     1      52.650   2.327  17.973  0.00  0.00    +0.000 NA
ATOM      8  C   UNL     1      52.423   3.648  17.748  0.00  0.00    +0.000 A 
ATOM      9  S   UNL     1      53.700   4.768  17.823  0.00  0.00    +0.000 S 
ATOM     10  C   UNL     1      52.663   6.058  17.427  0.00  0.00    +0.000 A 
ATOM     11  C   UNL     1      51.333   5.686  17.246  0.00  0.00    +0.000 A 
ATOM     12  C   UNL     1      51.220   4.254  17.435  0.00  0.00    +0.000 A 
ATOM     13  C   UNL     1      50.079   3.365  17.342  0.00  0.00    +0.000 A 
ATOM     14  O   UNL     1      48.939   3.737  17.062  0.00  0.00    +0.000 OA
ATOM     15  N   UNL     1      50.358   2.039  17.576  0.00  0.00    +0.000 N 
ATOM     16  H   UNL     1      52.594  -0.052  18.474  0.00  0.00    +0.000 HD
ATOM     17  H   UNL     1      50.916  -0.288  18.395  0.00  0.00    +0.000 HD
ATOM     18  H   UNL     1      49.589   1.400  17.465  0.00  0.00    +0.000 HD
ENDBRANCH   1  11
BRANCH   3  19
ATOM     19  C   UNL     1      49.602   8.535  15.389  0.00  0.00    +0.000 C 
BRANCH  19  20
ATOM     20  C   UNL     1      48.422   7.975  14.596  0.00  0.00    +0.000 C 
ATOM     21  C   UNL     1      47.676   9.049  13.806  0.00  0.00    +0.000 C 
ATOM     22  C   UNL     1      46.389   8.442  13.256  0.00  0.00    +0.000 C 
ATOM     23  N   UNL     1      46.616   7.275  12.383  0.00  0.00    +0.000 NA
ATOM     24  C   UNL     1      47.512   6.276  13.011  0.00  0.00    +0.000 C 
ATOM     25  C   UNL     1      48.800   6.882  13.585  0.00  0.00    +0.000 C 
BRANCH  23  26
ATOM     26  C   UNL     1      45.328   6.617  12.062  0.00  0.00    +0.000 C 
BRANCH  26  27
ATOM     27  C   UNL     1      45.459   5.405  11.125  0.00  0.00    +0.000 C 
BRANCH  27  28
ATOM     28  C   UNL     1      44.142   5.014  10.421  0.00  0.00    +0.000 C 
ATOM     29  C   UNL     1      43.153   4.410  11.439  0.00  0.00    +0.000 C 
ATOM     30  C   UNL     1      43.527   2.979  11.839  0.00  0.00    +0.000 C 
ATOM     31  N   UNL     1      43.640   2.103  10.671  0.00  0.00    +0.000 NA
ATOM     32  C   UNL     1      44.649   2.604   9.737  0.00  0.00    +0.000 C 
ATOM     33  C   UNL     1      44.321   4.019   9.258  0.00  0.00    +0.000 C 
ATOM     34  H   UNL     1      42.738   2.077  10.195  0.00  0.00    +0.000 HD
ENDBRANCH  27  28
ENDBRANCH  26  27
ENDBRANCH  23  26
ENDBRANCH  19  20
ENDBRANCH   3  19
TORSDOF 6
ENDMDL
MODEL 6
REMARK VINA RESULT:    -6.689      3.844      5.372
REMARK INTER + INTRA:         -10.027
REMARK INTER:                  -9.052
REMARK INTRA:                  -0.975
REMARK UNBOUND:                -0.992
REMARK  Name = 
REMARK  6 active torsions:
REMARK  status: ('A' for Active; 'I' for Inactive)
REMARK    1  A    between atoms: C_7  and  C_8
REMARK    2  A    between atoms: N_10  and  C_11
REMARK    3  A    between atoms: C_11  and  C_12
REMARK    4  A    between atoms: N_15  and  C_16
REMARK    5  A    between atoms: C_16  and  C_17
REMARK    6  A    between atoms: C_17  and  C_18
REMARK                            x       y       z     vdW  Elec       q    Type
REMARK                         _______ _______ _______ _____ _____    ______ ____
ROOT
ATOM      1  C   UNL     1      50.849   4.452  18.655  0.00  0.00    +0.000 C 
ATOM      2  O   UNL     1      50.674   5.209  19.607  0.00  0.00    +0.000 OA
ATOM      3  N   UNL     1      49.821   4.150  17.789  0.00  0.00    +0.000 N 
ATOM      4  H   UNL     1      50.008   3.597  16.956  0.00  0.00    +0.000 HD
ENDROOT
BRANCH   1  11
ATOM      5  N   UNL     1      54.441  -0.859  16.563  0.00  0.00    +0.000 N 
ATOM      6  C   UNL     1      53.874   0.279  17.033  0.00  0.00    +0.000 A 
ATOM      7  N   UNL     1      54.613   1.261  17.450  0.00  0.00    +0.000 NA
ATOM      8  C   UNL     1      53.932   2.358  17.876  0.00  0.00    +0.000 A 
ATOM      9  S   UNL     1      54.769   3.734  18.422  0.00  0.00    +0.000 S 
ATOM     10  C   UNL     1      53.314   4.569  18.710  0.00  0.00    +0.000 A 
ATOM     11  C   UNL     1      52.167   3.833  18.422  0.00  0.00    +0.000 A 
ATOM     12  C   UNL     1      52.562   2.532  17.923  0.00  0.00    +0.000 A 
ATOM     13  C   UNL     1      51.773   1.405  17.465  0.00  0.00    +0.000 A 
ATOM     14  O   UNL     1      50.542   1.397  17.431  0.00  0.00    +0.000 OA
ATOM     15  N   UNL     1      52.505   0.321  17.043  0.00  0.00    +0.000 N 
ATOM     16  H   UNL     1      55.429  -0.931  16.784  0.00  0.00    +0.000 HD
ATOM     17  H   UNL     1      53.937  -1.729  16.661  0.00  0.00    +0.000 HD
ATOM     18  H   UNL     1      51.977  -0.452  16.673  0.00  0.00    +0.000 HD
ENDBRANCH   1  11
BRANCH   3  19
ATOM     19  C   UNL     1      48.485   4.717  17.946  0.00  0.00    +0.000 C 
BRANCH  19  20
ATOM     20  C   UNL     1      47.897   5.158  16.606  0.00  0.00    +0.000 C 
ATOM     21  C   UNL     1      48.850   6.042  15.804  0.00  0.00    +0.000 C 
ATOM     22  C   UNL     1      48.089   6.624  14.616  0.00  0.00    +0.000 C 
ATOM     23  N   UNL     1      47.521   5.596  13.723  0.00  0.00    +0.000 NA
ATOM     24  C   UNL     1      46.748   4.575  14.469  0.00  0.00    +0.000 C 
ATOM     25  C   UNL     1      47.499   4.000  15.678  0.00  0.00    +0.000 C 
BRANCH  23  26
ATOM     26  C   UNL     1      46.627   6.226  12.723  0.00  0.00    +0.000 C 
BRANCH  26  27
ATOM     27  C   UNL     1      46.076   5.248  11.671  0.00  0.00    +0.000 C 
BRANCH  27  28
ATOM     28  C   UNL     1      44.602   5.506  11.290  0.00  0.00    +0.000 C 
ATOM     29  C   UNL     1      43.681   5.201  12.488  0.00  0.00    +0.000 C 
ATOM     30  C   UNL     1      43.503   3.697  12.722  0.00  0.00    +0.000 C 
ATOM     31  N   UNL     1      43.006   3.019  11.523  0.00  0.00    +0.000 NA
ATOM     32  C   UNL     1      43.919   3.211  10.395  0.00  0.00    +0.000 C 
ATOM     33  C   UNL     1      44.115   4.693  10.075  0.00  0.00    +0.000 C 
ATOM     34  H   UNL     1      42.097   3.415  11.278  0.00  0.00    +0.000 HD
ENDBRANCH  27  28
ENDBRANCH  26  27
ENDBRANCH  23  26
ENDBRANCH  19  20
ENDBRANCH   3  19
TORSDOF 6
ENDMDL
MODEL 7
REMARK VINA RESULT:    -6.556      3.437      5.292
REMARK INTER + INTRA:          -9.847
REMARK INTER:                  -9.111
REMARK INTRA:                  -0.735
REMARK UNBOUND:                -0.992
REMARK  Name = 
REMARK  6 active torsions:
REMARK  status: ('A' for Active; 'I' for Inactive)
REMARK    1  A    between atoms: C_7  and  C_8
REMARK    2  A    between atoms: N_10  and  C_11
REMARK    3  A    between atoms: C_11  and  C_12
REMARK    4  A    between atoms: N_15  and  C_16
REMARK    5  A    between atoms: C_16  and  C_17
REMARK    6  A    between atoms: C_17  and  C_18
REMARK                            x       y       z     vdW  Elec       q    Type
REMARK                         _______ _______ _______ _____ _____    ______ ____
ROOT
ATOM      1  C   UNL     1      49.878   2.336  17.079  0.00  0.00    +0.000 C 
ATOM      2  O   UNL     1      49.489   1.565  16.205  0.00  0.00    +0.000 OA
ATOM      3  N   UNL     1      49.007   3.207  17.697  0.00  0.00    +0.000 N 
ATOM      4  H   UNL     1      49.326   3.771  18.480  0.00  0.00    +0.000 HD
ENDROOT
BRANCH   1  11
ATOM      5  N   UNL     1      55.228   5.881  19.150  0.00  0.00    +0.000 N 
ATOM      6  C   UNL     1      54.263   5.030  18.724  0.00  0.00    +0.000 A 
ATOM      7  N   UNL     1      54.516   3.766  18.578  0.00  0.00    +0.000 NA
ATOM      8  C   UNL     1      53.464   3.008  18.167  0.00  0.00    +0.000 A 
ATOM      9  S   UNL     1      53.638   1.329  17.963  0.00  0.00    +0.000 S 
ATOM     10  C   UNL     1      52.006   1.162  17.509  0.00  0.00    +0.000 A 
ATOM     11  C   UNL     1      51.296   2.360  17.481  0.00  0.00    +0.000 A 
ATOM     12  C   UNL     1      52.180   3.435  17.882  0.00  0.00    +0.000 A 
ATOM     13  C   UNL     1      51.946   4.857  18.041  0.00  0.00    +0.000 A 
ATOM     14  O   UNL     1      50.859   5.400  17.840  0.00  0.00    +0.000 OA
ATOM     15  N   UNL     1      53.037   5.580  18.459  0.00  0.00    +0.000 N 
ATOM     16  H   UNL     1      56.159   5.477  19.113  0.00  0.00    +0.000 HD
ATOM     17  H   UNL     1      55.192   6.846  18.852  0.00  0.00    +0.000 HD
ATOM     18  H   UNL     1      52.881   6.560  18.624  0.00  0.00    +0.000 HD
ENDBRANCH   1  11
BRANCH   3  19
ATOM     19  C   UNL     1      47.587   3.251  17.360  0.00  0.00    +0.000 C 
BRANCH  19  20
ATOM     20  C   UNL     1      47.319   4.148  16.153  0.00  0.00    +0.000 C 
ATOM     21  C   UNL     1      48.385   5.226  15.968  0.00  0.00    +0.000 C 
ATOM     22  C   UNL     1      47.904   6.207  14.903  0.00  0.00    +0.000 C 
ATOM     23  N   UNL     1      47.633   5.572  13.599  0.00  0.00    +0.000 NA
ATOM     24  C   UNL     1      46.764   4.378  13.730  0.00  0.00    +0.000 C 
ATOM     25  C   UNL     1      47.230   3.397  14.815  0.00  0.00    +0.000 C 
BRANCH  23  26
ATOM     26  C   UNL     1      46.975   6.536  12.687  0.00  0.00    +0.000 C 
BRANCH  26  27
ATOM     27  C   UNL     1      45.441   6.422  12.655  0.00  0.00    +0.000 C 
BRANCH  27  28
ATOM     28  C   UNL     1      44.850   6.348  11.230  0.00  0.00    +0.000 C 
ATOM     29  C   UNL     1      43.309   6.367  11.291  0.00  0.00    +0.000 C 
ATOM     30  C   UNL     1      42.726   5.028  11.754  0.00  0.00    +0.000 C 
ATOM     31  N   UNL     1      43.180   3.921  10.910  0.00  0.00    +0.000 NA
ATOM     32  C   UNL     1      44.640   3.820  10.918  0.00  0.00    +0.000 C 
ATOM     33  C   UNL     1      45.296   5.111  10.427  0.00  0.00    +0.000 C 
ATOM     34  H   UNL     1      42.869   4.092   9.953  0.00  0.00    +0.000 HD
ENDBRANCH  27  28
ENDBRANCH  26  27
ENDBRANCH  23  26
ENDBRANCH  19  20
ENDBRANCH   3  19
TORSDOF 6
ENDMDL
MODEL 8
REMARK VINA RESULT:    -6.475      2.957      9.021
REMARK INTER + INTRA:          -9.738
REMARK INTER:                  -8.660
REMARK INTRA:                  -1.079
REMARK UNBOUND:                -0.992
REMARK  Name = 
REMARK  6 active torsions:
REMARK  status: ('A' for Active; 'I' for Inactive)
REMARK    1  A    between atoms: C_7  and  C_8
REMARK    2  A    between atoms: N_10  and  C_11
REMARK    3  A    between atoms: C_11  and  C_12
REMARK    4  A    between atoms: N_15  and  C_16
REMARK    5  A    between atoms: C_16  and  C_17
REMARK    6  A    between atoms: C_17  and  C_18
REMARK                            x       y       z     vdW  Elec       q    Type
REMARK                         _______ _______ _______ _____ _____    ______ ____
ROOT
ATOM      1  C   UNL     1      47.949   6.789  13.538  0.00  0.00    +0.000 C 
ATOM      2  O   UNL     1      49.006   6.266  13.192  0.00  0.00    +0.000 OA
ATOM      3  N   UNL     1      47.909   7.689  14.581  0.00  0.00    +0.000 N 
ATOM      4  H   UNL     1      47.044   8.180  14.791  0.00  0.00    +0.000 HD
ENDROOT
BRANCH   1  11
ATOM      5  N   UNL     1      43.405   2.133  11.763  0.00  0.00    +0.000 N 
ATOM      6  C   UNL     1      44.224   3.181  12.020  0.00  0.00    +0.000 A 
ATOM      7  N   UNL     1      43.931   4.369  11.588  0.00  0.00    +0.000 NA
ATOM      8  C   UNL     1      44.816   5.344  11.927  0.00  0.00    +0.000 A 
ATOM      9  S   UNL     1      44.546   6.956  11.457  0.00  0.00    +0.000 S 
ATOM     10  C   UNL     1      45.967   7.476  12.236  0.00  0.00    +0.000 A 
ATOM     11  C   UNL     1      46.688   6.455  12.851  0.00  0.00    +0.000 A 
ATOM     12  C   UNL     1      45.981   5.205  12.660  0.00  0.00    +0.000 A 
ATOM     13  C   UNL     1      46.280   3.859  13.108  0.00  0.00    +0.000 A 
ATOM     14  O   UNL     1      47.269   3.563  13.778  0.00  0.00    +0.000 OA
ATOM     15  N   UNL     1      45.356   2.910  12.742  0.00  0.00    +0.000 N 
ATOM     16  H   UNL     1      42.714   2.334  11.047  0.00  0.00    +0.000 HD
ATOM     17  H   UNL     1      43.806   1.208  11.693  0.00  0.00    +0.000 HD
ATOM     18  H   UNL     1      45.520   1.979  13.087  0.00  0.00    +0.000 HD
ENDBRANCH   1  11
BRANCH   3  19
ATOM     19  C   UNL     1      49.109   8.076  15.316  0.00  0.00    +0.000 C 
BRANCH  19  20
ATOM     20  C   UNL     1      49.130   7.476  16.721  0.00  0.00    +0.000 C 
ATOM     21  C   UNL     1      48.265   8.255  17.710  0.00  0.00    +0.000 C 
ATOM     22  C   UNL     1      48.546   7.732  19.116  0.00  0.00    +0.000 C 
ATOM     23  N   UNL     1      48.272   6.290  19.271  0.00  0.00    +0.000 NA
ATOM     24  C   UNL     1      48.916   5.484  18.208  0.00  0.00    +0.000 C 
ATOM     25  C   UNL     1      48.657   6.016  16.792  0.00  0.00    +0.000 C 
BRANCH  23  26
ATOM     26  C   UNL     1      48.763   5.815  20.586  0.00  0.00    +0.000 C 
BRANCH  26  27
ATOM     27  C   UNL     1      49.957   4.850  20.498  0.00  0.00    +0.000 C 
BRANCH  27  28
ATOM     28  C   UNL     1      51.251   5.397  21.139  0.00  0.00    +0.000 C 
ATOM     29  C   UNL     1      51.692   6.691  20.426  0.00  0.00    +0.000 C 
ATOM     30  C   UNL     1      52.321   6.418  19.055  0.00  0.00    +0.000 C 
ATOM     31  N   UNL     1      53.449   5.490  19.153  0.00  0.00    +0.000 NA
ATOM     32  C   UNL     1      53.030   4.215  19.736  0.00  0.00    +0.000 C 
ATOM     33  C   UNL     1      52.427   4.403  21.129  0.00  0.00    +0.000 C 
ATOM     34  H   UNL     1      54.162   5.906  19.755  0.00  0.00    +0.000 HD
ENDBRANCH  27  28
ENDBRANCH  26  27
ENDBRANCH  23  26
ENDBRANCH  19  20
ENDBRANCH   3  19
TORSDOF 6
ENDMDL
MODEL 9
REMARK VINA RESULT:    -6.449      4.978      8.125
REMARK INTER + INTRA:          -9.704
REMARK INTER:                  -8.871
REMARK INTRA:                  -0.833
REMARK UNBOUND:                -0.992
REMARK  Name = 
REMARK  6 active torsions:
REMARK  status: ('A' for Active; 'I' for Inactive)
REMARK    1  A    between atoms: C_7  and  C_8
REMARK    2  A    between atoms: N_10  and  C_11
REMARK    3  A    between atoms: C_11  and  C_12
REMARK    4  A    between atoms: N_15  and  C_16
REMARK    5  A    between atoms: C_16  and  C_17
REMARK    6  A    between atoms: C_17  and  C_18
REMARK                            x       y       z     vdW  Elec       q    Type
REMARK                         _______ _______ _______ _____ _____    ______ ____
ROOT
ATOM      1  C   UNL     1      45.269   7.368  11.745  0.00  0.00    +0.000 C 
ATOM      2  O   UNL     1      44.685   8.259  11.131  0.00  0.00    +0.000 OA
ATOM      3  N   UNL     1      46.469   7.609  12.376  0.00  0.00    +0.000 N 
ATOM      4  H   UNL     1      46.890   6.887  12.955  0.00  0.00    +0.000 HD
ENDROOT
BRANCH   1  11
ATOM      5  N   UNL     1      44.459   1.314   8.886  0.00  0.00    +0.000 N 
ATOM      6  C   UNL     1      44.510   2.474   9.586  0.00  0.00    +0.000 A 
ATOM      7  N   UNL     1      43.912   2.579  10.732  0.00  0.00    +0.000 NA
ATOM      8  C   UNL     1      44.053   3.781  11.351  0.00  0.00    +0.000 A 
ATOM      9  S   UNL     1      43.351   4.055  12.875  0.00  0.00    +0.000 S 
ATOM     10  C   UNL     1      43.971   5.639  12.936  0.00  0.00    +0.000 A 
ATOM     11  C   UNL     1      44.703   6.008  11.810  0.00  0.00    +0.000 A 
ATOM     12  C   UNL     1      44.742   4.889  10.892  0.00  0.00    +0.000 A 
ATOM     13  C   UNL     1      45.380   4.735   9.599  0.00  0.00    +0.000 A 
ATOM     14  O   UNL     1      46.041   5.617   9.050  0.00  0.00    +0.000 OA
ATOM     15  N   UNL     1      45.211   3.502   9.014  0.00  0.00    +0.000 N 
ATOM     16  H   UNL     1      43.754   0.672   9.232  0.00  0.00    +0.000 HD
ATOM     17  H   UNL     1      44.515   1.352   7.877  0.00  0.00    +0.000 HD
ATOM     18  H   UNL     1      45.689   3.359   8.141  0.00  0.00    +0.000 HD
ENDBRANCH   1  11
BRANCH   3  19
ATOM     19  C   UNL     1      47.102   8.925  12.362  0.00  0.00    +0.000 C 
BRANCH  19  20
ATOM     20  C   UNL     1      48.493   8.878  11.732  0.00  0.00    +0.000 C 
ATOM     21  C   UNL     1      49.302  10.148  11.988  0.00  0.00    +0.000 C 
ATOM     22  C   UNL     1      50.559  10.104  11.124  0.00  0.00    +0.000 C 
ATOM     23  N   UNL     1      51.413   8.930  11.387  0.00  0.00    +0.000 NA
ATOM     24  C   UNL     1      50.642   7.665  11.362  0.00  0.00    +0.000 C 
ATOM     25  C   UNL     1      49.365   7.707  12.212  0.00  0.00    +0.000 C 
BRANCH  23  26
ATOM     26  C   UNL     1      52.492   8.845  10.376  0.00  0.00    +0.000 C 
BRANCH  26  27
ATOM     27  C   UNL     1      52.724   7.427   9.825  0.00  0.00    +0.000 C 
BRANCH  27  28
ATOM     28  C   UNL     1      53.980   7.301   8.935  0.00  0.00    +0.000 C 
ATOM     29  C   UNL     1      53.864   8.237   7.714  0.00  0.00    +0.000 C 
ATOM     30  C   UNL     1      52.890   7.702   6.659  0.00  0.00    +0.000 C 
ATOM     31  N   UNL     1      53.254   6.353   6.222  0.00  0.00    +0.000 NA
ATOM     32  C   UNL     1      53.271   5.423   7.353  0.00  0.00    +0.000 C 
ATOM     33  C   UNL     1      54.255   5.870   8.435  0.00  0.00    +0.000 C 
ATOM     34  H   UNL     1      54.188   6.384   5.810  0.00  0.00    +0.000 HD
ENDBRANCH  27  28
ENDBRANCH  26  27
ENDBRANCH  23  26
ENDBRANCH  19  20
ENDBRANCH   3  19
TORSDOF 6
ENDMDL
