MODEL 1
REMARK VINA RESULT:    -9.591      0.000      0.000
REMARK INTER + INTRA:         -13.443
REMARK INTER:                 -12.394
REMARK INTRA:                  -1.049
REMARK UNBOUND:                -1.049
REMARK  Name = 
REMARK  5 active torsions:
REMARK  status: ('A' for Active; 'I' for Inactive)
REMARK    1  A    between atoms: C_2  and  C_4
REMARK    2  A    between atoms: N_8  and  C_9
REMARK    3  A    between atoms: C_9  and  C_10
REMARK    4  A    between atoms: C_10  and  C_13
REMARK    5  A    between atoms: C_17  and  C_18
REMARK                            x       y       z     vdW  Elec       q    Type
REMARK                         _______ _______ _______ _____ _____    ______ ____
ROOT
ATOM      1  C   UNL     1      43.232   4.380  11.174  0.00  0.00    +0.000 C 
ENDROOT
BRANCH   1   6
ATOM      2  C   UNL     1      46.457   2.478   7.710  0.00  0.00    +0.000 A 
ATOM      3  C   UNL     1      45.641   1.822   8.624  0.00  0.00    +0.000 A 
ATOM      4  C   UNL     1      44.715   2.559   9.360  0.00  0.00    +0.000 A 
ATOM      5  C   UNL     1      44.629   3.938   9.187  0.00  0.00    +0.000 A 
ATOM      6  N   UNL     1      43.671   4.714   9.813  0.00  0.00    +0.000 N 
ATOM      7  N   UNL     1      45.440   4.589   8.330  0.00  0.00    +0.000 NA
ATOM      8  C   UNL     1      46.337   3.855   7.616  0.00  0.00    +0.000 A 
ATOM      9  H   UNL     1      43.882   5.698   9.644  0.00  0.00    +0.000 HD
BRANCH   2  11
ATOM     10  N   UNL     1      48.516   2.468   6.426  0.00  0.00    +0.000 N 
ATOM     11  C   UNL     1      47.426   1.764   6.856  0.00  0.00    +0.000 C 
ATOM     12  O   UNL     1      47.280   0.580   6.572  0.00  0.00    +0.000 OA
ATOM     13  H   UNL     1      49.231   1.943   5.936  0.00  0.00    +0.000 HD
ATOM     14  H   UNL     1      48.801   3.339   6.857  0.00  0.00    +0.000 HD
ENDBRANCH   2  11
ENDBRANCH   1   6
BRANCH   1  15
ATOM     15  C   UNL     1      43.396   5.544  12.188  0.00  0.00    +0.000 C 
ATOM     16  F   UNL     1      42.945   6.693  11.600  0.00  0.00    +0.000 F 
ATOM     17  F   UNL     1      42.567   5.330  13.251  0.00  0.00    +0.000 F 
BRANCH  15  18
ATOM     18  C   UNL     1      44.848   5.650  12.618  0.00  0.00    +0.000 A 
ATOM     19  C   UNL     1      45.496   6.897  12.647  0.00  0.00    +0.000 A 
ATOM     20  C   UNL     1      46.802   7.009  13.123  0.00  0.00    +0.000 A 
ATOM     21  C   UNL     1      47.469   5.883  13.598  0.00  0.00    +0.000 A 
ATOM     22  C   UNL     1      46.832   4.639  13.594  0.00  0.00    +0.000 A 
ATOM     23  C   UNL     1      45.536   4.518  13.080  0.00  0.00    +0.000 A 
BRANCH  22  24
ATOM     24  C   UNL     1      47.456   3.517  14.294  0.00  0.00    +0.000 C 
ATOM     25  C   UNL     1      47.570   3.493  15.629  0.00  0.00    +0.000 C 
ATOM     26  C   UNL     1      47.122   4.468  16.705  0.00  0.00    +0.000 C 
ATOM     27  C   UNL     1      47.333   3.278  17.658  0.00  0.00    +0.000 C 
ATOM     28  C   UNL     1      48.216   2.553  16.619  0.00  0.00    +0.000 C 
ENDBRANCH  22  24
ENDBRANCH  15  18
ENDBRANCH   1  15
TORSDOF 5
ENDMDL
MODEL 2
REMARK VINA RESULT:    -9.405      1.479      3.379
REMARK INTER + INTRA:         -13.203
REMARK INTER:                 -12.126
REMARK INTRA:                  -1.076
REMARK UNBOUND:                -1.049
REMARK  Name = 
REMARK  5 active torsions:
REMARK  status: ('A' for Active; 'I' for Inactive)
REMARK    1  A    between atoms: C_2  and  C_4
REMARK    2  A    between atoms: N_8  and  C_9
REMARK    3  A    between atoms: C_9  and  C_10
REMARK    4  A    between atoms: C_10  and  C_13
REMARK    5  A    between atoms: C_17  and  C_18
REMARK                            x       y       z     vdW  Elec       q    Type
REMARK                         _______ _______ _______ _____ _____    ______ ____
ROOT
ATOM      1  C   UNL     1      43.311   4.418  11.179  0.00  0.00    +0.000 C 
ENDROOT
BRANCH   1   6
ATOM      2  C   UNL     1      46.482   2.476   7.688  0.00  0.00    +0.000 A 
ATOM      3  C   UNL     1      45.676   1.830   8.618  0.00  0.00    +0.000 A 
ATOM      4  C   UNL     1      44.763   2.577   9.360  0.00  0.00    +0.000 A 
ATOM      5  C   UNL     1      44.679   3.954   9.177  0.00  0.00    +0.000 A 
ATOM      6  N   UNL     1      43.732   4.739   9.809  0.00  0.00    +0.000 N 
ATOM      7  N   UNL     1      45.480   4.594   8.302  0.00  0.00    +0.000 NA
ATOM      8  C   UNL     1      46.365   3.852   7.583  0.00  0.00    +0.000 A 
ATOM      9  H   UNL     1      43.944   5.721   9.628  0.00  0.00    +0.000 HD
BRANCH   2  11
ATOM     10  N   UNL     1      48.553   2.429   6.424  0.00  0.00    +0.000 N 
ATOM     11  C   UNL     1      47.437   1.750   6.827  0.00  0.00    +0.000 C 
ATOM     12  O   UNL     1      47.257   0.579   6.514  0.00  0.00    +0.000 OA
ATOM     13  H   UNL     1      49.256   1.892   5.929  0.00  0.00    +0.000 HD
ATOM     14  H   UNL     1      48.861   3.280   6.879  0.00  0.00    +0.000 HD
ENDBRANCH   2  11
ENDBRANCH   1   6
BRANCH   1  15
ATOM     15  C   UNL     1      43.465   5.600  12.173  0.00  0.00    +0.000 C 
ATOM     16  F   UNL     1      43.039   6.741  11.554  0.00  0.00    +0.000 F 
ATOM     17  F   UNL     1      42.610   5.414  13.222  0.00  0.00    +0.000 F 
BRANCH  15  18
ATOM     18  C   UNL     1      44.907   5.699  12.633  0.00  0.00    +0.000 A 
ATOM     19  C   UNL     1      45.425   4.785  13.568  0.00  0.00    +0.000 A 
ATOM     20  C   UNL     1      46.772   4.820  13.928  0.00  0.00    +0.000 A 
ATOM     21  C   UNL     1      47.625   5.752  13.341  0.00  0.00    +0.000 A 
ATOM     22  C   UNL     1      47.130   6.655  12.396  0.00  0.00    +0.000 A 
ATOM     23  C   UNL     1      45.771   6.646  12.063  0.00  0.00    +0.000 A 
BRANCH  22  24
ATOM     24  C   UNL     1      48.072   7.473  11.632  0.00  0.00    +0.000 C 
ATOM     25  C   UNL     1      48.372   8.728  11.992  0.00  0.00    +0.000 C 
ATOM     26  C   UNL     1      47.923   9.583  13.165  0.00  0.00    +0.000 C 
ATOM     27  C   UNL     1      49.141  10.452  12.802  0.00  0.00    +0.000 C 
ATOM     28  C   UNL     1      49.213   9.829  11.391  0.00  0.00    +0.000 C 
ENDBRANCH  22  24
ENDBRANCH  15  18
ENDBRANCH   1  15
TORSDOF 5
ENDMDL
MODEL 3
REMARK VINA RESULT:    -8.622      2.238      2.704
REMARK INTER + INTRA:         -12.191
REMARK INTER:                 -11.182
REMARK INTRA:                  -1.009
REMARK UNBOUND:                -1.049
REMARK  Name = 
REMARK  5 active torsions:
REMARK  status: ('A' for Active; 'I' for Inactive)
REMARK    1  A    between atoms: C_2  and  C_4
REMARK    2  A    between atoms: N_8  and  C_9
REMARK    3  A    between atoms: C_9  and  C_10
REMARK    4  A    between atoms: C_10  and  C_13
REMARK    5  A    between atoms: C_17  and  C_18
REMARK                            x       y       z     vdW  Elec       q    Type
REMARK                         _______ _______ _______ _____ _____    ______ ____
ROOT
ATOM      1  C   UNL     1      43.555   4.604  11.283  0.00  0.00    +0.000 C 
ENDROOT
BRANCH   1   6
ATOM      2  C   UNL     1      46.511   2.498   7.699  0.00  0.00    +0.000 A 
ATOM      3  C   UNL     1      45.622   1.902   8.585  0.00  0.00    +0.000 A 
ATOM      4  C   UNL     1      44.796   2.709   9.366  0.00  0.00    +0.000 A 
ATOM      5  C   UNL     1      44.881   4.095   9.264  0.00  0.00    +0.000 A 
ATOM      6  N   UNL     1      44.029   4.951   9.936  0.00  0.00    +0.000 N 
ATOM      7  N   UNL     1      45.765   4.683   8.433  0.00  0.00    +0.000 NA
ATOM      8  C   UNL     1      46.562   3.882   7.675  0.00  0.00    +0.000 A 
ATOM      9  H   UNL     1      44.359   5.909   9.816  0.00  0.00    +0.000 HD
BRANCH   2  11
ATOM     10  N   UNL     1      48.412   2.377   6.196  0.00  0.00    +0.000 N 
ATOM     11  C   UNL     1      47.382   1.714   6.802  0.00  0.00    +0.000 C 
ATOM     12  O   UNL     1      47.212   0.511   6.633  0.00  0.00    +0.000 OA
ATOM     13  H   UNL     1      49.070   1.812   5.672  0.00  0.00    +0.000 HD
ATOM     14  H   UNL     1      48.739   3.279   6.521  0.00  0.00    +0.000 HD
ENDBRANCH   2  11
ENDBRANCH   1   6
BRANCH   1  15
ATOM     15  C   UNL     1      44.637   4.754  12.384  0.00  0.00    +0.000 C 
ATOM     16  F   UNL     1      44.029   4.644  13.603  0.00  0.00    +0.000 F 
ATOM     17  F   UNL     1      45.497   3.696  12.311  0.00  0.00    +0.000 F 
BRANCH  15  18
ATOM     18  C   UNL     1      45.359   6.078  12.218  0.00  0.00    +0.000 A 
ATOM     19  C   UNL     1      44.638   7.284  12.166  0.00  0.00    +0.000 A 
ATOM     20  C   UNL     1      45.302   8.509  12.099  0.00  0.00    +0.000 A 
ATOM     21  C   UNL     1      46.695   8.546  12.110  0.00  0.00    +0.000 A 
ATOM     22  C   UNL     1      47.426   7.357  12.181  0.00  0.00    +0.000 A 
ATOM     23  C   UNL     1      46.761   6.127  12.208  0.00  0.00    +0.000 A 
BRANCH  22  24
ATOM     24  C   UNL     1      48.869   7.423  12.414  0.00  0.00    +0.000 C 
ATOM     25  C   UNL     1      49.381   7.533  13.647  0.00  0.00    +0.000 C 
ATOM     26  C   UNL     1      48.729   7.585  15.018  0.00  0.00    +0.000 C 
ATOM     27  C   UNL     1      50.140   7.254  15.535  0.00  0.00    +0.000 C 
ATOM     28  C   UNL     1      50.776   7.703  14.202  0.00  0.00    +0.000 C 
ENDBRANCH  22  24
ENDBRANCH  15  18
ENDBRANCH   1  15
TORSDOF 5
ENDMDL
MODEL 4
REMARK VINA RESULT:    -8.153      4.026      7.839
REMARK INTER + INTRA:         -11.584
REMARK INTER:                 -10.688
REMARK INTRA:                  -0.896
REMARK UNBOUND:                -1.049
REMARK  Name = 
REMARK  5 active torsions:
REMARK  status: ('A' for Active; 'I' for Inactive)
REMARK    1  A    between atoms: C_2  and  C_4
REMARK    2  A    between atoms: N_8  and  C_9
REMARK    3  A    between atoms: C_9  and  C_10
REMARK    4  A    between atoms: C_10  and  C_13
REMARK    5  A    between atoms: C_17  and  C_18
REMARK                            x       y       z     vdW  Elec       q    Type
REMARK                         _______ _______ _______ _____ _____    ______ ____
ROOT
ATOM      1  C   UNL     1      45.797   6.033  13.095  0.00  0.00    +0.000 C 
ENDROOT
BRANCH   1   6
ATOM      2  C   UNL     1      48.577   4.224  16.970  0.00  0.00    +0.000 A 
ATOM      3  C   UNL     1      47.597   3.599  16.208  0.00  0.00    +0.000 A 
ATOM      4  C   UNL     1      47.092   4.252  15.085  0.00  0.00    +0.000 A 
ATOM      5  C   UNL     1      47.557   5.520  14.749  0.00  0.00    +0.000 A 
ATOM      6  N   UNL     1      47.169   6.181  13.599  0.00  0.00    +0.000 N 
ATOM      7  N   UNL     1      48.481   6.149  15.501  0.00  0.00    +0.000 NA
ATOM      8  C   UNL     1      48.968   5.498  16.594  0.00  0.00    +0.000 A 
ATOM      9  H   UNL     1      47.529   7.136  13.629  0.00  0.00    +0.000 HD
BRANCH   2  11
ATOM     10  N   UNL     1      48.364   3.152  19.137  0.00  0.00    +0.000 N 
ATOM     11  C   UNL     1      49.200   3.580  18.144  0.00  0.00    +0.000 C 
ATOM     12  O   UNL     1      50.411   3.404  18.211  0.00  0.00    +0.000 OA
ATOM     13  H   UNL     1      48.786   2.613  19.884  0.00  0.00    +0.000 HD
ATOM     14  H   UNL     1      47.368   3.035  18.992  0.00  0.00    +0.000 HD
ENDBRANCH   2  11
ENDBRANCH   1   6
BRANCH   1  15
ATOM     15  C   UNL     1      45.657   6.304  11.574  0.00  0.00    +0.000 C 
ATOM     16  F   UNL     1      44.728   7.291  11.397  0.00  0.00    +0.000 F 
ATOM     17  F   UNL     1      46.830   6.821  11.103  0.00  0.00    +0.000 F 
BRANCH  15  18
ATOM     18  C   UNL     1      45.278   5.022  10.856  0.00  0.00    +0.000 A 
ATOM     19  C   UNL     1      44.528   4.030  11.512  0.00  0.00    +0.000 A 
ATOM     20  C   UNL     1      44.106   2.889  10.829  0.00  0.00    +0.000 A 
ATOM     21  C   UNL     1      44.406   2.736   9.478  0.00  0.00    +0.000 A 
ATOM     22  C   UNL     1      45.134   3.722   8.807  0.00  0.00    +0.000 A 
ATOM     23  C   UNL     1      45.592   4.848   9.500  0.00  0.00    +0.000 A 
BRANCH  22  24
ATOM     24  C   UNL     1      45.249   3.654   7.350  0.00  0.00    +0.000 C 
ATOM     25  C   UNL     1      46.323   3.123   6.751  0.00  0.00    +0.000 C 
ATOM     26  C   UNL     1      47.581   2.478   7.305  0.00  0.00    +0.000 C 
ATOM     27  C   UNL     1      47.744   1.925   5.878  0.00  0.00    +0.000 C 
ATOM     28  C   UNL     1      46.772   2.983   5.315  0.00  0.00    +0.000 C 
ENDBRANCH  22  24
ENDBRANCH  15  18
ENDBRANCH   1  15
TORSDOF 5
ENDMDL
MODEL 5
REMARK VINA RESULT:    -8.037      4.335      8.262
REMARK INTER + INTRA:         -11.435
REMARK INTER:                 -10.652
REMARK INTRA:                  -0.783
REMARK UNBOUND:                -1.049
REMARK  Name = 
REMARK  5 active torsions:
REMARK  status: ('A' for Active; 'I' for Inactive)
REMARK    1  A    between atoms: C_2  and  C_4
REMARK    2  A    between atoms: N_8  and  C_9
REMARK    3  A    between atoms: C_9  and  C_10
REMARK    4  A    between atoms: C_10  and  C_13
REMARK    5  A    between atoms: C_17  and  C_18
REMARK                            x       y       z     vdW  Elec       q    Type
REMARK                         _______ _______ _______ _____ _____    ______ ____
ROOT
ATOM      1  C   UNL     1      46.850   5.216  13.326  0.00  0.00    +0.000 C 
ENDROOT
BRANCH   1   6
ATOM      2  C   UNL     1      48.623   4.404  18.039  0.00  0.00    +0.000 A 
ATOM      3  C   UNL     1      48.749   5.518  17.218  0.00  0.00    +0.000 A 
ATOM      4  C   UNL     1      48.030   5.569  16.026  0.00  0.00    +0.000 A 
ATOM      5  C   UNL     1      47.210   4.504  15.661  0.00  0.00    +0.000 A 
ATOM      6  N   UNL     1      46.398   4.530  14.543  0.00  0.00    +0.000 N 
ATOM      7  N   UNL     1      47.108   3.404  16.434  0.00  0.00    +0.000 NA
ATOM      8  C   UNL     1      47.814   3.370  17.597  0.00  0.00    +0.000 A 
ATOM      9  H   UNL     1      45.995   3.602  14.406  0.00  0.00    +0.000 HD
BRANCH   2  11
ATOM     10  N   UNL     1      48.615   3.720  20.367  0.00  0.00    +0.000 N 
ATOM     11  C   UNL     1      49.310   4.295  19.341  0.00  0.00    +0.000 C 
ATOM     12  O   UNL     1      50.467   4.673  19.489  0.00  0.00    +0.000 OA
ATOM     13  H   UNL     1      49.129   3.548  21.223  0.00  0.00    +0.000 HD
ATOM     14  H   UNL     1      47.783   3.163  20.211  0.00  0.00    +0.000 HD
ENDBRANCH   2  11
ENDBRANCH   1   6
BRANCH   1  15
ATOM     15  C   UNL     1      45.693   5.782  12.461  0.00  0.00    +0.000 C 
ATOM     16  F   UNL     1      44.706   6.224  13.298  0.00  0.00    +0.000 F 
ATOM     17  F   UNL     1      46.132   6.893  11.800  0.00  0.00    +0.000 F 
BRANCH  15  18
ATOM     18  C   UNL     1      45.198   4.715  11.502  0.00  0.00    +0.000 A 
ATOM     19  C   UNL     1      44.244   3.769  11.916  0.00  0.00    +0.000 A 
ATOM     20  C   UNL     1      43.724   2.841  11.013  0.00  0.00    +0.000 A 
ATOM     21  C   UNL     1      44.133   2.861   9.682  0.00  0.00    +0.000 A 
ATOM     22  C   UNL     1      45.066   3.807   9.250  0.00  0.00    +0.000 A 
ATOM     23  C   UNL     1      45.617   4.713  10.164  0.00  0.00    +0.000 A 
BRANCH  22  24
ATOM     24  C   UNL     1      45.317   3.959   7.817  0.00  0.00    +0.000 C 
ATOM     25  C   UNL     1      46.199   3.186   7.169  0.00  0.00    +0.000 C 
ATOM     26  C   UNL     1      47.080   2.039   7.634  0.00  0.00    +0.000 C 
ATOM     27  C   UNL     1      47.202   1.724   6.133  0.00  0.00    +0.000 C 
ATOM     28  C   UNL     1      46.732   3.146   5.757  0.00  0.00    +0.000 C 
ENDBRANCH  22  24
ENDBRANCH  15  18
ENDBRANCH   1  15
TORSDOF 5
ENDMDL
MODEL 6
REMARK VINA RESULT:    -7.072      4.130      6.500
REMARK INTER + INTRA:         -10.188
REMARK INTER:                  -9.348
REMARK INTRA:                  -0.839
REMARK UNBOUND:                -1.049
REMARK  Name = 
REMARK  5 active torsions:
REMARK  status: ('A' for Active; 'I' for Inactive)
REMARK    1  A    between atoms: C_2  and  C_4
REMARK    2  A    between atoms: N_8  and  C_9
REMARK    3  A    between atoms: C_9  and  C_10
REMARK    4  A    between atoms: C_10  and  C_13
REMARK    5  A    between atoms: C_17  and  C_18
REMARK                            x       y       z     vdW  Elec       q    Type
REMARK                         _______ _______ _______ _____ _____    ______ ____
ROOT
ATOM      1  C   UNL     1      47.653   3.884  15.803  0.00  0.00    +0.000 C 
ENDROOT
BRANCH   1   6
ATOM      2  C   UNL     1      44.618   4.721  11.789  0.00  0.00    +0.000 A 
ATOM      3  C   UNL     1      45.269   5.626  12.619  0.00  0.00    +0.000 A 
ATOM      4  C   UNL     1      46.185   5.151  13.556  0.00  0.00    +0.000 A 
ATOM      5  C   UNL     1      46.426   3.784  13.663  0.00  0.00    +0.000 A 
ATOM      6  N   UNL     1      47.388   3.255  14.502  0.00  0.00    +0.000 N 
ATOM      7  N   UNL     1      45.773   2.896  12.887  0.00  0.00    +0.000 NA
ATOM      8  C   UNL     1      44.884   3.374  11.975  0.00  0.00    +0.000 A 
ATOM      9  H   UNL     1      47.294   2.239  14.512  0.00  0.00    +0.000 HD
BRANCH   2  11
ATOM     10  N   UNL     1      43.955   4.766   9.456  0.00  0.00    +0.000 N 
ATOM     11  C   UNL     1      43.674   5.147  10.738  0.00  0.00    +0.000 C 
ATOM     12  O   UNL     1      42.661   5.785  11.005  0.00  0.00    +0.000 OA
ATOM     13  H   UNL     1      43.247   4.965   8.758  0.00  0.00    +0.000 HD
ATOM     14  H   UNL     1      44.613   4.026   9.244  0.00  0.00    +0.000 HD
ENDBRANCH   2  11
ENDBRANCH   1   6
BRANCH   1  15
ATOM     15  C   UNL     1      48.173   2.897  16.881  0.00  0.00    +0.000 C 
ATOM     16  F   UNL     1      47.099   2.267  17.443  0.00  0.00    +0.000 F 
ATOM     17  F   UNL     1      48.895   1.911  16.271  0.00  0.00    +0.000 F 
BRANCH  15  18
ATOM     18  C   UNL     1      49.001   3.648  17.907  0.00  0.00    +0.000 A 
ATOM     19  C   UNL     1      50.398   3.735  17.774  0.00  0.00    +0.000 A 
ATOM     20  C   UNL     1      51.153   4.496  18.668  0.00  0.00    +0.000 A 
ATOM     21  C   UNL     1      50.519   5.199  19.690  0.00  0.00    +0.000 A 
ATOM     22  C   UNL     1      49.129   5.138  19.824  0.00  0.00    +0.000 A 
ATOM     23  C   UNL     1      48.376   4.344  18.953  0.00  0.00    +0.000 A 
BRANCH  22  24
ATOM     24  C   UNL     1      48.464   6.049  20.756  0.00  0.00    +0.000 C 
ATOM     25  C   UNL     1      48.126   7.296  20.403  0.00  0.00    +0.000 C 
ATOM     26  C   UNL     1      48.270   8.058  19.096  0.00  0.00    +0.000 C 
ATOM     27  C   UNL     1      47.233   9.012  19.714  0.00  0.00    +0.000 C 
ATOM     28  C   UNL     1      47.525   8.475  21.131  0.00  0.00    +0.000 C 
ENDBRANCH  22  24
ENDBRANCH  15  18
ENDBRANCH   1  15
TORSDOF 5
ENDMDL
MODEL 7
REMARK VINA RESULT:    -7.060      4.688      7.460
REMARK INTER + INTRA:         -10.173
REMARK INTER:                  -8.857
REMARK INTRA:                  -1.315
REMARK UNBOUND:                -1.049
REMARK  Name = 
REMARK  5 active torsions:
REMARK  status: ('A' for Active; 'I' for Inactive)
REMARK    1  A    between atoms: C_2  and  C_4
REMARK    2  A    between atoms: N_8  and  C_9
REMARK    3  A    between atoms: C_9  and  C_10
REMARK    4  A    between atoms: C_10  and  C_13
REMARK    5  A    between atoms: C_17  and  C_18
REMARK                            x       y       z     vdW  Elec       q    Type
REMARK                         _______ _______ _______ _____ _____    ______ ____
ROOT
ATOM      1  C   UNL     1      49.361   8.389  13.822  0.00  0.00    +0.000 C 
ENDROOT
BRANCH   1   6
ATOM      2  C   UNL     1      48.246   4.487  16.912  0.00  0.00    +0.000 A 
ATOM      3  C   UNL     1      47.538   4.999  15.831  0.00  0.00    +0.000 A 
ATOM      4  C   UNL     1      48.132   5.973  15.031  0.00  0.00    +0.000 A 
ATOM      5  C   UNL     1      49.411   6.435  15.329  0.00  0.00    +0.000 A 
ATOM      6  N   UNL     1      50.094   7.328  14.525  0.00  0.00    +0.000 N 
ATOM      7  N   UNL     1      50.091   5.971  16.396  0.00  0.00    +0.000 NA
ATOM      8  C   UNL     1      49.500   5.017  17.167  0.00  0.00    +0.000 A 
ATOM      9  H   UNL     1      50.946   7.620  15.005  0.00  0.00    +0.000 HD
BRANCH   2  11
ATOM     10  N   UNL     1      48.366   3.177  18.951  0.00  0.00    +0.000 N 
ATOM     11  C   UNL     1      47.709   3.418  17.777  0.00  0.00    +0.000 C 
ATOM     12  O   UNL     1      46.697   2.795  17.474  0.00  0.00    +0.000 OA
ATOM     13  H   UNL     1      47.929   2.521  19.589  0.00  0.00    +0.000 HD
ATOM     14  H   UNL     1      49.020   3.839  19.350  0.00  0.00    +0.000 HD
ENDBRANCH   2  11
ENDBRANCH   1   6
BRANCH   1  15
ATOM     15  C   UNL     1      49.060   8.062  12.336  0.00  0.00    +0.000 C 
ATOM     16  F   UNL     1      49.513   9.096  11.566  0.00  0.00    +0.000 F 
ATOM     17  F   UNL     1      49.799   6.978  11.959  0.00  0.00    +0.000 F 
BRANCH  15  18
ATOM     18  C   UNL     1      47.573   7.819  12.155  0.00  0.00    +0.000 A 
ATOM     19  C   UNL     1      46.639   8.809  12.506  0.00  0.00    +0.000 A 
ATOM     20  C   UNL     1      45.278   8.623  12.262  0.00  0.00    +0.000 A 
ATOM     21  C   UNL     1      44.835   7.457  11.642  0.00  0.00    +0.000 A 
ATOM     22  C   UNL     1      45.753   6.471  11.269  0.00  0.00    +0.000 A 
ATOM     23  C   UNL     1      47.113   6.640  11.549  0.00  0.00    +0.000 A 
BRANCH  22  24
ATOM     24  C   UNL     1      45.304   5.363  10.427  0.00  0.00    +0.000 C 
ATOM     25  C   UNL     1      44.718   4.275  10.945  0.00  0.00    +0.000 C 
ATOM     26  C   UNL     1      44.347   3.902  12.370  0.00  0.00    +0.000 C 
ATOM     27  C   UNL     1      43.444   2.852  11.699  0.00  0.00    +0.000 C 
ATOM     28  C   UNL     1      44.231   2.963  10.376  0.00  0.00    +0.000 C 
ENDBRANCH  22  24
ENDBRANCH  15  18
ENDBRANCH   1  15
TORSDOF 5
ENDMDL
MODEL 8
REMARK VINA RESULT:    -6.969      3.789      6.176
REMARK INTER + INTRA:         -10.055
REMARK INTER:                  -8.289
REMARK INTRA:                  -1.766
REMARK UNBOUND:                -1.049
REMARK  Name = 
REMARK  5 active torsions:
REMARK  status: ('A' for Active; 'I' for Inactive)
REMARK    1  A    between atoms: C_2  and  C_4
REMARK    2  A    between atoms: N_8  and  C_9
REMARK    3  A    between atoms: C_9  and  C_10
REMARK    4  A    between atoms: C_10  and  C_13
REMARK    5  A    between atoms: C_17  and  C_18
REMARK                            x       y       z     vdW  Elec       q    Type
REMARK                         _______ _______ _______ _____ _____    ______ ____
ROOT
ATOM      1  C   UNL     1      47.181   4.325  16.435  0.00  0.00    +0.000 C 
ENDROOT
BRANCH   1   6
ATOM      2  C   UNL     1      45.529   4.756  11.628  0.00  0.00    +0.000 A 
ATOM      3  C   UNL     1      46.040   5.723  12.486  0.00  0.00    +0.000 A 
ATOM      4  C   UNL     1      46.585   5.329  13.706  0.00  0.00    +0.000 A 
ATOM      5  C   UNL     1      46.597   3.983  14.061  0.00  0.00    +0.000 A 
ATOM      6  N   UNL     1      47.206   3.515  15.210  0.00  0.00    +0.000 N 
ATOM      7  N   UNL     1      46.073   3.041  13.252  0.00  0.00    +0.000 NA
ATOM      8  C   UNL     1      45.547   3.440  12.061  0.00  0.00    +0.000 A 
ATOM      9  H   UNL     1      46.977   2.528  15.327  0.00  0.00    +0.000 HD
BRANCH   2  11
ATOM     10  N   UNL     1      43.622   5.141  10.179  0.00  0.00    +0.000 N 
ATOM     11  C   UNL     1      44.982   5.085  10.297  0.00  0.00    +0.000 C 
ATOM     12  O   UNL     1      45.715   5.333   9.346  0.00  0.00    +0.000 OA
ATOM     13  H   UNL     1      43.257   5.476   9.295  0.00  0.00    +0.000 HD
ATOM     14  H   UNL     1      43.012   5.213  10.984  0.00  0.00    +0.000 HD
ENDBRANCH   2  11
ENDBRANCH   1   6
BRANCH   1  15
ATOM     15  C   UNL     1      48.509   4.290  17.236  0.00  0.00    +0.000 C 
ATOM     16  F   UNL     1      48.208   4.290  18.569  0.00  0.00    +0.000 F 
ATOM     17  F   UNL     1      49.137   3.099  17.006  0.00  0.00    +0.000 F 
BRANCH  15  18
ATOM     18  C   UNL     1      49.378   5.470  16.842  0.00  0.00    +0.000 A 
ATOM     19  C   UNL     1      50.761   5.455  17.093  0.00  0.00    +0.000 A 
ATOM     20  C   UNL     1      51.575   6.500  16.655  0.00  0.00    +0.000 A 
ATOM     21  C   UNL     1      51.023   7.560  15.940  0.00  0.00    +0.000 A 
ATOM     22  C   UNL     1      49.652   7.580  15.666  0.00  0.00    +0.000 A 
ATOM     23  C   UNL     1      48.829   6.552  16.138  0.00  0.00    +0.000 A 
BRANCH  22  24
ATOM     24  C   UNL     1      49.128   8.577  14.732  0.00  0.00    +0.000 C 
ATOM     25  C   UNL     1      49.137   8.377  13.408  0.00  0.00    +0.000 C 
ATOM     26  C   UNL     1      49.596   7.203  12.560  0.00  0.00    +0.000 C 
ATOM     27  C   UNL     1      48.756   7.869  11.454  0.00  0.00    +0.000 C 
ATOM     28  C   UNL     1      48.760   9.215  12.209  0.00  0.00    +0.000 C 
ENDBRANCH  22  24
ENDBRANCH  15  18
ENDBRANCH   1  15
TORSDOF 5
ENDMDL
MODEL 9
REMARK VINA RESULT:    -6.960      4.234      6.639
REMARK INTER + INTRA:         -10.043
REMARK INTER:                  -9.265
REMARK INTRA:                  -0.778
REMARK UNBOUND:                -1.049
REMARK  Name = 
REMARK  5 active torsions:
REMARK  status: ('A' for Active; 'I' for Inactive)
REMARK    1  A    between atoms: C_2  and  C_4
REMARK    2  A    between atoms: N_8  and  C_9
REMARK    3  A    between atoms: C_9  and  C_10
REMARK    4  A    between atoms: C_10  and  C_13
REMARK    5  A    between atoms: C_17  and  C_18
REMARK                            x       y       z     vdW  Elec       q    Type
REMARK                         _______ _______ _______ _____ _____    ______ ____
ROOT
ATOM      1  C   UNL     1      47.503   4.046  15.866  0.00  0.00    +0.000 C 
ENDROOT
BRANCH   1   6
ATOM      2  C   UNL     1      44.448   4.955  11.884  0.00  0.00    +0.000 A 
ATOM      3  C   UNL     1      45.088   5.845  12.739  0.00  0.00    +0.000 A 
ATOM      4  C   UNL     1      46.012   5.356  13.660  0.00  0.00    +0.000 A 
ATOM      5  C   UNL     1      46.273   3.990  13.727  0.00  0.00    +0.000 A 
ATOM      6  N   UNL     1      47.245   3.451  14.548  0.00  0.00    +0.000 N 
ATOM      7  N   UNL     1      45.632   3.115  12.926  0.00  0.00    +0.000 NA
ATOM      8  C   UNL     1      44.734   3.607  12.030  0.00  0.00    +0.000 A 
ATOM      9  H   UNL     1      47.166   2.434  14.528  0.00  0.00    +0.000 HD
BRANCH   2  11
ATOM     10  N   UNL     1      42.745   6.507  11.122  0.00  0.00    +0.000 N 
ATOM     11  C   UNL     1      43.495   5.398  10.847  0.00  0.00    +0.000 C 
ATOM     12  O   UNL     1      43.402   4.817   9.771  0.00  0.00    +0.000 OA
ATOM     13  H   UNL     1      42.177   6.869  10.366  0.00  0.00    +0.000 HD
ATOM     14  H   UNL     1      42.988   7.153  11.864  0.00  0.00    +0.000 HD
ENDBRANCH   2  11
ENDBRANCH   1   6
BRANCH   1  15
ATOM     15  C   UNL     1      48.072   3.043  16.904  0.00  0.00    +0.000 C 
ATOM     16  F   UNL     1      47.026   2.497  17.594  0.00  0.00    +0.000 F 
ATOM     17  F   UNL     1      48.655   1.999  16.244  0.00  0.00    +0.000 F 
BRANCH  15  18
ATOM     18  C   UNL     1      49.056   3.751  17.817  0.00  0.00    +0.000 A 
ATOM     19  C   UNL     1      48.693   4.095  19.131  0.00  0.00    +0.000 A 
ATOM     20  C   UNL     1      49.621   4.669  19.999  0.00  0.00    +0.000 A 
ATOM     21  C   UNL     1      50.930   4.884  19.575  0.00  0.00    +0.000 A 
ATOM     22  C   UNL     1      51.313   4.530  18.278  0.00  0.00    +0.000 A 
ATOM     23  C   UNL     1      50.372   3.991  17.394  0.00  0.00    +0.000 A 
BRANCH  22  24
ATOM     24  C   UNL     1      52.731   4.555  17.922  0.00  0.00    +0.000 C 
ATOM     25  C   UNL     1      53.482   3.446  17.933  0.00  0.00    +0.000 C 
ATOM     26  C   UNL     1      53.149   1.996  18.242  0.00  0.00    +0.000 C 
ATOM     27  C   UNL     1      54.481   1.697  17.531  0.00  0.00    +0.000 C 
ATOM     28  C   UNL     1      54.947   3.158  17.707  0.00  0.00    +0.000 C 
ENDBRANCH  22  24
ENDBRANCH  15  18
ENDBRANCH   1  15
TORSDOF 5
ENDMDL
