MODEL 1
REMARK VINA RESULT:    -7.005      0.000      0.000
REMARK INTER + INTRA:          -9.877
REMARK INTER:                  -9.257
REMARK INTRA:                  -0.620
REMARK UNBOUND:                -0.620
REMARK  Name = 
REMARK  6 active torsions:
REMARK  status: ('A' for Active; 'I' for Inactive)
REMARK    1  A    between atoms: N_1  and  C_2
REMARK    2  A    between atoms: C_2  and  C_3
REMARK    3  A    between atoms: C_3  and  O_4
REMARK    4  A    between atoms: O_4  and  C_5
REMARK    5  A    between atoms: C_8  and  C_9
REMARK    6  A    between atoms: C_9  and  N_10
REMARK                            x       y       z     vdW  Elec       q    Type
REMARK                         _______ _______ _______ _____ _____    ______ ____
ROOT
ATOM      1  C   UNL     1      45.548   2.934   8.168  0.00  0.00    +0.000 A 
ATOM      2  C   UNL     1      44.824   2.437   9.252  0.00  0.00    +0.000 A 
ATOM      3  C   UNL     1      44.503   3.263  10.332  0.00  0.00    +0.000 A 
ATOM      4  C   UNL     1      44.902   4.605  10.351  0.00  0.00    +0.000 A 
ATOM      5  C   UNL     1      45.627   5.103   9.260  0.00  0.00    +0.000 A 
ATOM      6  C   UNL     1      45.943   4.273   8.177  0.00  0.00    +0.000 A 
ENDROOT
BRANCH   1   7
ATOM      7  O   UNL     1      45.920   2.217   7.061  0.00  0.00    +0.000 OA
BRANCH   7   8
ATOM      8  C   UNL     1      47.040   1.344   7.236  0.00  0.00    +0.000 C 
BRANCH   8   9
ATOM      9  C   UNL     1      48.312   2.031   6.732  0.00  0.00    +0.000 C 
BRANCH   9  10
ATOM     10  N   UNL     1      48.402   1.986   5.271  0.00  0.00    +0.000 NA
ATOM     11  H   UNL     1      48.365   1.016   4.961  0.00  0.00    +0.000 HD
ATOM     12  H   UNL     1      49.309   2.344   4.972  0.00  0.00    +0.000 HD
ENDBRANCH   9  10
ENDBRANCH   8   9
ENDBRANCH   7   8
ENDBRANCH   1   7
BRANCH   4  13
ATOM     13  C   UNL     1      44.554   5.490  11.522  0.00  0.00    +0.000 C 
BRANCH  13  14
ATOM     14  N   UNL     1      45.576   5.460  12.563  0.00  0.00    +0.000 N 
ATOM     15  C   UNL     1      45.563   4.588  13.629  0.00  0.00    +0.000 A 
ATOM     16  C   UNL     1      46.734   4.761  14.335  0.00  0.00    +0.000 A 
ATOM     17  C   UNL     1      47.484   5.755  13.673  0.00  0.00    +0.000 A 
ATOM     18  N   UNL     1      48.712   6.237  13.990  0.00  0.00    +0.000 NA
ATOM     19  C   UNL     1      49.181   7.186  13.155  0.00  0.00    +0.000 A 
ATOM     20  C   UNL     1      48.515   7.685  12.046  0.00  0.00    +0.000 A 
ATOM     21  C   UNL     1      47.255   7.186  11.727  0.00  0.00    +0.000 A 
ATOM     22  C   UNL     1      46.746   6.193  12.571  0.00  0.00    +0.000 A 
ENDBRANCH  13  14
ENDBRANCH   4  13
TORSDOF 6
ENDMDL
MODEL 2
REMARK VINA RESULT:    -6.721      1.204      1.684
REMARK INTER + INTRA:          -9.502
REMARK INTER:                  -8.918
REMARK INTRA:                  -0.583
REMARK UNBOUND:                -0.620
REMARK  Name = 
REMARK  6 active torsions:
REMARK  status: ('A' for Active; 'I' for Inactive)
REMARK    1  A    between atoms: N_1  and  C_2
REMARK    2  A    between atoms: C_2  and  C_3
REMARK    3  A    between atoms: C_3  and  O_4
REMARK    4  A    between atoms: O_4  and  C_5
REMARK    5  A    between atoms: C_8  and  C_9
REMARK    6  A    between atoms: C_9  and  N_10
REMARK                            x       y       z     vdW  Elec       q    Type
REMARK                         _______ _______ _______ _____ _____    ______ ____
ROOT
ATOM      1  C   UNL     1      45.285   3.418   8.334  0.00  0.00    +0.000 A 
ATOM      2  C   UNL     1      45.569   4.721   8.742  0.00  0.00    +0.000 A 
ATOM      3  C   UNL     1      45.266   5.142  10.039  0.00  0.00    +0.000 A 
ATOM      4  C   UNL     1      44.669   4.267  10.955  0.00  0.00    +0.000 A 
ATOM      5  C   UNL     1      44.387   2.958  10.544  0.00  0.00    +0.000 A 
ATOM      6  C   UNL     1      44.696   2.538   9.245  0.00  0.00    +0.000 A 
ENDROOT
BRANCH   1   7
ATOM      7  O   UNL     1      45.535   2.899   7.090  0.00  0.00    +0.000 OA
BRANCH   7   8
ATOM      8  C   UNL     1      46.789   3.265   6.506  0.00  0.00    +0.000 C 
BRANCH   8   9
ATOM      9  C   UNL     1      47.847   2.217   6.859  0.00  0.00    +0.000 C 
BRANCH   9  10
ATOM     10  N   UNL     1      48.568   1.764   5.669  0.00  0.00    +0.000 NA
ATOM     11  H   UNL     1      48.036   2.014   4.836  0.00  0.00    +0.000 HD
ATOM     12  H   UNL     1      48.628   0.745   5.671  0.00  0.00    +0.000 HD
ENDBRANCH   9  10
ENDBRANCH   8   9
ENDBRANCH   7   8
ENDBRANCH   1   7
BRANCH   4  13
ATOM     13  C   UNL     1      44.342   4.731  12.353  0.00  0.00    +0.000 C 
BRANCH  13  14
ATOM     14  N   UNL     1      45.513   5.239  13.058  0.00  0.00    +0.000 N 
ATOM     15  C   UNL     1      46.446   4.437  13.680  0.00  0.00    +0.000 A 
ATOM     16  C   UNL     1      47.468   5.244  14.131  0.00  0.00    +0.000 A 
ATOM     17  C   UNL     1      47.156   6.570  13.762  0.00  0.00    +0.000 A 
ATOM     18  N   UNL     1      47.881   7.696  13.972  0.00  0.00    +0.000 NA
ATOM     19  C   UNL     1      47.324   8.825  13.491  0.00  0.00    +0.000 A 
ATOM     20  C   UNL     1      46.107   8.907  12.831  0.00  0.00    +0.000 A 
ATOM     21  C   UNL     1      45.369   7.746  12.619  0.00  0.00    +0.000 A 
ATOM     22  C   UNL     1      45.926   6.556  13.100  0.00  0.00    +0.000 A 
ENDBRANCH  13  14
ENDBRANCH   4  13
TORSDOF 6
ENDMDL
MODEL 3
REMARK VINA RESULT:    -6.442      1.189      1.990
REMARK INTER + INTRA:          -9.134
REMARK INTER:                  -8.636
REMARK INTRA:                  -0.498
REMARK UNBOUND:                -0.620
REMARK  Name = 
REMARK  6 active torsions:
REMARK  status: ('A' for Active; 'I' for Inactive)
REMARK    1  A    between atoms: N_1  and  C_2
REMARK    2  A    between atoms: C_2  and  C_3
REMARK    3  A    between atoms: C_3  and  O_4
REMARK    4  A    between atoms: O_4  and  C_5
REMARK    5  A    between atoms: C_8  and  C_9
REMARK    6  A    between atoms: C_9  and  N_10
REMARK                            x       y       z     vdW  Elec       q    Type
REMARK                         _______ _______ _______ _____ _____    ______ ____
ROOT
ATOM      1  C   UNL     1      45.236   2.477   8.663  0.00  0.00    +0.000 A 
ATOM      2  C   UNL     1      44.487   2.151   9.794  0.00  0.00    +0.000 A 
ATOM      3  C   UNL     1      43.964   3.153  10.614  0.00  0.00    +0.000 A 
ATOM      4  C   UNL     1      44.181   4.504  10.320  0.00  0.00    +0.000 A 
ATOM      5  C   UNL     1      44.931   4.830   9.182  0.00  0.00    +0.000 A 
ATOM      6  C   UNL     1      45.450   3.823   8.360  0.00  0.00    +0.000 A 
ENDROOT
BRANCH   1   7
ATOM      7  O   UNL     1      45.798   1.579   7.792  0.00  0.00    +0.000 OA
BRANCH   7   8
ATOM      8  C   UNL     1      47.151   1.847   7.413  0.00  0.00    +0.000 C 
BRANCH   8   9
ATOM      9  C   UNL     1      47.209   2.199   5.924  0.00  0.00    +0.000 C 
BRANCH   9  10
ATOM     10  N   UNL     1      48.504   1.844   5.341  0.00  0.00    +0.000 NA
ATOM     11  H   UNL     1      49.239   2.007   6.027  0.00  0.00    +0.000 HD
ATOM     12  H   UNL     1      48.708   2.463   4.556  0.00  0.00    +0.000 HD
ENDBRANCH   9  10
ENDBRANCH   8   9
ENDBRANCH   7   8
ENDBRANCH   1   7
BRANCH   4  13
ATOM     13  C   UNL     1      43.615   5.581  11.212  0.00  0.00    +0.000 C 
BRANCH  13  14
ATOM     14  N   UNL     1      44.638   6.514  11.674  0.00  0.00    +0.000 N 
ATOM     15  C   UNL     1      44.621   7.866  11.410  0.00  0.00    +0.000 A 
ATOM     16  C   UNL     1      45.664   8.447  12.098  0.00  0.00    +0.000 A 
ATOM     17  C   UNL     1      46.324   7.423  12.811  0.00  0.00    +0.000 A 
ATOM     18  N   UNL     1      47.389   7.527  13.644  0.00  0.00    +0.000 NA
ATOM     19  C   UNL     1      47.794   6.364  14.192  0.00  0.00    +0.000 A 
ATOM     20  C   UNL     1      47.221   5.122  13.964  0.00  0.00    +0.000 A 
ATOM     21  C   UNL     1      46.128   5.024  13.108  0.00  0.00    +0.000 A 
ATOM     22  C   UNL     1      45.679   6.217  12.530  0.00  0.00    +0.000 A 
ENDBRANCH  13  14
ENDBRANCH   4  13
TORSDOF 6
ENDMDL
MODEL 4
REMARK VINA RESULT:    -5.935      1.916      2.421
REMARK INTER + INTRA:          -8.463
REMARK INTER:                  -7.959
REMARK INTRA:                  -0.504
REMARK UNBOUND:                -0.620
REMARK  Name = 
REMARK  6 active torsions:
REMARK  status: ('A' for Active; 'I' for Inactive)
REMARK    1  A    between atoms: N_1  and  C_2
REMARK    2  A    between atoms: C_2  and  C_3
REMARK    3  A    between atoms: C_3  and  O_4
REMARK    4  A    between atoms: O_4  and  C_5
REMARK    5  A    between atoms: C_8  and  C_9
REMARK    6  A    between atoms: C_9  and  N_10
REMARK                            x       y       z     vdW  Elec       q    Type
REMARK                         _______ _______ _______ _____ _____    ______ ____
ROOT
ATOM      1  C   UNL     1      44.840   3.301   9.571  0.00  0.00    +0.000 A 
ATOM      2  C   UNL     1      44.424   2.885  10.836  0.00  0.00    +0.000 A 
ATOM      3  C   UNL     1      44.429   3.774  11.914  0.00  0.00    +0.000 A 
ATOM      4  C   UNL     1      44.852   5.098  11.749  0.00  0.00    +0.000 A 
ATOM      5  C   UNL     1      45.267   5.514  10.477  0.00  0.00    +0.000 A 
ATOM      6  C   UNL     1      45.257   4.622   9.398  0.00  0.00    +0.000 A 
ENDROOT
BRANCH   1   7
ATOM      7  O   UNL     1      44.880   2.517   8.447  0.00  0.00    +0.000 OA
BRANCH   7   8
ATOM      8  C   UNL     1      46.057   1.718   8.290  0.00  0.00    +0.000 C 
BRANCH   8   9
ATOM      9  C   UNL     1      46.939   2.311   7.188  0.00  0.00    +0.000 C 
BRANCH   9  10
ATOM     10  N   UNL     1      48.074   1.438   6.884  0.00  0.00    +0.000 NA
ATOM     11  H   UNL     1      48.327   0.911   7.719  0.00  0.00    +0.000 HD
ATOM     12  H   UNL     1      48.888   2.004   6.648  0.00  0.00    +0.000 HD
ENDBRANCH   9  10
ENDBRANCH   8   9
ENDBRANCH   7   8
ENDBRANCH   1   7
BRANCH   4  13
ATOM     13  C   UNL     1      44.856   6.051  12.918  0.00  0.00    +0.000 C 
BRANCH  13  14
ATOM     14  N   UNL     1      46.063   6.870  12.962  0.00  0.00    +0.000 N 
ATOM     15  C   UNL     1      47.315   6.380  13.264  0.00  0.00    +0.000 A 
ATOM     16  C   UNL     1      48.224   7.401  13.093  0.00  0.00    +0.000 A 
ATOM     17  C   UNL     1      47.508   8.538  12.662  0.00  0.00    +0.000 A 
ATOM     18  N   UNL     1      47.987   9.767  12.344  0.00  0.00    +0.000 NA
ATOM     19  C   UNL     1      47.053  10.655  11.952  0.00  0.00    +0.000 A 
ATOM     20  C   UNL     1      45.691  10.407  11.863  0.00  0.00    +0.000 A 
ATOM     21  C   UNL     1      45.207   9.143  12.191  0.00  0.00    +0.000 A 
ATOM     22  C   UNL     1      46.156   8.197  12.594  0.00  0.00    +0.000 A 
ENDBRANCH  13  14
ENDBRANCH   4  13
TORSDOF 6
ENDMDL
MODEL 5
REMARK VINA RESULT:    -5.882      2.879      6.806
REMARK INTER + INTRA:          -8.393
REMARK INTER:                  -7.751
REMARK INTRA:                  -0.642
REMARK UNBOUND:                -0.620
REMARK  Name = 
REMARK  6 active torsions:
REMARK  status: ('A' for Active; 'I' for Inactive)
REMARK    1  A    between atoms: N_1  and  C_2
REMARK    2  A    between atoms: C_2  and  C_3
REMARK    3  A    between atoms: C_3  and  O_4
REMARK    4  A    between atoms: O_4  and  C_5
REMARK    5  A    between atoms: C_8  and  C_9
REMARK    6  A    between atoms: C_9  and  N_10
REMARK                            x       y       z     vdW  Elec       q    Type
REMARK                         _______ _______ _______ _____ _____    ______ ____
ROOT
ATOM      1  C   UNL     1      48.250   6.979  13.530  0.00  0.00    +0.000 A 
ATOM      2  C   UNL     1      47.553   5.821  13.874  0.00  0.00    +0.000 A 
ATOM      3  C   UNL     1      46.291   5.563  13.333  0.00  0.00    +0.000 A 
ATOM      4  C   UNL     1      45.700   6.460  12.436  0.00  0.00    +0.000 A 
ATOM      5  C   UNL     1      46.402   7.622  12.090  0.00  0.00    +0.000 A 
ATOM      6  C   UNL     1      47.668   7.875  12.631  0.00  0.00    +0.000 A 
ENDROOT
BRANCH   1   7
ATOM      7  O   UNL     1      49.488   7.335  14.000  0.00  0.00    +0.000 OA
BRANCH   7   8
ATOM      8  C   UNL     1      49.539   8.550  14.754  0.00  0.00    +0.000 C 
BRANCH   8   9
ATOM      9  C   UNL     1      48.839   8.351  16.101  0.00  0.00    +0.000 C 
BRANCH   9  10
ATOM     10  N   UNL     1      47.726   9.286  16.269  0.00  0.00    +0.000 NA
ATOM     11  H   UNL     1      47.107   8.945  17.003  0.00  0.00    +0.000 HD
ATOM     12  H   UNL     1      47.167   9.310  15.416  0.00  0.00    +0.000 HD
ENDBRANCH   9  10
ENDBRANCH   8   9
ENDBRANCH   7   8
ENDBRANCH   1   7
BRANCH   4  13
ATOM     13  C   UNL     1      44.336   6.175  11.858  0.00  0.00    +0.000 C 
BRANCH  13  14
ATOM     14  N   UNL     1      44.190   4.787  11.435  0.00  0.00    +0.000 N 
ATOM     15  C   UNL     1      43.430   3.853  12.105  0.00  0.00    +0.000 A 
ATOM     16  C   UNL     1      43.425   2.694  11.360  0.00  0.00    +0.000 A 
ATOM     17  C   UNL     1      44.190   2.933  10.199  0.00  0.00    +0.000 A 
ATOM     18  N   UNL     1      44.441   2.091   9.166  0.00  0.00    +0.000 NA
ATOM     19  C   UNL     1      45.204   2.611   8.185  0.00  0.00    +0.000 A 
ATOM     20  C   UNL     1      45.732   3.893   8.167  0.00  0.00    +0.000 A 
ATOM     21  C   UNL     1      45.470   4.752   9.230  0.00  0.00    +0.000 A 
ATOM     22  C   UNL     1      44.672   4.242  10.261  0.00  0.00    +0.000 A 
ENDBRANCH  13  14
ENDBRANCH   4  13
TORSDOF 6
ENDMDL
MODEL 6
REMARK VINA RESULT:    -5.865      2.499      6.692
REMARK INTER + INTRA:          -8.371
REMARK INTER:                  -7.790
REMARK INTRA:                  -0.581
REMARK UNBOUND:                -0.620
REMARK  Name = 
REMARK  6 active torsions:
REMARK  status: ('A' for Active; 'I' for Inactive)
REMARK    1  A    between atoms: N_1  and  C_2
REMARK    2  A    between atoms: C_2  and  C_3
REMARK    3  A    between atoms: C_3  and  O_4
REMARK    4  A    between atoms: O_4  and  C_5
REMARK    5  A    between atoms: C_8  and  C_9
REMARK    6  A    between atoms: C_9  and  N_10
REMARK                            x       y       z     vdW  Elec       q    Type
REMARK                         _______ _______ _______ _____ _____    ______ ____
ROOT
ATOM      1  C   UNL     1      46.230   5.717  12.875  0.00  0.00    +0.000 A 
ATOM      2  C   UNL     1      45.475   4.545  12.903  0.00  0.00    +0.000 A 
ATOM      3  C   UNL     1      44.902   4.040  11.733  0.00  0.00    +0.000 A 
ATOM      4  C   UNL     1      45.072   4.700  10.510  0.00  0.00    +0.000 A 
ATOM      5  C   UNL     1      45.833   5.876  10.484  0.00  0.00    +0.000 A 
ATOM      6  C   UNL     1      46.410   6.376  11.657  0.00  0.00    +0.000 A 
ENDROOT
BRANCH   1   7
ATOM      7  O   UNL     1      46.834   6.303  13.958  0.00  0.00    +0.000 OA
BRANCH   7   8
ATOM      8  C   UNL     1      48.117   6.886  13.712  0.00  0.00    +0.000 C 
BRANCH   8   9
ATOM      9  C   UNL     1      48.328   8.079  14.649  0.00  0.00    +0.000 C 
BRANCH   9  10
ATOM     10  N   UNL     1      47.164   8.967  14.655  0.00  0.00    +0.000 NA
ATOM     11  H   UNL     1      47.330   9.736  15.302  0.00  0.00    +0.000 HD
ATOM     12  H   UNL     1      46.352   8.466  15.014  0.00  0.00    +0.000 HD
ENDBRANCH   9  10
ENDBRANCH   8   9
ENDBRANCH   7   8
ENDBRANCH   1   7
BRANCH   4  13
ATOM     13  C   UNL     1      44.448   4.150   9.252  0.00  0.00    +0.000 C 
BRANCH  13  14
ATOM     14  N   UNL     1      45.131   2.955   8.769  0.00  0.00    +0.000 N 
ATOM     15  C   UNL     1      44.807   1.673   9.158  0.00  0.00    +0.000 A 
ATOM     16  C   UNL     1      45.570   0.798   8.416  0.00  0.00    +0.000 A 
ATOM     17  C   UNL     1      46.367   1.566   7.542  0.00  0.00    +0.000 A 
ATOM     18  N   UNL     1      47.252   1.135   6.609  0.00  0.00    +0.000 NA
ATOM     19  C   UNL     1      47.862   2.114   5.912  0.00  0.00    +0.000 A 
ATOM     20  C   UNL     1      47.657   3.475   6.085  0.00  0.00    +0.000 A 
ATOM     21  C   UNL     1      46.747   3.910   7.044  0.00  0.00    +0.000 A 
ATOM     22  C   UNL     1      46.091   2.915   7.777  0.00  0.00    +0.000 A 
ENDBRANCH  13  14
ENDBRANCH   4  13
TORSDOF 6
ENDMDL
MODEL 7
REMARK VINA RESULT:    -5.675      2.975      6.093
REMARK INTER + INTRA:          -8.120
REMARK INTER:                  -7.486
REMARK INTRA:                  -0.633
REMARK UNBOUND:                -0.620
REMARK  Name = 
REMARK  6 active torsions:
REMARK  status: ('A' for Active; 'I' for Inactive)
REMARK    1  A    between atoms: N_1  and  C_2
REMARK    2  A    between atoms: C_2  and  C_3
REMARK    3  A    between atoms: C_3  and  O_4
REMARK    4  A    between atoms: O_4  and  C_5
REMARK    5  A    between atoms: C_8  and  C_9
REMARK    6  A    between atoms: C_9  and  N_10
REMARK                            x       y       z     vdW  Elec       q    Type
REMARK                         _______ _______ _______ _____ _____    ______ ____
ROOT
ATOM      1  C   UNL     1      48.569   7.253  12.840  0.00  0.00    +0.000 A 
ATOM      2  C   UNL     1      48.054   6.069  13.369  0.00  0.00    +0.000 A 
ATOM      3  C   UNL     1      46.702   5.751  13.218  0.00  0.00    +0.000 A 
ATOM      4  C   UNL     1      45.836   6.613  12.535  0.00  0.00    +0.000 A 
ATOM      5  C   UNL     1      46.355   7.801  12.003  0.00  0.00    +0.000 A 
ATOM      6  C   UNL     1      47.711   8.114  12.152  0.00  0.00    +0.000 A 
ENDROOT
BRANCH   1   7
ATOM      7  O   UNL     1      49.872   7.667  12.931  0.00  0.00    +0.000 OA
BRANCH   7   8
ATOM      8  C   UNL     1      50.154   8.956  12.377  0.00  0.00    +0.000 C 
BRANCH   8   9
ATOM      9  C   UNL     1      51.280   8.839  11.347  0.00  0.00    +0.000 C 
BRANCH   9  10
ATOM     10  N   UNL     1      52.186   7.734  11.668  0.00  0.00    +0.000 NA
ATOM     11  H   UNL     1      51.719   7.088  12.303  0.00  0.00    +0.000 HD
ATOM     12  H   UNL     1      52.996   8.092  12.174  0.00  0.00    +0.000 HD
ENDBRANCH   9  10
ENDBRANCH   8   9
ENDBRANCH   7   8
ENDBRANCH   1   7
BRANCH   4  13
ATOM     13  C   UNL     1      44.377   6.264  12.378  0.00  0.00    +0.000 C 
BRANCH  13  14
ATOM     14  N   UNL     1      44.178   4.884  11.948  0.00  0.00    +0.000 N 
ATOM     15  C   UNL     1      43.495   3.940  12.683  0.00  0.00    +0.000 A 
ATOM     16  C   UNL     1      43.401   2.795  11.922  0.00  0.00    +0.000 A 
ATOM     17  C   UNL     1      44.030   3.055  10.686  0.00  0.00    +0.000 A 
ATOM     18  N   UNL     1      44.158   2.232   9.616  0.00  0.00    +0.000 NA
ATOM     19  C   UNL     1      44.807   2.769   8.564  0.00  0.00    +0.000 A 
ATOM     20  C   UNL     1      45.334   4.050   8.509  0.00  0.00    +0.000 A 
ATOM     21  C   UNL     1      45.198   4.889   9.612  0.00  0.00    +0.000 A 
ATOM     22  C   UNL     1      44.521   4.361  10.717  0.00  0.00    +0.000 A 
ENDBRANCH  13  14
ENDBRANCH   4  13
TORSDOF 6
ENDMDL
MODEL 8
REMARK VINA RESULT:    -5.063      4.320      7.275
REMARK INTER + INTRA:          -7.311
REMARK INTER:                  -6.864
REMARK INTRA:                  -0.447
REMARK UNBOUND:                -0.620
REMARK  Name = 
REMARK  6 active torsions:
REMARK  status: ('A' for Active; 'I' for Inactive)
REMARK    1  A    between atoms: N_1  and  C_2
REMARK    2  A    between atoms: C_2  and  C_3
REMARK    3  A    between atoms: C_3  and  O_4
REMARK    4  A    between atoms: O_4  and  C_5
REMARK    5  A    between atoms: C_8  and  C_9
REMARK    6  A    between atoms: C_9  and  N_10
REMARK                            x       y       z     vdW  Elec       q    Type
REMARK                         _______ _______ _______ _____ _____    ______ ____
ROOT
ATOM      1  C   UNL     1      43.112  10.333  11.166  0.00  0.00    +0.000 A 
ATOM      2  C   UNL     1      44.320  10.629  11.798  0.00  0.00    +0.000 A 
ATOM      3  C   UNL     1      45.264   9.626  12.033  0.00  0.00    +0.000 A 
ATOM      4  C   UNL     1      45.018   8.305  11.640  0.00  0.00    +0.000 A 
ATOM      5  C   UNL     1      43.806   8.011  11.003  0.00  0.00    +0.000 A 
ATOM      6  C   UNL     1      42.863   9.018  10.765  0.00  0.00    +0.000 A 
ENDROOT
BRANCH   1   7
ATOM      7  O   UNL     1      42.115  11.232  10.889  0.00  0.00    +0.000 OA
BRANCH   7   8
ATOM      8  C   UNL     1      41.096  11.355  11.885  0.00  0.00    +0.000 C 
BRANCH   8   9
ATOM      9  C   UNL     1      39.740  10.978  11.284  0.00  0.00    +0.000 C 
BRANCH   9  10
ATOM     10  N   UNL     1      39.459   9.551  11.451  0.00  0.00    +0.000 NA
ATOM     11  H   UNL     1      38.476   9.374  11.249  0.00  0.00    +0.000 HD
ATOM     12  H   UNL     1      39.599   9.286  12.426  0.00  0.00    +0.000 HD
ENDBRANCH   9  10
ENDBRANCH   8   9
ENDBRANCH   7   8
ENDBRANCH   1   7
BRANCH   4  13
ATOM     13  C   UNL     1      46.042   7.228  11.899  0.00  0.00    +0.000 C 
BRANCH  13  14
ATOM     14  N   UNL     1      45.449   5.895  11.931  0.00  0.00    +0.000 N 
ATOM     15  C   UNL     1      44.872   5.336  13.051  0.00  0.00    +0.000 A 
ATOM     16  C   UNL     1      44.314   4.130  12.685  0.00  0.00    +0.000 A 
ATOM     17  C   UNL     1      44.545   3.958  11.304  0.00  0.00    +0.000 A 
ATOM     18  N   UNL     1      44.155   2.934  10.505  0.00  0.00    +0.000 NA
ATOM     19  C   UNL     1      44.517   3.056   9.212  0.00  0.00    +0.000 A 
ATOM     20  C   UNL     1      45.238   4.110   8.672  0.00  0.00    +0.000 A 
ATOM     21  C   UNL     1      45.634   5.158   9.498  0.00  0.00    +0.000 A 
ATOM     22  C   UNL     1      45.264   5.063  10.844  0.00  0.00    +0.000 A 
ENDBRANCH  13  14
ENDBRANCH   4  13
TORSDOF 6
ENDMDL
MODEL 9
REMARK VINA RESULT:    -5.025      3.118      5.256
REMARK INTER + INTRA:          -7.260
REMARK INTER:                  -6.582
REMARK INTRA:                  -0.678
REMARK UNBOUND:                -0.620
REMARK  Name = 
REMARK  6 active torsions:
REMARK  status: ('A' for Active; 'I' for Inactive)
REMARK    1  A    between atoms: N_1  and  C_2
REMARK    2  A    between atoms: C_2  and  C_3
REMARK    3  A    between atoms: C_3  and  O_4
REMARK    4  A    between atoms: O_4  and  C_5
REMARK    5  A    between atoms: C_8  and  C_9
REMARK    6  A    between atoms: C_9  and  N_10
REMARK                            x       y       z     vdW  Elec       q    Type
REMARK                         _______ _______ _______ _____ _____    ______ ____
ROOT
ATOM      1  C   UNL     1      45.240   5.522  12.019  0.00  0.00    +0.000 A 
ATOM      2  C   UNL     1      45.926   6.569  11.402  0.00  0.00    +0.000 A 
ATOM      3  C   UNL     1      47.141   7.026  11.921  0.00  0.00    +0.000 A 
ATOM      4  C   UNL     1      47.693   6.445  13.068  0.00  0.00    +0.000 A 
ATOM      5  C   UNL     1      47.004   5.393  13.684  0.00  0.00    +0.000 A 
ATOM      6  C   UNL     1      45.789   4.934  13.160  0.00  0.00    +0.000 A 
ENDROOT
BRANCH   1   7
ATOM      7  O   UNL     1      44.045   4.997  11.602  0.00  0.00    +0.000 OA
BRANCH   7   8
ATOM      8  C   UNL     1      44.044   4.418  10.293  0.00  0.00    +0.000 C 
BRANCH   8   9
ATOM      9  C   UNL     1      44.200   2.899  10.402  0.00  0.00    +0.000 C 
BRANCH   9  10
ATOM     10  N   UNL     1      43.333   2.346  11.443  0.00  0.00    +0.000 NA
ATOM     11  H   UNL     1      42.440   2.078  11.031  0.00  0.00    +0.000 HD
ATOM     12  H   UNL     1      43.121   3.067  12.133  0.00  0.00    +0.000 HD
ENDBRANCH   9  10
ENDBRANCH   8   9
ENDBRANCH   7   8
ENDBRANCH   1   7
BRANCH   4  13
ATOM     13  C   UNL     1      49.003   6.946  13.623  0.00  0.00    +0.000 C 
BRANCH  13  14
ATOM     14  N   UNL     1      48.834   7.669  14.879  0.00  0.00    +0.000 N 
ATOM     15  C   UNL     1      48.386   8.969  14.966  0.00  0.00    +0.000 A 
ATOM     16  C   UNL     1      48.235   9.280  16.299  0.00  0.00    +0.000 A 
ATOM     17  C   UNL     1      48.587   8.134  17.044  0.00  0.00    +0.000 A 
ATOM     18  N   UNL     1      48.567   7.963  18.389  0.00  0.00    +0.000 NA
ATOM     19  C   UNL     1      48.951   6.742  18.810  0.00  0.00    +0.000 A 
ATOM     20  C   UNL     1      49.354   5.697  17.993  0.00  0.00    +0.000 A 
ATOM     21  C   UNL     1      49.371   5.879  16.613  0.00  0.00    +0.000 A 
ATOM     22  C   UNL     1      48.969   7.135  16.146  0.00  0.00    +0.000 A 
ENDBRANCH  13  14
ENDBRANCH   4  13
TORSDOF 6
ENDMDL
