MODEL 1
REMARK VINA RESULT:    -8.679      0.000      0.000
REMARK INTER + INTRA:         -11.879
REMARK INTER:                 -11.216
REMARK INTRA:                  -0.663
REMARK UNBOUND:                -0.663
REMARK  Name = 
REMARK  5 active torsions:
REMARK  status: ('A' for Active; 'I' for Inactive)
REMARK    1  A    between atoms: C_2  and  C_4
REMARK    2  A    between atoms: C_7  and  C_8
REMARK    3  A    between atoms: C_8  and  O_9
REMARK    4  A    between atoms: O_9  and  C_10
REMARK    5  A    between atoms: C_14  and  C_15
REMARK                            x       y       z     vdW  Elec       q    Type
REMARK                         _______ _______ _______ _____ _____    ______ ____
ROOT
ATOM      1  O   UNL     1      44.259   4.463  11.622  0.00  0.00    +0.000 OA
ENDROOT
BRANCH   1   2
ATOM      2  C   UNL     1      45.334   5.211  12.012  0.00  0.00    +0.000 A 
ATOM      3  C   UNL     1      45.905   6.264  11.304  0.00  0.00    +0.000 A 
ATOM      4  C   UNL     1      47.015   6.925  11.828  0.00  0.00    +0.000 A 
ATOM      5  C   UNL     1      47.547   6.545  13.064  0.00  0.00    +0.000 A 
ATOM      6  C   UNL     1      46.978   5.501  13.814  0.00  0.00    +0.000 A 
ATOM      7  C   UNL     1      45.875   4.838  13.248  0.00  0.00    +0.000 A 
BRANCH   6   8
ATOM      8  C   UNL     1      47.490   5.136  15.156  0.00  0.00    +0.000 A 
ATOM      9  C   UNL     1      48.472   5.908  15.810  0.00  0.00    +0.000 A 
ATOM     10  C   UNL     1      48.987   5.536  17.059  0.00  0.00    +0.000 A 
ATOM     11  C   UNL     1      48.518   4.390  17.690  0.00  0.00    +0.000 A 
ATOM     12  C   UNL     1      47.545   3.624  17.065  0.00  0.00    +0.000 A 
ATOM     13  F   UNL     1      47.090   2.517  17.665  0.00  0.00    +0.000 F 
ATOM     14  C   UNL     1      47.037   3.981  15.818  0.00  0.00    +0.000 A 
ENDBRANCH   6   8
ENDBRANCH   1   2
BRANCH   1  15
ATOM     15  C   UNL     1      43.827   4.587  10.269  0.00  0.00    +0.000 C 
BRANCH  15  19
ATOM     16  C   UNL     1      46.405   2.246   7.827  0.00  0.00    +0.000 A 
ATOM     17  C   UNL     1      46.390   3.617   7.609  0.00  0.00    +0.000 A 
ATOM     18  C   UNL     1      45.550   4.398   8.399  0.00  0.00    +0.000 A 
ATOM     19  C   UNL     1      44.744   3.794   9.372  0.00  0.00    +0.000 A 
ATOM     20  C   UNL     1      44.857   2.414   9.528  0.00  0.00    +0.000 A 
ATOM     21  N   UNL     1      45.658   1.621   8.781  0.00  0.00    +0.000 NA
BRANCH  16  23
ATOM     22  N   UNL     1      48.370   1.980   6.436  0.00  0.00    +0.000 N 
ATOM     23  C   UNL     1      47.272   1.370   6.976  0.00  0.00    +0.000 C 
ATOM     24  O   UNL     1      47.029   0.185   6.780  0.00  0.00    +0.000 OA
ATOM     25  H   UNL     1      49.016   1.441   5.877  0.00  0.00    +0.000 HD
ATOM     26  H   UNL     1      48.553   2.956   6.644  0.00  0.00    +0.000 HD
ENDBRANCH  16  23
ENDBRANCH  15  19
ENDBRANCH   1  15
TORSDOF 5
ENDMDL
MODEL 2
REMARK VINA RESULT:    -8.602      2.611      3.976
REMARK INTER + INTRA:         -11.779
REMARK INTER:                 -10.878
REMARK INTRA:                  -0.901
REMARK UNBOUND:                -0.663
REMARK  Name = 
REMARK  5 active torsions:
REMARK  status: ('A' for Active; 'I' for Inactive)
REMARK    1  A    between atoms: C_2  and  C_4
REMARK    2  A    between atoms: C_7  and  C_8
REMARK    3  A    between atoms: C_8  and  O_9
REMARK    4  A    between atoms: O_9  and  C_10
REMARK    5  A    between atoms: C_14  and  C_15
REMARK                            x       y       z     vdW  Elec       q    Type
REMARK                         _______ _______ _______ _____ _____    ______ ____
ROOT
ATOM      1  O   UNL     1      44.067   5.452  10.958  0.00  0.00    +0.000 OA
ENDROOT
BRANCH   1   2
ATOM      2  C   UNL     1      45.103   5.493  11.848  0.00  0.00    +0.000 A 
ATOM      3  C   UNL     1      45.288   4.646  12.936  0.00  0.00    +0.000 A 
ATOM      4  C   UNL     1      46.393   4.824  13.768  0.00  0.00    +0.000 A 
ATOM      5  C   UNL     1      47.319   5.838  13.507  0.00  0.00    +0.000 A 
ATOM      6  C   UNL     1      47.172   6.695  12.402  0.00  0.00    +0.000 A 
ATOM      7  C   UNL     1      46.036   6.506  11.596  0.00  0.00    +0.000 A 
BRANCH   6   8
ATOM      8  C   UNL     1      48.185   7.727  12.075  0.00  0.00    +0.000 A 
ATOM      9  C   UNL     1      47.865   9.100  12.058  0.00  0.00    +0.000 A 
ATOM     10  C   UNL     1      48.812  10.070  11.703  0.00  0.00    +0.000 A 
ATOM     11  C   UNL     1      50.107   9.688  11.372  0.00  0.00    +0.000 A 
ATOM     12  C   UNL     1      50.441   8.342  11.393  0.00  0.00    +0.000 A 
ATOM     13  F   UNL     1      51.685   7.966  11.074  0.00  0.00    +0.000 F 
ATOM     14  C   UNL     1      49.501   7.371  11.733  0.00  0.00    +0.000 A 
ENDBRANCH   6   8
ENDBRANCH   1   2
BRANCH   1  15
ATOM     15  C   UNL     1      43.618   4.168  10.531  0.00  0.00    +0.000 C 
BRANCH  15  19
ATOM     16  C   UNL     1      46.406   2.432   7.829  0.00  0.00    +0.000 A 
ATOM     17  C   UNL     1      46.199   3.801   7.741  0.00  0.00    +0.000 A 
ATOM     18  C   UNL     1      45.288   4.385   8.617  0.00  0.00    +0.000 A 
ATOM     19  C   UNL     1      44.603   3.592   9.545  0.00  0.00    +0.000 A 
ATOM     20  C   UNL     1      44.905   2.232   9.568  0.00  0.00    +0.000 A 
ATOM     21  N   UNL     1      45.781   1.626   8.734  0.00  0.00    +0.000 NA
BRANCH  16  23
ATOM     22  N   UNL     1      48.398   2.535   6.455  0.00  0.00    +0.000 N 
ATOM     23  C   UNL     1      47.354   1.763   6.882  0.00  0.00    +0.000 C 
ATOM     24  O   UNL     1      47.220   0.600   6.518  0.00  0.00    +0.000 OA
ATOM     25  H   UNL     1      49.094   2.139   5.840  0.00  0.00    +0.000 HD
ATOM     26  H   UNL     1      48.491   3.485   6.801  0.00  0.00    +0.000 HD
ENDBRANCH  16  23
ENDBRANCH  15  19
ENDBRANCH   1  15
TORSDOF 5
ENDMDL
MODEL 3
REMARK VINA RESULT:    -8.486      2.851      4.338
REMARK INTER + INTRA:         -11.629
REMARK INTER:                 -10.716
REMARK INTRA:                  -0.913
REMARK UNBOUND:                -0.663
REMARK  Name = 
REMARK  5 active torsions:
REMARK  status: ('A' for Active; 'I' for Inactive)
REMARK    1  A    between atoms: C_2  and  C_4
REMARK    2  A    between atoms: C_7  and  C_8
REMARK    3  A    between atoms: C_8  and  O_9
REMARK    4  A    between atoms: O_9  and  C_10
REMARK    5  A    between atoms: C_14  and  C_15
REMARK                            x       y       z     vdW  Elec       q    Type
REMARK                         _______ _______ _______ _____ _____    ______ ____
ROOT
ATOM      1  O   UNL     1      44.069   3.818  11.788  0.00  0.00    +0.000 OA
ENDROOT
BRANCH   1   2
ATOM      2  C   UNL     1      45.140   4.423  12.384  0.00  0.00    +0.000 A 
ATOM      3  C   UNL     1      46.098   3.803  13.180  0.00  0.00    +0.000 A 
ATOM      4  C   UNL     1      47.129   4.562  13.734  0.00  0.00    +0.000 A 
ATOM      5  C   UNL     1      47.210   5.935  13.485  0.00  0.00    +0.000 A 
ATOM      6  C   UNL     1      46.270   6.586  12.666  0.00  0.00    +0.000 A 
ATOM      7  C   UNL     1      45.231   5.799  12.141  0.00  0.00    +0.000 A 
BRANCH   6   8
ATOM      8  C   UNL     1      46.387   8.026  12.337  0.00  0.00    +0.000 A 
ATOM      9  C   UNL     1      47.641   8.651  12.176  0.00  0.00    +0.000 A 
ATOM     10  C   UNL     1      47.750  10.022  11.910  0.00  0.00    +0.000 A 
ATOM     11  C   UNL     1      46.603  10.798  11.784  0.00  0.00    +0.000 A 
ATOM     12  C   UNL     1      45.362  10.198  11.931  0.00  0.00    +0.000 A 
ATOM     13  F   UNL     1      44.253  10.939  11.814  0.00  0.00    +0.000 F 
ATOM     14  C   UNL     1      45.246   8.837  12.207  0.00  0.00    +0.000 A 
ENDBRANCH   6   8
ENDBRANCH   1   2
BRANCH   1  15
ATOM     15  C   UNL     1      43.715   4.253  10.477  0.00  0.00    +0.000 C 
BRANCH  15  19
ATOM     16  C   UNL     1      46.478   2.793   7.593  0.00  0.00    +0.000 A 
ATOM     17  C   UNL     1      45.823   1.856   8.381  0.00  0.00    +0.000 A 
ATOM     18  C   UNL     1      44.916   2.318   9.332  0.00  0.00    +0.000 A 
ATOM     19  C   UNL     1      44.696   3.693   9.478  0.00  0.00    +0.000 A 
ATOM     20  C   UNL     1      45.385   4.545   8.617  0.00  0.00    +0.000 A 
ATOM     21  N   UNL     1      46.274   4.137   7.684  0.00  0.00    +0.000 NA
BRANCH  16  23
ATOM     22  N   UNL     1      47.420   2.961   5.368  0.00  0.00    +0.000 N 
ATOM     23  C   UNL     1      47.484   2.336   6.582  0.00  0.00    +0.000 C 
ATOM     24  O   UNL     1      48.320   1.471   6.820  0.00  0.00    +0.000 OA
ATOM     25  H   UNL     1      48.089   2.726   4.648  0.00  0.00    +0.000 HD
ATOM     26  H   UNL     1      46.733   3.692   5.217  0.00  0.00    +0.000 HD
ENDBRANCH  16  23
ENDBRANCH  15  19
ENDBRANCH   1  15
TORSDOF 5
ENDMDL
MODEL 4
REMARK VINA RESULT:    -8.132      3.967      7.820
REMARK INTER + INTRA:         -11.172
REMARK INTER:                 -10.515
REMARK INTRA:                  -0.657
REMARK UNBOUND:                -0.663
REMARK  Name = 
REMARK  5 active torsions:
REMARK  status: ('A' for Active; 'I' for Inactive)
REMARK    1  A    between atoms: C_2  and  C_4
REMARK    2  A    between atoms: C_7  and  C_8
REMARK    3  A    between atoms: C_8  and  O_9
REMARK    4  A    between atoms: O_9  and  C_10
REMARK    5  A    between atoms: C_14  and  C_15
REMARK                            x       y       z     vdW  Elec       q    Type
REMARK                         _______ _______ _______ _____ _____    ______ ____
ROOT
ATOM      1  O   UNL     1      45.957   7.087  11.871  0.00  0.00    +0.000 OA
ENDROOT
BRANCH   1   2
ATOM      2  C   UNL     1      45.131   6.148  11.322  0.00  0.00    +0.000 A 
ATOM      3  C   UNL     1      43.783   5.964  11.614  0.00  0.00    +0.000 A 
ATOM      4  C   UNL     1      43.073   4.945  10.980  0.00  0.00    +0.000 A 
ATOM      5  C   UNL     1      43.704   4.119  10.045  0.00  0.00    +0.000 A 
ATOM      6  C   UNL     1      45.058   4.294   9.711  0.00  0.00    +0.000 A 
ATOM      7  C   UNL     1      45.753   5.314  10.384  0.00  0.00    +0.000 A 
BRANCH   6   8
ATOM      8  C   UNL     1      45.718   3.472   8.669  0.00  0.00    +0.000 A 
ATOM      9  C   UNL     1      46.264   4.048   7.505  0.00  0.00    +0.000 A 
ATOM     10  C   UNL     1      46.846   3.264   6.500  0.00  0.00    +0.000 A 
ATOM     11  C   UNL     1      46.908   1.883   6.646  0.00  0.00    +0.000 A 
ATOM     12  C   UNL     1      46.384   1.300   7.791  0.00  0.00    +0.000 A 
ATOM     13  F   UNL     1      46.437  -0.030   7.937  0.00  0.00    +0.000 F 
ATOM     14  C   UNL     1      45.793   2.073   8.787  0.00  0.00    +0.000 A 
ENDBRANCH   6   8
ENDBRANCH   1   2
BRANCH   1  15
ATOM     15  C   UNL     1      47.325   6.730  12.060  0.00  0.00    +0.000 C 
BRANCH  15  19
ATOM     16  C   UNL     1      47.939   5.064  15.924  0.00  0.00    +0.000 A 
ATOM     17  C   UNL     1      47.035   4.423  15.088  0.00  0.00    +0.000 A 
ATOM     18  C   UNL     1      46.821   4.957  13.820  0.00  0.00    +0.000 A 
ATOM     19  C   UNL     1      47.502   6.115  13.425  0.00  0.00    +0.000 A 
ATOM     20  C   UNL     1      48.407   6.664  14.330  0.00  0.00    +0.000 A 
ATOM     21  N   UNL     1      48.642   6.178  15.570  0.00  0.00    +0.000 NA
BRANCH  16  23
ATOM     22  N   UNL     1      47.082   4.562  18.133  0.00  0.00    +0.000 N 
ATOM     23  C   UNL     1      48.172   4.538  17.307  0.00  0.00    +0.000 C 
ATOM     24  O   UNL     1      49.255   4.103  17.679  0.00  0.00    +0.000 OA
ATOM     25  H   UNL     1      47.158   4.193  19.070  0.00  0.00    +0.000 HD
ATOM     26  H   UNL     1      46.195   4.904  17.781  0.00  0.00    +0.000 HD
ENDBRANCH  16  23
ENDBRANCH  15  19
ENDBRANCH   1  15
TORSDOF 5
ENDMDL
MODEL 5
REMARK VINA RESULT:    -7.839      2.493      3.141
REMARK INTER + INTRA:         -10.793
REMARK INTER:                  -9.901
REMARK INTRA:                  -0.893
REMARK UNBOUND:                -0.663
REMARK  Name = 
REMARK  5 active torsions:
REMARK  status: ('A' for Active; 'I' for Inactive)
REMARK    1  A    between atoms: C_2  and  C_4
REMARK    2  A    between atoms: C_7  and  C_8
REMARK    3  A    between atoms: C_8  and  O_9
REMARK    4  A    between atoms: O_9  and  C_10
REMARK    5  A    between atoms: C_14  and  C_15
REMARK                            x       y       z     vdW  Elec       q    Type
REMARK                         _______ _______ _______ _____ _____    ______ ____
ROOT
ATOM      1  O   UNL     1      44.491   4.687  11.651  0.00  0.00    +0.000 OA
ENDROOT
BRANCH   1   2
ATOM      2  C   UNL     1      44.843   6.006  11.687  0.00  0.00    +0.000 A 
ATOM      3  C   UNL     1      44.001   7.091  11.461  0.00  0.00    +0.000 A 
ATOM      4  C   UNL     1      44.514   8.386  11.517  0.00  0.00    +0.000 A 
ATOM      5  C   UNL     1      45.864   8.600  11.810  0.00  0.00    +0.000 A 
ATOM      6  C   UNL     1      46.736   7.527  12.066  0.00  0.00    +0.000 A 
ATOM      7  C   UNL     1      46.194   6.233  11.979  0.00  0.00    +0.000 A 
BRANCH   6   8
ATOM      8  C   UNL     1      48.151   7.745  12.448  0.00  0.00    +0.000 A 
ATOM      9  C   UNL     1      49.070   8.356  11.571  0.00  0.00    +0.000 A 
ATOM     10  C   UNL     1      50.418   8.519  11.916  0.00  0.00    +0.000 A 
ATOM     11  C   UNL     1      50.874   8.087  13.156  0.00  0.00    +0.000 A 
ATOM     12  C   UNL     1      49.981   7.492  14.035  0.00  0.00    +0.000 A 
ATOM     13  F   UNL     1      50.413   7.072  15.230  0.00  0.00    +0.000 F 
ATOM     14  C   UNL     1      48.642   7.316  13.693  0.00  0.00    +0.000 A 
ENDBRANCH   6   8
ENDBRANCH   1   2
BRANCH   1  15
ATOM     15  C   UNL     1      43.770   4.229  10.509  0.00  0.00    +0.000 C 
BRANCH  15  19
ATOM     16  C   UNL     1      46.489   2.446   7.768  0.00  0.00    +0.000 A 
ATOM     17  C   UNL     1      46.329   3.824   7.703  0.00  0.00    +0.000 A 
ATOM     18  C   UNL     1      45.440   4.423   8.592  0.00  0.00    +0.000 A 
ATOM     19  C   UNL     1      44.732   3.637   9.510  0.00  0.00    +0.000 A 
ATOM     20  C   UNL     1      44.989   2.268   9.509  0.00  0.00    +0.000 A 
ATOM     21  N   UNL     1      45.841   1.648   8.662  0.00  0.00    +0.000 NA
BRANCH  16  23
ATOM     22  N   UNL     1      48.441   2.529   6.335  0.00  0.00    +0.000 N 
ATOM     23  C   UNL     1      47.411   1.762   6.806  0.00  0.00    +0.000 C 
ATOM     24  O   UNL     1      47.269   0.593   6.467  0.00  0.00    +0.000 OA
ATOM     25  H   UNL     1      49.120   2.123   5.707  0.00  0.00    +0.000 HD
ATOM     26  H   UNL     1      48.542   3.485   6.660  0.00  0.00    +0.000 HD
ENDBRANCH  16  23
ENDBRANCH  15  19
ENDBRANCH   1  15
TORSDOF 5
ENDMDL
MODEL 6
REMARK VINA RESULT:    -7.805      4.315      7.418
REMARK INTER + INTRA:         -10.749
REMARK INTER:                  -9.818
REMARK INTRA:                  -0.931
REMARK UNBOUND:                -0.663
REMARK  Name = 
REMARK  5 active torsions:
REMARK  status: ('A' for Active; 'I' for Inactive)
REMARK    1  A    between atoms: C_2  and  C_4
REMARK    2  A    between atoms: C_7  and  C_8
REMARK    3  A    between atoms: C_8  and  O_9
REMARK    4  A    between atoms: O_9  and  C_10
REMARK    5  A    between atoms: C_14  and  C_15
REMARK                            x       y       z     vdW  Elec       q    Type
REMARK                         _______ _______ _______ _____ _____    ______ ____
ROOT
ATOM      1  O   UNL     1      43.807   6.454  11.189  0.00  0.00    +0.000 OA
ENDROOT
BRANCH   1   2
ATOM      2  C   UNL     1      43.835   5.095  11.044  0.00  0.00    +0.000 A 
ATOM      3  C   UNL     1      43.142   4.169  11.816  0.00  0.00    +0.000 A 
ATOM      4  C   UNL     1      43.287   2.807  11.555  0.00  0.00    +0.000 A 
ATOM      5  C   UNL     1      44.113   2.370  10.515  0.00  0.00    +0.000 A 
ATOM      6  C   UNL     1      44.808   3.282   9.702  0.00  0.00    +0.000 A 
ATOM      7  C   UNL     1      44.661   4.646  10.005  0.00  0.00    +0.000 A 
BRANCH   6   8
ATOM      8  C   UNL     1      45.630   2.833   8.553  0.00  0.00    +0.000 A 
ATOM      9  C   UNL     1      46.041   3.726   7.542  0.00  0.00    +0.000 A 
ATOM     10  C   UNL     1      46.778   3.291   6.433  0.00  0.00    +0.000 A 
ATOM     11  C   UNL     1      47.134   1.952   6.318  0.00  0.00    +0.000 A 
ATOM     12  C   UNL     1      46.746   1.062   7.309  0.00  0.00    +0.000 A 
ATOM     13  F   UNL     1      47.083  -0.229   7.204  0.00  0.00    +0.000 F 
ATOM     14  C   UNL     1      46.002   1.486   8.408  0.00  0.00    +0.000 A 
ENDBRANCH   6   8
ENDBRANCH   1   2
BRANCH   1  15
ATOM     15  C   UNL     1      44.197   6.988  12.453  0.00  0.00    +0.000 C 
BRANCH  15  19
ATOM     16  C   UNL     1      48.407   7.588  12.465  0.00  0.00    +0.000 A 
ATOM     17  C   UNL     1      47.938   6.347  12.874  0.00  0.00    +0.000 A 
ATOM     18  C   UNL     1      46.561   6.135  12.878  0.00  0.00    +0.000 A 
ATOM     19  C   UNL     1      45.694   7.162  12.486  0.00  0.00    +0.000 A 
ATOM     20  C   UNL     1      46.271   8.359  12.067  0.00  0.00    +0.000 A 
ATOM     21  N   UNL     1      47.600   8.605  12.050  0.00  0.00    +0.000 NA
BRANCH  16  23
ATOM     22  N   UNL     1      50.525   7.538  13.638  0.00  0.00    +0.000 N 
ATOM     23  C   UNL     1      49.879   7.864  12.478  0.00  0.00    +0.000 C 
ATOM     24  O   UNL     1      50.475   8.337  11.517  0.00  0.00    +0.000 OA
ATOM     25  H   UNL     1      51.525   7.668  13.706  0.00  0.00    +0.000 HD
ATOM     26  H   UNL     1      50.003   7.123  14.402  0.00  0.00    +0.000 HD
ENDBRANCH  16  23
ENDBRANCH  15  19
ENDBRANCH   1  15
TORSDOF 5
ENDMDL
MODEL 7
REMARK VINA RESULT:    -7.129      4.535      8.569
REMARK INTER + INTRA:          -9.876
REMARK INTER:                  -9.266
REMARK INTRA:                  -0.610
REMARK UNBOUND:                -0.663
REMARK  Name = 
REMARK  5 active torsions:
REMARK  status: ('A' for Active; 'I' for Inactive)
REMARK    1  A    between atoms: C_2  and  C_4
REMARK    2  A    between atoms: C_7  and  C_8
REMARK    3  A    between atoms: C_8  and  O_9
REMARK    4  A    between atoms: O_9  and  C_10
REMARK    5  A    between atoms: C_14  and  C_15
REMARK                            x       y       z     vdW  Elec       q    Type
REMARK                         _______ _______ _______ _____ _____    ______ ____
ROOT
ATOM      1  O   UNL     1      45.926   5.446  13.833  0.00  0.00    +0.000 OA
ENDROOT
BRANCH   1   2
ATOM      2  C   UNL     1      44.997   5.275  12.847  0.00  0.00    +0.000 A 
ATOM      3  C   UNL     1      43.693   5.762  12.849  0.00  0.00    +0.000 A 
ATOM      4  C   UNL     1      42.854   5.489  11.770  0.00  0.00    +0.000 A 
ATOM      5  C   UNL     1      43.318   4.743  10.683  0.00  0.00    +0.000 A 
ATOM      6  C   UNL     1      44.636   4.257  10.640  0.00  0.00    +0.000 A 
ATOM      7  C   UNL     1      45.451   4.528  11.753  0.00  0.00    +0.000 A 
BRANCH   6   8
ATOM      8  C   UNL     1      45.161   3.526   9.462  0.00  0.00    +0.000 A 
ATOM      9  C   UNL     1      45.196   2.117   9.419  0.00  0.00    +0.000 A 
ATOM     10  C   UNL     1      45.734   1.429   8.324  0.00  0.00    +0.000 A 
ATOM     11  C   UNL     1      46.237   2.137   7.238  0.00  0.00    +0.000 A 
ATOM     12  C   UNL     1      46.201   3.523   7.260  0.00  0.00    +0.000 A 
ATOM     13  F   UNL     1      46.686   4.212   6.219  0.00  0.00    +0.000 F 
ATOM     14  C   UNL     1      45.679   4.214   8.351  0.00  0.00    +0.000 A 
ENDBRANCH   6   8
ENDBRANCH   1   2
BRANCH   1  15
ATOM     15  C   UNL     1      46.717   4.316  14.194  0.00  0.00    +0.000 C 
BRANCH  15  19
ATOM     16  C   UNL     1      48.553   4.969  17.974  0.00  0.00    +0.000 A 
ATOM     17  C   UNL     1      48.797   5.902  16.977  0.00  0.00    +0.000 A 
ATOM     18  C   UNL     1      48.204   5.702  15.732  0.00  0.00    +0.000 A 
ATOM     19  C   UNL     1      47.399   4.578  15.513  0.00  0.00    +0.000 A 
ATOM     20  C   UNL     1      47.198   3.718  16.591  0.00  0.00    +0.000 A 
ATOM     21  N   UNL     1      47.755   3.875  17.812  0.00  0.00    +0.000 NA
BRANCH  16  23
ATOM     22  N   UNL     1      50.203   4.248  19.594  0.00  0.00    +0.000 N 
ATOM     23  C   UNL     1      49.199   5.133  19.316  0.00  0.00    +0.000 C 
ATOM     24  O   UNL     1      48.866   6.004  20.111  0.00  0.00    +0.000 OA
ATOM     25  H   UNL     1      50.705   4.320  20.468  0.00  0.00    +0.000 HD
ATOM     26  H   UNL     1      50.469   3.558  18.900  0.00  0.00    +0.000 HD
ENDBRANCH  16  23
ENDBRANCH  15  19
ENDBRANCH   1  15
TORSDOF 5
ENDMDL
MODEL 8
REMARK VINA RESULT:    -7.022      4.455      8.051
REMARK INTER + INTRA:          -9.738
REMARK INTER:                  -9.057
REMARK INTRA:                  -0.681
REMARK UNBOUND:                -0.663
REMARK  Name = 
REMARK  5 active torsions:
REMARK  status: ('A' for Active; 'I' for Inactive)
REMARK    1  A    between atoms: C_2  and  C_4
REMARK    2  A    between atoms: C_7  and  C_8
REMARK    3  A    between atoms: C_8  and  O_9
REMARK    4  A    between atoms: O_9  and  C_10
REMARK    5  A    between atoms: C_14  and  C_15
REMARK                            x       y       z     vdW  Elec       q    Type
REMARK                         _______ _______ _______ _____ _____    ______ ____
ROOT
ATOM      1  O   UNL     1      46.703   3.837  15.017  0.00  0.00    +0.000 OA
ENDROOT
BRANCH   1   2
ATOM      2  C   UNL     1      46.476   4.713  13.994  0.00  0.00    +0.000 A 
ATOM      3  C   UNL     1      46.584   6.099  14.057  0.00  0.00    +0.000 A 
ATOM      4  C   UNL     1      46.303   6.864  12.926  0.00  0.00    +0.000 A 
ATOM      5  C   UNL     1      45.926   6.247  11.729  0.00  0.00    +0.000 A 
ATOM      6  C   UNL     1      45.831   4.848  11.627  0.00  0.00    +0.000 A 
ATOM      7  C   UNL     1      46.098   4.105  12.790  0.00  0.00    +0.000 A 
BRANCH   6   8
ATOM      8  C   UNL     1      45.503   4.179  10.346  0.00  0.00    +0.000 A 
ATOM      9  C   UNL     1      45.680   4.826   9.106  0.00  0.00    +0.000 A 
ATOM     10  C   UNL     1      45.326   4.210   7.899  0.00  0.00    +0.000 A 
ATOM     11  C   UNL     1      44.800   2.923   7.904  0.00  0.00    +0.000 A 
ATOM     12  C   UNL     1      44.628   2.269   9.115  0.00  0.00    +0.000 A 
ATOM     13  F   UNL     1      44.119   1.030   9.129  0.00  0.00    +0.000 F 
ATOM     14  C   UNL     1      44.966   2.881  10.320  0.00  0.00    +0.000 A 
ENDBRANCH   6   8
ENDBRANCH   1   2
BRANCH   1  15
ATOM     15  C   UNL     1      47.162   4.376  16.255  0.00  0.00    +0.000 C 
BRANCH  15  19
ATOM     16  C   UNL     1      50.732   2.342  17.354  0.00  0.00    +0.000 A 
ATOM     17  C   UNL     1      50.585   3.653  17.786  0.00  0.00    +0.000 A 
ATOM     18  C   UNL     1      49.423   4.334  17.433  0.00  0.00    +0.000 A 
ATOM     19  C   UNL     1      48.448   3.697  16.655  0.00  0.00    +0.000 A 
ATOM     20  C   UNL     1      48.683   2.371  16.298  0.00  0.00    +0.000 A 
ATOM     21  N   UNL     1      49.797   1.676  16.618  0.00  0.00    +0.000 NA
BRANCH  16  23
ATOM     22  N   UNL     1      51.803   0.278  18.031  0.00  0.00    +0.000 N 
ATOM     23  C   UNL     1      51.983   1.588  17.686  0.00  0.00    +0.000 C 
ATOM     24  O   UNL     1      53.097   2.098  17.642  0.00  0.00    +0.000 OA
ATOM     25  H   UNL     1      52.606  -0.299  18.237  0.00  0.00    +0.000 HD
ATOM     26  H   UNL     1      50.868  -0.116  18.029  0.00  0.00    +0.000 HD
ENDBRANCH  16  23
ENDBRANCH  15  19
ENDBRANCH   1  15
TORSDOF 5
ENDMDL
MODEL 9
REMARK VINA RESULT:    -6.729      4.878      8.579
REMARK INTER + INTRA:          -9.359
REMARK INTER:                  -8.625
REMARK INTRA:                  -0.734
REMARK UNBOUND:                -0.663
REMARK  Name = 
REMARK  5 active torsions:
REMARK  status: ('A' for Active; 'I' for Inactive)
REMARK    1  A    between atoms: C_2  and  C_4
REMARK    2  A    between atoms: C_7  and  C_8
REMARK    3  A    between atoms: C_8  and  O_9
REMARK    4  A    between atoms: O_9  and  C_10
REMARK    5  A    between atoms: C_14  and  C_15
REMARK                            x       y       z     vdW  Elec       q    Type
REMARK                         _______ _______ _______ _____ _____    ______ ____
ROOT
ATOM      1  O   UNL     1      48.457   6.839  13.828  0.00  0.00    +0.000 OA
ENDROOT
BRANCH   1   2
ATOM      2  C   UNL     1      47.308   7.103  13.138  0.00  0.00    +0.000 A 
ATOM      3  C   UNL     1      46.575   8.285  13.179  0.00  0.00    +0.000 A 
ATOM      4  C   UNL     1      45.407   8.398  12.426  0.00  0.00    +0.000 A 
ATOM      5  C   UNL     1      44.977   7.338  11.623  0.00  0.00    +0.000 A 
ATOM      6  C   UNL     1      45.708   6.140  11.541  0.00  0.00    +0.000 A 
ATOM      7  C   UNL     1      46.868   6.047  12.330  0.00  0.00    +0.000 A 
BRANCH   6   8
ATOM      8  C   UNL     1      45.301   5.038  10.638  0.00  0.00    +0.000 A 
ATOM      9  C   UNL     1      44.535   3.947  11.098  0.00  0.00    +0.000 A 
ATOM     10  C   UNL     1      44.191   2.883  10.254  0.00  0.00    +0.000 A 
ATOM     11  C   UNL     1      44.592   2.894   8.924  0.00  0.00    +0.000 A 
ATOM     12  C   UNL     1      45.338   3.965   8.452  0.00  0.00    +0.000 A 
ATOM     13  F   UNL     1      45.731   3.982   7.172  0.00  0.00    +0.000 F 
ATOM     14  C   UNL     1      45.694   5.020   9.289  0.00  0.00    +0.000 A 
ENDBRANCH   6   8
ENDBRANCH   1   2
BRANCH   1  15
ATOM     15  C   UNL     1      48.705   7.600  15.008  0.00  0.00    +0.000 C 
BRANCH  15  19
ATOM     16  C   UNL     1      48.684   5.122  18.465  0.00  0.00    +0.000 A 
ATOM     17  C   UNL     1      48.279   4.550  17.267  0.00  0.00    +0.000 A 
ATOM     18  C   UNL     1      48.278   5.348  16.126  0.00  0.00    +0.000 A 
ATOM     19  C   UNL     1      48.669   6.691  16.210  0.00  0.00    +0.000 A 
ATOM     20  C   UNL     1      49.083   7.157  17.456  0.00  0.00    +0.000 A 
ATOM     21  N   UNL     1      49.096   6.416  18.587  0.00  0.00    +0.000 NA
BRANCH  16  23
ATOM     22  N   UNL     1      48.331   2.989  19.557  0.00  0.00    +0.000 N 
ATOM     23  C   UNL     1      48.667   4.304  19.719  0.00  0.00    +0.000 C 
ATOM     24  O   UNL     1      48.947   4.768  20.819  0.00  0.00    +0.000 OA
ATOM     25  H   UNL     1      48.330   2.371  20.355  0.00  0.00    +0.000 HD
ATOM     26  H   UNL     1      48.133   2.635  18.627  0.00  0.00    +0.000 HD
ENDBRANCH  16  23
ENDBRANCH  15  19
ENDBRANCH   1  15
TORSDOF 5
ENDMDL
