MODEL 1
REMARK VINA RESULT:    -8.343      0.000      0.000
REMARK INTER + INTRA:         -12.348
REMARK INTER:                 -11.757
REMARK INTRA:                  -0.591
REMARK UNBOUND:                -0.591
REMARK  Name = 
REMARK  8 active torsions:
REMARK  status: ('A' for Active; 'I' for Inactive)
REMARK    1  A    between atoms: C_1  and  O_2
REMARK    2  A    between atoms: O_2  and  C_3
REMARK    3  A    between atoms: C_7  and  C_8
REMARK    4  A    between atoms: N_10  and  C_11
REMARK    5  A    between atoms: C_11  and  C_12
REMARK    6  A    between atoms: C_15  and  C_16
REMARK    7  A    between atoms: C_16  and  N_17
REMARK    8  A    between atoms: C_18  and  C_20
REMARK                            x       y       z     vdW  Elec       q    Type
REMARK                         _______ _______ _______ _____ _____    ______ ____
ROOT
ATOM      1  C   UNL     1      44.318   6.215  11.847  0.00  0.00    +0.000 C 
ATOM      2  C   UNL     1      44.608   7.638  11.337  0.00  0.00    +0.000 C 
ATOM      3  C   UNL     1      45.443   8.460  12.323  0.00  0.00    +0.000 C 
ATOM      4  C   UNL     1      46.760   7.761  12.694  0.00  0.00    +0.000 C 
ATOM      5  C   UNL     1      46.462   6.361  13.243  0.00  0.00    +0.000 C 
ATOM      6  C   UNL     1      45.638   5.529  12.258  0.00  0.00    +0.000 C 
ENDROOT
BRANCH   1   7
ATOM      7  C   UNL     1      43.528   5.399  10.789  0.00  0.00    +0.000 C 
BRANCH   7  10
ATOM      8  C   UNL     1      44.439   3.369   9.595  0.00  0.00    +0.000 C 
ATOM      9  O   UNL     1      43.783   2.555  10.241  0.00  0.00    +0.000 OA
ATOM     10  N   UNL     1      44.381   4.737   9.806  0.00  0.00    +0.000 N 
ATOM     11  H   UNL     1      45.023   5.303   9.251  0.00  0.00    +0.000 HD
BRANCH   8  16
ATOM     12  C   UNL     1      46.677   1.166   7.705  0.00  0.00    +0.000 A 
ATOM     13  C   UNL     1      47.052   1.876   6.575  0.00  0.00    +0.000 A 
ATOM     14  C   UNL     1      46.577   3.177   6.443  0.00  0.00    +0.000 A 
ATOM     15  C   UNL     1      45.728   3.706   7.425  0.00  0.00    +0.000 A 
ATOM     16  C   UNL     1      45.387   2.906   8.511  0.00  0.00    +0.000 A 
ATOM     17  N   UNL     1      45.859   1.653   8.675  0.00  0.00    +0.000 NA
BRANCH  12  19
ATOM     18  C   UNL     1      46.388  -1.050   7.063  0.00  0.00    +0.000 C 
ATOM     19  O   UNL     1      47.139  -0.124   7.854  0.00  0.00    +0.000 OA
ENDBRANCH  12  19
ENDBRANCH   8  16
ENDBRANCH   7  10
ENDBRANCH   1   7
BRANCH   4  20
ATOM     20  C   UNL     1      47.584   8.549  13.729  0.00  0.00    +0.000 C 
BRANCH  20  21
ATOM     21  N   UNL     1      47.776   7.829  14.964  0.00  0.00    +0.000 N 
ATOM     22  C   UNL     1      48.901   7.080  15.194  0.00  0.00    +0.000 C 
ATOM     23  O   UNL     1      49.812   6.982  14.373  0.00  0.00    +0.000 OA
ATOM     24  H   UNL     1      46.950   7.652  15.528  0.00  0.00    +0.000 HD
BRANCH  22  25
ATOM     25  C   UNL     1      48.993   6.442  16.505  0.00  0.00    +0.000 A 
ATOM     26  C   UNL     1      49.620   7.098  17.554  0.00  0.00    +0.000 A 
ATOM     27  S   UNL     1      49.608   6.208  19.009  0.00  0.00    +0.000 S 
ATOM     28  C   UNL     1      48.799   4.904  18.271  0.00  0.00    +0.000 A 
ATOM     29  N   UNL     1      48.498   3.777  18.969  0.00  0.00    +0.000 NA
ATOM     30  C   UNL     1      47.909   2.861  18.273  0.00  0.00    +0.000 A 
ATOM     31  N   UNL     1      47.588   2.969  16.945  0.00  0.00    +0.000 N 
ATOM     32  C   UNL     1      47.853   4.098  16.204  0.00  0.00    +0.000 A 
ATOM     33  O   UNL     1      47.514   4.181  15.028  0.00  0.00    +0.000 OA
ATOM     34  C   UNL     1      48.525   5.152  16.939  0.00  0.00    +0.000 A 
ATOM     35  H   UNL     1      47.115   2.223  16.461  0.00  0.00    +0.000 HD
ENDBRANCH  22  25
ENDBRANCH  20  21
ENDBRANCH   4  20
TORSDOF 7
ENDMDL
MODEL 2
REMARK VINA RESULT:    -8.192      1.531      2.031
REMARK INTER + INTRA:         -12.135
REMARK INTER:                 -11.154
REMARK INTRA:                  -0.981
REMARK UNBOUND:                -0.591
REMARK  Name = 
REMARK  8 active torsions:
REMARK  status: ('A' for Active; 'I' for Inactive)
REMARK    1  A    between atoms: C_1  and  O_2
REMARK    2  A    between atoms: O_2  and  C_3
REMARK    3  A    between atoms: C_7  and  C_8
REMARK    4  A    between atoms: N_10  and  C_11
REMARK    5  A    between atoms: C_11  and  C_12
REMARK    6  A    between atoms: C_15  and  C_16
REMARK    7  A    between atoms: C_16  and  N_17
REMARK    8  A    between atoms: C_18  and  C_20
REMARK                            x       y       z     vdW  Elec       q    Type
REMARK                         _______ _______ _______ _____ _____    ______ ____
ROOT
ATOM      1  C   UNL     1      44.490   6.053  11.854  0.00  0.00    +0.000 C 
ATOM      2  C   UNL     1      44.913   7.483  11.477  0.00  0.00    +0.000 C 
ATOM      3  C   UNL     1      45.797   8.139  12.542  0.00  0.00    +0.000 C 
ATOM      4  C   UNL     1      47.040   7.295  12.865  0.00  0.00    +0.000 C 
ATOM      5  C   UNL     1      46.610   5.885  13.284  0.00  0.00    +0.000 C 
ATOM      6  C   UNL     1      45.736   5.219  12.219  0.00  0.00    +0.000 C 
ENDROOT
BRANCH   1   7
ATOM      7  C   UNL     1      43.653   5.406  10.718  0.00  0.00    +0.000 C 
BRANCH   7  10
ATOM      8  C   UNL     1      44.513   3.331   9.564  0.00  0.00    +0.000 C 
ATOM      9  O   UNL     1      43.889   2.542  10.271  0.00  0.00    +0.000 OA
ATOM     10  N   UNL     1      44.461   4.706   9.723  0.00  0.00    +0.000 N 
ATOM     11  H   UNL     1      45.075   5.251   9.118  0.00  0.00    +0.000 HD
BRANCH   8  16
ATOM     12  C   UNL     1      46.658   1.055   7.654  0.00  0.00    +0.000 A 
ATOM     13  C   UNL     1      46.986   1.723   6.484  0.00  0.00    +0.000 A 
ATOM     14  C   UNL     1      46.509   3.021   6.328  0.00  0.00    +0.000 A 
ATOM     15  C   UNL     1      45.705   3.587   7.328  0.00  0.00    +0.000 A 
ATOM     16  C   UNL     1      45.411   2.827   8.456  0.00  0.00    +0.000 A 
ATOM     17  N   UNL     1      45.885   1.579   8.642  0.00  0.00    +0.000 NA
BRANCH  12  19
ATOM     18  C   UNL     1      46.385  -1.172   7.042  0.00  0.00    +0.000 C 
ATOM     19  O   UNL     1      47.123  -0.232   7.827  0.00  0.00    +0.000 OA
ENDBRANCH  12  19
ENDBRANCH   8  16
ENDBRANCH   7  10
ENDBRANCH   1   7
BRANCH   4  20
ATOM     20  C   UNL     1      47.909   7.914  13.976  0.00  0.00    +0.000 C 
BRANCH  20  21
ATOM     21  N   UNL     1      47.876   7.158  15.204  0.00  0.00    +0.000 N 
ATOM     22  C   UNL     1      49.014   6.624  15.751  0.00  0.00    +0.000 C 
ATOM     23  O   UNL     1      50.124   6.760  15.239  0.00  0.00    +0.000 OA
ATOM     24  H   UNL     1      46.977   6.788  15.494  0.00  0.00    +0.000 HD
BRANCH  22  25
ATOM     25  C   UNL     1      48.849   5.924  17.023  0.00  0.00    +0.000 A 
ATOM     26  C   UNL     1      49.135   4.570  17.113  0.00  0.00    +0.000 A 
ATOM     27  S   UNL     1      48.905   3.935  18.680  0.00  0.00    +0.000 S 
ATOM     28  C   UNL     1      48.379   5.441  19.274  0.00  0.00    +0.000 A 
ATOM     29  N   UNL     1      47.992   5.590  20.569  0.00  0.00    +0.000 NA
ATOM     30  C   UNL     1      47.592   6.781  20.872  0.00  0.00    +0.000 A 
ATOM     31  N   UNL     1      47.547   7.839  20.001  0.00  0.00    +0.000 N 
ATOM     32  C   UNL     1      47.948   7.741  18.688  0.00  0.00    +0.000 A 
ATOM     33  O   UNL     1      47.937   8.717  17.946  0.00  0.00    +0.000 OA
ATOM     34  C   UNL     1      48.397   6.418  18.297  0.00  0.00    +0.000 A 
ATOM     35  H   UNL     1      47.237   8.748  20.303  0.00  0.00    +0.000 HD
ENDBRANCH  22  25
ENDBRANCH  20  21
ENDBRANCH   4  20
TORSDOF 7
ENDMDL
MODEL 3
REMARK VINA RESULT:    -7.968      1.652      2.192
REMARK INTER + INTRA:         -11.819
REMARK INTER:                 -10.728
REMARK INTRA:                  -1.091
REMARK UNBOUND:                -0.591
REMARK  Name = 
REMARK  8 active torsions:
REMARK  status: ('A' for Active; 'I' for Inactive)
REMARK    1  A    between atoms: C_1  and  O_2
REMARK    2  A    between atoms: O_2  and  C_3
REMARK    3  A    between atoms: C_7  and  C_8
REMARK    4  A    between atoms: N_10  and  C_11
REMARK    5  A    between atoms: C_11  and  C_12
REMARK    6  A    between atoms: C_15  and  C_16
REMARK    7  A    between atoms: C_16  and  N_17
REMARK    8  A    between atoms: C_18  and  C_20
REMARK                            x       y       z     vdW  Elec       q    Type
REMARK                         _______ _______ _______ _____ _____    ______ ____
ROOT
ATOM      1  C   UNL     1      46.043   7.337  12.499  0.00  0.00    +0.000 C 
ATOM      2  C   UNL     1      46.170   8.821  12.885  0.00  0.00    +0.000 C 
ATOM      3  C   UNL     1      47.234   9.063  13.960  0.00  0.00    +0.000 C 
ATOM      4  C   UNL     1      48.609   8.509  13.553  0.00  0.00    +0.000 C 
ATOM      5  C   UNL     1      48.483   7.020  13.213  0.00  0.00    +0.000 C 
ATOM      6  C   UNL     1      47.431   6.771  12.130  0.00  0.00    +0.000 C 
ENDROOT
BRANCH   1   7
ATOM      7  C   UNL     1      45.003   7.149  11.362  0.00  0.00    +0.000 C 
BRANCH   7  10
ATOM      8  C   UNL     1      44.432   4.928  10.304  0.00  0.00    +0.000 C 
ATOM      9  O   UNL     1      43.345   4.812  10.865  0.00  0.00    +0.000 OA
ATOM     10  N   UNL     1      45.282   6.004  10.499  0.00  0.00    +0.000 N 
ATOM     11  H   UNL     1      46.185   5.953  10.027  0.00  0.00    +0.000 HD
BRANCH   8  16
ATOM     12  C   UNL     1      46.029   3.420   7.371  0.00  0.00    +0.000 A 
ATOM     13  C   UNL     1      45.962   2.047   7.558  0.00  0.00    +0.000 A 
ATOM     14  C   UNL     1      45.313   1.583   8.698  0.00  0.00    +0.000 A 
ATOM     15  C   UNL     1      44.784   2.501   9.615  0.00  0.00    +0.000 A 
ATOM     16  C   UNL     1      44.924   3.861   9.352  0.00  0.00    +0.000 A 
ATOM     17  N   UNL     1      45.522   4.334   8.240  0.00  0.00    +0.000 NA
BRANCH  12  19
ATOM     18  C   UNL     1      47.067   2.839   5.373  0.00  0.00    +0.000 C 
ATOM     19  O   UNL     1      46.667   3.899   6.246  0.00  0.00    +0.000 OA
ENDBRANCH  12  19
ENDBRANCH   8  16
ENDBRANCH   7  10
ENDBRANCH   1   7
BRANCH   4  20
ATOM     20  C   UNL     1      49.675   8.694  14.648  0.00  0.00    +0.000 C 
BRANCH  20  21
ATOM     21  N   UNL     1      49.698   7.612  15.601  0.00  0.00    +0.000 N 
ATOM     22  C   UNL     1      49.097   7.719  16.829  0.00  0.00    +0.000 C 
ATOM     23  O   UNL     1      48.500   8.733  17.187  0.00  0.00    +0.000 OA
ATOM     24  H   UNL     1      50.403   6.893  15.466  0.00  0.00    +0.000 HD
BRANCH  22  25
ATOM     25  C   UNL     1      49.152   6.532  17.679  0.00  0.00    +0.000 A 
ATOM     26  C   UNL     1      49.864   6.563  18.868  0.00  0.00    +0.000 A 
ATOM     27  S   UNL     1      49.793   5.094  19.734  0.00  0.00    +0.000 S 
ATOM     28  C   UNL     1      48.841   4.363  18.525  0.00  0.00    +0.000 A 
ATOM     29  N   UNL     1      48.442   3.067  18.632  0.00  0.00    +0.000 NA
ATOM     30  C   UNL     1      47.750   2.639  17.629  0.00  0.00    +0.000 A 
ATOM     31  N   UNL     1      47.414   3.388  16.530  0.00  0.00    +0.000 N 
ATOM     32  C   UNL     1      47.776   4.708  16.389  0.00  0.00    +0.000 A 
ATOM     33  O   UNL     1      47.423   5.363  15.414  0.00  0.00    +0.000 OA
ATOM     34  C   UNL     1      48.565   5.232  17.487  0.00  0.00    +0.000 A 
ATOM     35  H   UNL     1      46.858   2.999  15.786  0.00  0.00    +0.000 HD
ENDBRANCH  22  25
ENDBRANCH  20  21
ENDBRANCH   4  20
TORSDOF 7
ENDMDL
MODEL 4
REMARK VINA RESULT:    -7.717      2.443      3.204
REMARK INTER + INTRA:         -11.466
REMARK INTER:                 -10.464
REMARK INTRA:                  -1.002
REMARK UNBOUND:                -0.591
REMARK  Name = 
REMARK  8 active torsions:
REMARK  status: ('A' for Active; 'I' for Inactive)
REMARK    1  A    between atoms: C_1  and  O_2
REMARK    2  A    between atoms: O_2  and  C_3
REMARK    3  A    between atoms: C_7  and  C_8
REMARK    4  A    between atoms: N_10  and  C_11
REMARK    5  A    between atoms: C_11  and  C_12
REMARK    6  A    between atoms: C_15  and  C_16
REMARK    7  A    between atoms: C_16  and  N_17
REMARK    8  A    between atoms: C_18  and  C_20
REMARK                            x       y       z     vdW  Elec       q    Type
REMARK                         _______ _______ _______ _____ _____    ______ ____
ROOT
ATOM      1  C   UNL     1      45.847   7.281  12.609  0.00  0.00    +0.000 C 
ATOM      2  C   UNL     1      46.162   8.769  12.842  0.00  0.00    +0.000 C 
ATOM      3  C   UNL     1      47.189   8.988  13.958  0.00  0.00    +0.000 C 
ATOM      4  C   UNL     1      48.491   8.211  13.709  0.00  0.00    +0.000 C 
ATOM      5  C   UNL     1      48.174   6.722  13.524  0.00  0.00    +0.000 C 
ATOM      6  C   UNL     1      47.159   6.495  12.402  0.00  0.00    +0.000 C 
ENDROOT
BRANCH   1   7
ATOM      7  C   UNL     1      44.855   7.104  11.428  0.00  0.00    +0.000 C 
BRANCH   7  10
ATOM      8  C   UNL     1      44.333   4.904  10.302  0.00  0.00    +0.000 C 
ATOM      9  O   UNL     1      43.218   4.783  10.804  0.00  0.00    +0.000 OA
ATOM     10  N   UNL     1      45.175   5.974  10.561  0.00  0.00    +0.000 N 
ATOM     11  H   UNL     1      46.101   5.928  10.136  0.00  0.00    +0.000 HD
BRANCH   8  16
ATOM     12  C   UNL     1      46.001   3.444   7.385  0.00  0.00    +0.000 A 
ATOM     13  C   UNL     1      45.988   2.071   7.579  0.00  0.00    +0.000 A 
ATOM     14  C   UNL     1      45.353   1.588   8.719  0.00  0.00    +0.000 A 
ATOM     15  C   UNL     1      44.784   2.490   9.629  0.00  0.00    +0.000 A 
ATOM     16  C   UNL     1      44.871   3.853   9.358  0.00  0.00    +0.000 A 
ATOM     17  N   UNL     1      45.455   4.343   8.246  0.00  0.00    +0.000 NA
BRANCH  12  19
ATOM     18  C   UNL     1      47.017   2.897   5.366  0.00  0.00    +0.000 C 
ATOM     19  O   UNL     1      46.624   3.942   6.260  0.00  0.00    +0.000 OA
ENDBRANCH  12  19
ENDBRANCH   8  16
ENDBRANCH   7  10
ENDBRANCH   1   7
BRANCH   4  20
ATOM     20  C   UNL     1      49.511   8.376  14.851  0.00  0.00    +0.000 C 
BRANCH  20  21
ATOM     21  N   UNL     1      49.933   7.118  15.417  0.00  0.00    +0.000 N 
ATOM     22  C   UNL     1      49.457   6.675  16.624  0.00  0.00    +0.000 C 
ATOM     23  O   UNL     1      48.642   7.312  17.289  0.00  0.00    +0.000 OA
ATOM     24  H   UNL     1      50.791   6.714  15.055  0.00  0.00    +0.000 HD
BRANCH  22  25
ATOM     25  C   UNL     1      49.927   5.361  17.058  0.00  0.00    +0.000 A 
ATOM     26  C   UNL     1      49.018   4.336  17.277  0.00  0.00    +0.000 A 
ATOM     27  S   UNL     1      49.754   2.874  17.756  0.00  0.00    +0.000 S 
ATOM     28  C   UNL     1      51.305   3.578  17.723  0.00  0.00    +0.000 A 
ATOM     29  N   UNL     1      52.410   2.862  18.062  0.00  0.00    +0.000 NA
ATOM     30  C   UNL     1      53.513   3.533  18.018  0.00  0.00    +0.000 A 
ATOM     31  N   UNL     1      53.615   4.853  17.660  0.00  0.00    +0.000 N 
ATOM     32  C   UNL     1      52.528   5.611  17.289  0.00  0.00    +0.000 A 
ATOM     33  O   UNL     1      52.658   6.777  16.933  0.00  0.00    +0.000 OA
ATOM     34  C   UNL     1      51.263   4.904  17.334  0.00  0.00    +0.000 A 
ATOM     35  H   UNL     1      54.509   5.316  17.632  0.00  0.00    +0.000 HD
ENDBRANCH  22  25
ENDBRANCH  20  21
ENDBRANCH   4  20
TORSDOF 7
ENDMDL
MODEL 5
REMARK VINA RESULT:    -7.604      2.325      3.017
REMARK INTER + INTRA:         -11.306
REMARK INTER:                 -10.414
REMARK INTRA:                  -0.892
REMARK UNBOUND:                -0.591
REMARK  Name = 
REMARK  8 active torsions:
REMARK  status: ('A' for Active; 'I' for Inactive)
REMARK    1  A    between atoms: C_1  and  O_2
REMARK    2  A    between atoms: O_2  and  C_3
REMARK    3  A    between atoms: C_7  and  C_8
REMARK    4  A    between atoms: N_10  and  C_11
REMARK    5  A    between atoms: C_11  and  C_12
REMARK    6  A    between atoms: C_15  and  C_16
REMARK    7  A    between atoms: C_16  and  N_17
REMARK    8  A    between atoms: C_18  and  C_20
REMARK                            x       y       z     vdW  Elec       q    Type
REMARK                         _______ _______ _______ _____ _____    ______ ____
ROOT
ATOM      1  C   UNL     1      46.691   7.363  12.396  0.00  0.00    +0.000 C 
ATOM      2  C   UNL     1      47.344   6.216  13.187  0.00  0.00    +0.000 C 
ATOM      3  C   UNL     1      48.595   6.662  13.951  0.00  0.00    +0.000 C 
ATOM      4  C   UNL     1      48.313   7.847  14.887  0.00  0.00    +0.000 C 
ATOM      5  C   UNL     1      47.705   9.003  14.083  0.00  0.00    +0.000 C 
ATOM      6  C   UNL     1      46.447   8.568  13.327  0.00  0.00    +0.000 C 
ENDROOT
BRANCH   1   7
ATOM      7  C   UNL     1      45.394   6.881  11.694  0.00  0.00    +0.000 C 
BRANCH   7  10
ATOM      8  C   UNL     1      44.622   4.918  10.305  0.00  0.00    +0.000 C 
ATOM      9  O   UNL     1      43.448   4.983  10.661  0.00  0.00    +0.000 OA
ATOM     10  N   UNL     1      45.608   5.777  10.763  0.00  0.00    +0.000 N 
ATOM     11  H   UNL     1      46.557   5.580  10.445  0.00  0.00    +0.000 HD
BRANCH   8  16
ATOM     12  C   UNL     1      46.053   3.416   7.285  0.00  0.00    +0.000 A 
ATOM     13  C   UNL     1      46.030   2.045   7.487  0.00  0.00    +0.000 A 
ATOM     14  C   UNL     1      45.470   1.577   8.672  0.00  0.00    +0.000 A 
ATOM     15  C   UNL     1      44.983   2.493   9.614  0.00  0.00    +0.000 A 
ATOM     16  C   UNL     1      45.073   3.853   9.331  0.00  0.00    +0.000 A 
ATOM     17  N   UNL     1      45.586   4.328   8.178  0.00  0.00    +0.000 NA
BRANCH  12  19
ATOM     18  C   UNL     1      47.221   2.858   5.352  0.00  0.00    +0.000 C 
ATOM     19  O   UNL     1      46.604   3.898   6.116  0.00  0.00    +0.000 OA
ENDBRANCH  12  19
ENDBRANCH   8  16
ENDBRANCH   7  10
ENDBRANCH   1   7
BRANCH   4  20
ATOM     20  C   UNL     1      49.574   8.343  15.618  0.00  0.00    +0.000 C 
BRANCH  20  21
ATOM     21  N   UNL     1      50.438   7.269  16.044  0.00  0.00    +0.000 N 
ATOM     22  C   UNL     1      50.232   6.603  17.224  0.00  0.00    +0.000 C 
ATOM     23  O   UNL     1      49.302   6.872  17.983  0.00  0.00    +0.000 OA
ATOM     24  H   UNL     1      51.353   7.212  15.607  0.00  0.00    +0.000 HD
BRANCH  22  25
ATOM     25  C   UNL     1      51.150   5.504  17.512  0.00  0.00    +0.000 A 
ATOM     26  C   UNL     1      52.445   5.772  17.929  0.00  0.00    +0.000 A 
ATOM     27  S   UNL     1      53.359   4.365  18.238  0.00  0.00    +0.000 S 
ATOM     28  C   UNL     1      52.063   3.357  17.786  0.00  0.00    +0.000 A 
ATOM     29  N   UNL     1      52.190   2.003  17.795  0.00  0.00    +0.000 NA
ATOM     30  C   UNL     1      51.136   1.367  17.402  0.00  0.00    +0.000 A 
ATOM     31  N   UNL     1      49.965   1.959  17.004  0.00  0.00    +0.000 N 
ATOM     32  C   UNL     1      49.784   3.324  16.999  0.00  0.00    +0.000 A 
ATOM     33  O   UNL     1      48.709   3.821  16.680  0.00  0.00    +0.000 OA
ATOM     34  C   UNL     1      50.945   4.082  17.423  0.00  0.00    +0.000 A 
ATOM     35  H   UNL     1      49.172   1.406  16.721  0.00  0.00    +0.000 HD
ENDBRANCH  22  25
ENDBRANCH  20  21
ENDBRANCH   4  20
TORSDOF 7
ENDMDL
MODEL 6
REMARK VINA RESULT:    -7.240      3.700      8.372
REMARK INTER + INTRA:         -10.793
REMARK INTER:                  -9.970
REMARK INTRA:                  -0.824
REMARK UNBOUND:                -0.591
REMARK  Name = 
REMARK  8 active torsions:
REMARK  status: ('A' for Active; 'I' for Inactive)
REMARK    1  A    between atoms: C_1  and  O_2
REMARK    2  A    between atoms: O_2  and  C_3
REMARK    3  A    between atoms: C_7  and  C_8
REMARK    4  A    between atoms: N_10  and  C_11
REMARK    5  A    between atoms: C_11  and  C_12
REMARK    6  A    between atoms: C_15  and  C_16
REMARK    7  A    between atoms: C_16  and  N_17
REMARK    8  A    between atoms: C_18  and  C_20
REMARK                            x       y       z     vdW  Elec       q    Type
REMARK                         _______ _______ _______ _____ _____    ______ ____
ROOT
ATOM      1  C   UNL     1      50.498   8.318  15.673  0.00  0.00    +0.000 C 
ATOM      2  C   UNL     1      49.142   7.964  16.310  0.00  0.00    +0.000 C 
ATOM      3  C   UNL     1      47.953   8.456  15.480  0.00  0.00    +0.000 C 
ATOM      4  C   UNL     1      48.001   7.941  14.033  0.00  0.00    +0.000 C 
ATOM      5  C   UNL     1      49.335   8.336  13.390  0.00  0.00    +0.000 C 
ATOM      6  C   UNL     1      50.528   7.837  14.207  0.00  0.00    +0.000 C 
ENDROOT
BRANCH   1   7
ATOM      7  C   UNL     1      51.670   7.742  16.512  0.00  0.00    +0.000 C 
BRANCH   7  10
ATOM      8  C   UNL     1      51.643   5.589  17.831  0.00  0.00    +0.000 C 
ATOM      9  O   UNL     1      51.692   6.131  18.933  0.00  0.00    +0.000 OA
ATOM     10  N   UNL     1      51.641   6.288  16.635  0.00  0.00    +0.000 N 
ATOM     11  H   UNL     1      51.665   5.723  15.786  0.00  0.00    +0.000 HD
BRANCH   8  16
ATOM     12  C   UNL     1      50.428   2.254  16.919  0.00  0.00    +0.000 A 
ATOM     13  C   UNL     1      51.401   1.360  17.341  0.00  0.00    +0.000 A 
ATOM     14  C   UNL     1      52.507   1.878  18.006  0.00  0.00    +0.000 A 
ATOM     15  C   UNL     1      52.612   3.262  18.199  0.00  0.00    +0.000 A 
ATOM     16  C   UNL     1      51.596   4.082  17.717  0.00  0.00    +0.000 A 
ATOM     17  N   UNL     1      50.501   3.600  17.095  0.00  0.00    +0.000 NA
BRANCH  12  19
ATOM     18  C   UNL     1      48.207   2.649  16.353  0.00  0.00    +0.000 C 
ATOM     19  O   UNL     1      49.323   1.759  16.259  0.00  0.00    +0.000 OA
ENDBRANCH  12  19
ENDBRANCH   8  16
ENDBRANCH   7  10
ENDBRANCH   1   7
BRANCH   4  20
ATOM     20  C   UNL     1      46.842   8.474  13.171  0.00  0.00    +0.000 C 
BRANCH  20  21
ATOM     21  N   UNL     1      46.128   7.430  12.477  0.00  0.00    +0.000 N 
ATOM     22  C   UNL     1      46.684   6.754  11.422  0.00  0.00    +0.000 C 
ATOM     23  O   UNL     1      47.819   6.988  11.010  0.00  0.00    +0.000 OA
ATOM     24  H   UNL     1      45.119   7.406  12.592  0.00  0.00    +0.000 HD
BRANCH  22  25
ATOM     25  C   UNL     1      45.873   5.687  10.842  0.00  0.00    +0.000 A 
ATOM     26  C   UNL     1      45.790   5.550   9.464  0.00  0.00    +0.000 A 
ATOM     27  S   UNL     1      44.818   4.236   8.975  0.00  0.00    +0.000 S 
ATOM     28  C   UNL     1      44.449   3.836  10.589  0.00  0.00    +0.000 A 
ATOM     29  N   UNL     1      43.621   2.798  10.884  0.00  0.00    +0.000 NA
ATOM     30  C   UNL     1      43.410   2.629  12.148  0.00  0.00    +0.000 A 
ATOM     31  N   UNL     1      43.954   3.398  13.144  0.00  0.00    +0.000 N 
ATOM     32  C   UNL     1      44.813   4.443  12.894  0.00  0.00    +0.000 A 
ATOM     33  O   UNL     1      45.318   5.084  13.810  0.00  0.00    +0.000 OA
ATOM     34  C   UNL     1      45.073   4.680  11.487  0.00  0.00    +0.000 A 
ATOM     35  H   UNL     1      43.761   3.205  14.114  0.00  0.00    +0.000 HD
ENDBRANCH  22  25
ENDBRANCH  20  21
ENDBRANCH   4  20
TORSDOF 7
ENDMDL
MODEL 7
REMARK VINA RESULT:    -7.117      3.969      5.296
REMARK INTER + INTRA:         -10.620
REMARK INTER:                  -9.641
REMARK INTRA:                  -0.979
REMARK UNBOUND:                -0.591
REMARK  Name = 
REMARK  8 active torsions:
REMARK  status: ('A' for Active; 'I' for Inactive)
REMARK    1  A    between atoms: C_1  and  O_2
REMARK    2  A    between atoms: O_2  and  C_3
REMARK    3  A    between atoms: C_7  and  C_8
REMARK    4  A    between atoms: N_10  and  C_11
REMARK    5  A    between atoms: C_11  and  C_12
REMARK    6  A    between atoms: C_15  and  C_16
REMARK    7  A    between atoms: C_16  and  N_17
REMARK    8  A    between atoms: C_18  and  C_20
REMARK                            x       y       z     vdW  Elec       q    Type
REMARK                         _______ _______ _______ _____ _____    ______ ____
ROOT
ATOM      1  C   UNL     1      48.056   5.861  14.518  0.00  0.00    +0.000 C 
ATOM      2  C   UNL     1      47.238   4.744  15.188  0.00  0.00    +0.000 C 
ATOM      3  C   UNL     1      48.014   4.026  16.296  0.00  0.00    +0.000 C 
ATOM      4  C   UNL     1      48.540   4.999  17.362  0.00  0.00    +0.000 C 
ATOM      5  C   UNL     1      49.392   6.083  16.693  0.00  0.00    +0.000 C 
ATOM      6  C   UNL     1      48.619   6.814  15.593  0.00  0.00    +0.000 C 
ENDROOT
BRANCH   1   7
ATOM      7  C   UNL     1      47.209   6.603  13.450  0.00  0.00    +0.000 C 
BRANCH   7  10
ATOM      8  C   UNL     1      45.572   5.984  11.629  0.00  0.00    +0.000 C 
ATOM      9  O   UNL     1      44.869   6.983  11.765  0.00  0.00    +0.000 OA
ATOM     10  N   UNL     1      46.693   5.727  12.402  0.00  0.00    +0.000 N 
ATOM     11  H   UNL     1      47.154   4.832  12.238  0.00  0.00    +0.000 HD
BRANCH   8  16
ATOM     12  C   UNL     1      45.568   4.206   8.425  0.00  0.00    +0.000 A 
ATOM     13  C   UNL     1      44.789   3.075   8.612  0.00  0.00    +0.000 A 
ATOM     14  C   UNL     1      44.189   2.903   9.856  0.00  0.00    +0.000 A 
ATOM     15  C   UNL     1      44.412   3.848  10.867  0.00  0.00    +0.000 A 
ATOM     16  C   UNL     1      45.231   4.939  10.590  0.00  0.00    +0.000 A 
ATOM     17  N   UNL     1      45.799   5.141   9.384  0.00  0.00    +0.000 NA
BRANCH  12  19
ATOM     18  C   UNL     1      46.585   3.155   6.617  0.00  0.00    +0.000 C 
ATOM     19  O   UNL     1      46.169   4.394   7.198  0.00  0.00    +0.000 OA
ENDBRANCH  12  19
ENDBRANCH   8  16
ENDBRANCH   7  10
ENDBRANCH   1   7
BRANCH   4  20
ATOM     20  C   UNL     1      49.371   4.299  18.453  0.00  0.00    +0.000 C 
BRANCH  20  21
ATOM     21  N   UNL     1      50.679   3.899  17.995  0.00  0.00    +0.000 N 
ATOM     22  C   UNL     1      51.790   4.027  18.788  0.00  0.00    +0.000 C 
ATOM     23  O   UNL     1      51.740   4.477  19.931  0.00  0.00    +0.000 OA
ATOM     24  H   UNL     1      50.807   3.799  16.992  0.00  0.00    +0.000 HD
BRANCH  22  25
ATOM     25  C   UNL     1      53.045   3.538  18.221  0.00  0.00    +0.000 A 
ATOM     26  C   UNL     1      54.136   4.388  18.114  0.00  0.00    +0.000 A 
ATOM     27  S   UNL     1      55.516   3.635  17.452  0.00  0.00    +0.000 S 
ATOM     28  C   UNL     1      54.684   2.161  17.253  0.00  0.00    +0.000 A 
ATOM     29  N   UNL     1      55.294   1.079  16.700  0.00  0.00    +0.000 NA
ATOM     30  C   UNL     1      54.534   0.040  16.586  0.00  0.00    +0.000 A 
ATOM     31  N   UNL     1      53.222  -0.019  16.980  0.00  0.00    +0.000 N 
ATOM     32  C   UNL     1      52.570   1.043  17.564  0.00  0.00    +0.000 A 
ATOM     33  O   UNL     1      51.409   0.945  17.945  0.00  0.00    +0.000 OA
ATOM     34  C   UNL     1      53.380   2.238  17.703  0.00  0.00    +0.000 A 
ATOM     35  H   UNL     1      52.686  -0.865  16.877  0.00  0.00    +0.000 HD
ENDBRANCH  22  25
ENDBRANCH  20  21
ENDBRANCH   4  20
TORSDOF 7
ENDMDL
MODEL 8
REMARK VINA RESULT:    -7.018      2.460      3.317
REMARK INTER + INTRA:         -10.480
REMARK INTER:                  -9.433
REMARK INTRA:                  -1.047
REMARK UNBOUND:                -0.591
REMARK  Name = 
REMARK  8 active torsions:
REMARK  status: ('A' for Active; 'I' for Inactive)
REMARK    1  A    between atoms: C_1  and  O_2
REMARK    2  A    between atoms: O_2  and  C_3
REMARK    3  A    between atoms: C_7  and  C_8
REMARK    4  A    between atoms: N_10  and  C_11
REMARK    5  A    between atoms: C_11  and  C_12
REMARK    6  A    between atoms: C_15  and  C_16
REMARK    7  A    between atoms: C_16  and  N_17
REMARK    8  A    between atoms: C_18  and  C_20
REMARK                            x       y       z     vdW  Elec       q    Type
REMARK                         _______ _______ _______ _____ _____    ______ ____
ROOT
ATOM      1  C   UNL     1      44.315   7.055  12.047  0.00  0.00    +0.000 C 
ATOM      2  C   UNL     1      44.643   8.429  11.438  0.00  0.00    +0.000 C 
ATOM      3  C   UNL     1      45.630   9.233  12.289  0.00  0.00    +0.000 C 
ATOM      4  C   UNL     1      46.930   8.459  12.558  0.00  0.00    +0.000 C 
ATOM      5  C   UNL     1      46.599   7.109  13.207  0.00  0.00    +0.000 C 
ATOM      6  C   UNL     1      45.623   6.295  12.355  0.00  0.00    +0.000 C 
ENDROOT
BRANCH   1   7
ATOM      7  C   UNL     1      43.366   6.251  11.119  0.00  0.00    +0.000 C 
BRANCH   7  10
ATOM      8  C   UNL     1      43.895   3.935  10.261  0.00  0.00    +0.000 C 
ATOM      9  O   UNL     1      43.147   3.352  11.042  0.00  0.00    +0.000 OA
ATOM     10  N   UNL     1      44.061   5.311  10.244  0.00  0.00    +0.000 N 
ATOM     11  H   UNL     1      44.759   5.669   9.593  0.00  0.00    +0.000 HD
BRANCH   8  16
ATOM     12  C   UNL     1      46.027   3.269   7.355  0.00  0.00    +0.000 A 
ATOM     13  C   UNL     1      46.306   1.911   7.385  0.00  0.00    +0.000 A 
ATOM     14  C   UNL     1      45.724   1.155   8.397  0.00  0.00    +0.000 A 
ATOM     15  C   UNL     1      44.912   1.785   9.351  0.00  0.00    +0.000 A 
ATOM     16  C   UNL     1      44.711   3.158   9.252  0.00  0.00    +0.000 A 
ATOM     17  N   UNL     1      45.241   3.906   8.264  0.00  0.00    +0.000 NA
BRANCH  12  19
ATOM     18  C   UNL     1      47.143   3.224   5.316  0.00  0.00    +0.000 C 
ATOM     19  O   UNL     1      46.594   4.034   6.359  0.00  0.00    +0.000 OA
ENDBRANCH  12  19
ENDBRANCH   8  16
ENDBRANCH   7  10
ENDBRANCH   1   7
BRANCH   4  20
ATOM     20  C   UNL     1      47.909   9.232  13.461  0.00  0.00    +0.000 C 
BRANCH  20  21
ATOM     21  N   UNL     1      48.829   8.370  14.163  0.00  0.00    +0.000 N 
ATOM     22  C   UNL     1      48.986   8.440  15.523  0.00  0.00    +0.000 C 
ATOM     23  O   UNL     1      48.353   9.228  16.224  0.00  0.00    +0.000 OA
ATOM     24  H   UNL     1      49.556   7.924  13.612  0.00  0.00    +0.000 HD
BRANCH  22  25
ATOM     25  C   UNL     1      49.913   7.477  16.114  0.00  0.00    +0.000 A 
ATOM     26  C   UNL     1      49.465   6.584  17.076  0.00  0.00    +0.000 A 
ATOM     27  S   UNL     1      50.683   5.525  17.631  0.00  0.00    +0.000 S 
ATOM     28  C   UNL     1      51.851   6.255  16.629  0.00  0.00    +0.000 A 
ATOM     29  N   UNL     1      53.144   5.834  16.636  0.00  0.00    +0.000 NA
ATOM     30  C   UNL     1      53.924   6.496  15.847  0.00  0.00    +0.000 A 
ATOM     31  N   UNL     1      53.530   7.538  15.048  0.00  0.00    +0.000 N 
ATOM     32  C   UNL     1      52.229   7.985  14.992  0.00  0.00    +0.000 A 
ATOM     33  O   UNL     1      51.900   8.891  14.234  0.00  0.00    +0.000 OA
ATOM     34  C   UNL     1      51.317   7.278  15.870  0.00  0.00    +0.000 A 
ATOM     35  H   UNL     1      54.185   8.007  14.443  0.00  0.00    +0.000 HD
ENDBRANCH  22  25
ENDBRANCH  20  21
ENDBRANCH   4  20
TORSDOF 7
ENDMDL
MODEL 9
REMARK VINA RESULT:    -6.927      2.813      4.490
REMARK INTER + INTRA:         -10.353
REMARK INTER:                  -9.326
REMARK INTRA:                  -1.027
REMARK UNBOUND:                -0.591
REMARK  Name = 
REMARK  8 active torsions:
REMARK  status: ('A' for Active; 'I' for Inactive)
REMARK    1  A    between atoms: C_1  and  O_2
REMARK    2  A    between atoms: O_2  and  C_3
REMARK    3  A    between atoms: C_7  and  C_8
REMARK    4  A    between atoms: N_10  and  C_11
REMARK    5  A    between atoms: C_11  and  C_12
REMARK    6  A    between atoms: C_15  and  C_16
REMARK    7  A    between atoms: C_16  and  N_17
REMARK    8  A    between atoms: C_18  and  C_20
REMARK                            x       y       z     vdW  Elec       q    Type
REMARK                         _______ _______ _______ _____ _____    ______ ____
ROOT
ATOM      1  C   UNL     1      48.648   7.728  13.166  0.00  0.00    +0.000 C 
ATOM      2  C   UNL     1      48.325   6.540  14.090  0.00  0.00    +0.000 C 
ATOM      3  C   UNL     1      49.027   6.640  15.448  0.00  0.00    +0.000 C 
ATOM      4  C   UNL     1      48.715   7.961  16.167  0.00  0.00    +0.000 C 
ATOM      5  C   UNL     1      49.082   9.141  15.259  0.00  0.00    +0.000 C 
ATOM      6  C   UNL     1      48.374   9.054  13.905  0.00  0.00    +0.000 C 
ENDROOT
BRANCH   1   7
ATOM      7  C   UNL     1      47.864   7.618  11.831  0.00  0.00    +0.000 C 
BRANCH   7  10
ATOM      8  C   UNL     1      45.555   6.594  11.803  0.00  0.00    +0.000 C 
ATOM      9  O   UNL     1      44.957   7.664  11.877  0.00  0.00    +0.000 OA
ATOM     10  N   UNL     1      46.937   6.491  11.788  0.00  0.00    +0.000 N 
ATOM     11  H   UNL     1      47.315   5.543  11.791  0.00  0.00    +0.000 HD
BRANCH   8  16
ATOM     12  C   UNL     1      44.228   3.462  10.440  0.00  0.00    +0.000 A 
ATOM     13  C   UNL     1      43.539   2.851  11.477  0.00  0.00    +0.000 A 
ATOM     14  C   UNL     1      43.467   3.528  12.690  0.00  0.00    +0.000 A 
ATOM     15  C   UNL     1      44.105   4.768  12.828  0.00  0.00    +0.000 A 
ATOM     16  C   UNL     1      44.794   5.289  11.737  0.00  0.00    +0.000 A 
ATOM     17  N   UNL     1      44.853   4.665  10.543  0.00  0.00    +0.000 NA
BRANCH  12  19
ATOM     18  C   UNL     1      44.819   3.657   8.199  0.00  0.00    +0.000 C 
ATOM     19  O   UNL     1      44.309   2.806   9.230  0.00  0.00    +0.000 OA
ENDBRANCH  12  19
ENDBRANCH   8  16
ENDBRANCH   7  10
ENDBRANCH   1   7
BRANCH   4  20
ATOM     20  C   UNL     1      49.460   8.100  17.508  0.00  0.00    +0.000 C 
BRANCH  20  21
ATOM     21  N   UNL     1      50.434   7.059  17.723  0.00  0.00    +0.000 N 
ATOM     22  C   UNL     1      50.212   6.034  18.606  0.00  0.00    +0.000 C 
ATOM     23  O   UNL     1      49.173   5.936  19.259  0.00  0.00    +0.000 OA
ATOM     24  H   UNL     1      51.389   7.253  17.434  0.00  0.00    +0.000 HD
BRANCH  22  25
ATOM     25  C   UNL     1      51.258   5.019  18.692  0.00  0.00    +0.000 A 
ATOM     26  C   UNL     1      52.438   5.293  19.368  0.00  0.00    +0.000 A 
ATOM     27  S   UNL     1      53.528   3.980  19.381  0.00  0.00    +0.000 S 
ATOM     28  C   UNL     1      52.472   3.022  18.450  0.00  0.00    +0.000 A 
ATOM     29  N   UNL     1      52.815   1.761  18.073  0.00  0.00    +0.000 NA
ATOM     30  C   UNL     1      51.929   1.163  17.347  0.00  0.00    +0.000 A 
ATOM     31  N   UNL     1      50.729   1.707  16.967  0.00  0.00    +0.000 N 
ATOM     32  C   UNL     1      50.330   2.969  17.342  0.00  0.00    +0.000 A 
ATOM     33  O   UNL     1      49.232   3.411  17.021  0.00  0.00    +0.000 OA
ATOM     34  C   UNL     1      51.298   3.686  18.150  0.00  0.00    +0.000 A 
ATOM     35  H   UNL     1      50.073   1.182  16.410  0.00  0.00    +0.000 HD
ENDBRANCH  22  25
ENDBRANCH  20  21
ENDBRANCH   4  20
TORSDOF 7
ENDMDL
