MODEL 1
REMARK VINA RESULT:    -8.220      0.000      0.000
REMARK INTER + INTRA:         -12.901
REMARK INTER:                 -11.824
REMARK INTRA:                  -1.077
REMARK UNBOUND:                -1.077
REMARK  Name = 
REMARK  8 active torsions:
REMARK  status: ('A' for Active; 'I' for Inactive)
REMARK    1  A    between atoms: N_1  and  C_2
REMARK    2  A    between atoms: C_2  and  C_3
REMARK    3  A    between atoms: C_3  and  N_4
REMARK    4  A    between atoms: C_3  and  C_17
REMARK    5  A    between atoms: C_5  and  C_7
REMARK    6  A    between atoms: C_20  and  O_21
REMARK    7  A    between atoms: O_21  and  C_22
REMARK    8  A    between atoms: C_22  and  C_23
REMARK                            x       y       z     vdW  Elec       q    Type
REMARK                         _______ _______ _______ _____ _____    ______ ____
ROOT
ATOM      1  C   UNL     1      46.863   7.849  13.093  0.00  0.00    +0.000 C 
ENDROOT
BRANCH   1   2
ATOM      2  C   UNL     1      46.167   6.727  12.315  0.00  0.00    +0.000 A 
ATOM      3  C   UNL     1      46.463   6.521  10.960  0.00  0.00    +0.000 A 
ATOM      4  C   UNL     1      45.810   5.521  10.233  0.00  0.00    +0.000 A 
ATOM      5  C   UNL     1      44.881   4.689  10.856  0.00  0.00    +0.000 A 
ATOM      6  C   UNL     1      44.547   4.911  12.191  0.00  0.00    +0.000 A 
ATOM      7  C   UNL     1      45.182   5.923  12.913  0.00  0.00    +0.000 A 
BRANCH   5   8
ATOM      8  O   UNL     1      44.353   3.699  10.072  0.00  0.00    +0.000 OA
BRANCH   8   9
ATOM      9  C   UNL     1      44.464   3.927   8.661  0.00  0.00    +0.000 C 
BRANCH   9  10
ATOM     10  C   UNL     1      45.529   3.052   8.042  0.00  0.00    +0.000 A 
ATOM     11  C   UNL     1      46.345   3.515   7.013  0.00  0.00    +0.000 A 
ATOM     12  C   UNL     1      47.296   2.657   6.466  0.00  0.00    +0.000 A 
ATOM     13  C   UNL     1      47.397   1.356   6.948  0.00  0.00    +0.000 A 
ATOM     14  C   UNL     1      46.537   0.966   7.959  0.00  0.00    +0.000 A 
ATOM     15  N   UNL     1      45.606   1.777   8.507  0.00  0.00    +0.000 NA
ENDBRANCH   9  10
ENDBRANCH   8   9
ENDBRANCH   5   8
ENDBRANCH   1   2
BRANCH   1  16
ATOM     16  N   UNL     1      47.329   7.325  14.377  0.00  0.00    +0.000 N 
ATOM     17  C   UNL     1      48.589   6.829  14.590  0.00  0.00    +0.000 C 
ATOM     18  O   UNL     1      49.479   6.889  13.749  0.00  0.00    +0.000 OA
ATOM     19  H   UNL     1      46.593   6.982  14.988  0.00  0.00    +0.000 HD
BRANCH  17  20
ATOM     20  C   UNL     1      48.841   6.263  15.924  0.00  0.00    +0.000 A 
ATOM     21  C   UNL     1      49.714   6.907  16.792  0.00  0.00    +0.000 A 
ATOM     22  S   UNL     1      49.896   6.112  18.290  0.00  0.00    +0.000 S 
ATOM     23  C   UNL     1      48.850   4.857  17.814  0.00  0.00    +0.000 A 
ATOM     24  N   UNL     1      48.603   3.801  18.635  0.00  0.00    +0.000 NA
ATOM     25  C   UNL     1      47.817   2.905  18.131  0.00  0.00    +0.000 A 
ATOM     26  N   UNL     1      47.236   2.983  16.889  0.00  0.00    +0.000 N 
ATOM     27  C   UNL     1      47.418   4.056  16.053  0.00  0.00    +0.000 A 
ATOM     28  O   UNL     1      46.812   4.145  14.991  0.00  0.00    +0.000 OA
ATOM     29  C   UNL     1      48.332   5.067  16.548  0.00  0.00    +0.000 A 
ATOM     30  H   UNL     1      46.608   2.263  16.566  0.00  0.00    +0.000 HD
ENDBRANCH  17  20
ENDBRANCH   1  16
BRANCH   1  31
ATOM     31  C   UNL     1      45.906   9.072  13.241  0.00  0.00    +0.000 C 
BRANCH  31  32
ATOM     32  N   UNL     1      46.012  10.072  12.165  0.00  0.00    +0.000 NA
ATOM     33  H   UNL     1      46.000   9.586  11.270  0.00  0.00    +0.000 HD
ATOM     34  H   UNL     1      46.921  10.530  12.218  0.00  0.00    +0.000 HD
ENDBRANCH  31  32
ENDBRANCH   1  31
TORSDOF 8
ENDMDL
MODEL 2
REMARK VINA RESULT:    -8.174      2.002      2.604
REMARK INTER + INTRA:         -12.835
REMARK INTER:                 -11.593
REMARK INTRA:                  -1.242
REMARK UNBOUND:                -1.077
REMARK  Name = 
REMARK  8 active torsions:
REMARK  status: ('A' for Active; 'I' for Inactive)
REMARK    1  A    between atoms: N_1  and  C_2
REMARK    2  A    between atoms: C_2  and  C_3
REMARK    3  A    between atoms: C_3  and  N_4
REMARK    4  A    between atoms: C_3  and  C_17
REMARK    5  A    between atoms: C_5  and  C_7
REMARK    6  A    between atoms: C_20  and  O_21
REMARK    7  A    between atoms: O_21  and  C_22
REMARK    8  A    between atoms: C_22  and  C_23
REMARK                            x       y       z     vdW  Elec       q    Type
REMARK                         _______ _______ _______ _____ _____    ______ ____
ROOT
ATOM      1  C   UNL     1      47.905   6.858  13.714  0.00  0.00    +0.000 C 
ENDROOT
BRANCH   1   2
ATOM      2  C   UNL     1      46.914   6.000  12.922  0.00  0.00    +0.000 A 
ATOM      3  C   UNL     1      46.333   6.497  11.747  0.00  0.00    +0.000 A 
ATOM      4  C   UNL     1      45.403   5.734  11.034  0.00  0.00    +0.000 A 
ATOM      5  C   UNL     1      45.069   4.450  11.463  0.00  0.00    +0.000 A 
ATOM      6  C   UNL     1      45.608   3.960  12.651  0.00  0.00    +0.000 A 
ATOM      7  C   UNL     1      46.520   4.730  13.376  0.00  0.00    +0.000 A 
BRANCH   5   8
ATOM      8  O   UNL     1      44.204   3.762  10.654  0.00  0.00    +0.000 OA
BRANCH   8   9
ATOM      9  C   UNL     1      44.235   4.150   9.274  0.00  0.00    +0.000 C 
BRANCH   9  10
ATOM     10  C   UNL     1      45.250   3.345   8.497  0.00  0.00    +0.000 A 
ATOM     11  C   UNL     1      45.454   1.991   8.751  0.00  0.00    +0.000 A 
ATOM     12  C   UNL     1      46.419   1.304   8.018  0.00  0.00    +0.000 A 
ATOM     13  C   UNL     1      47.166   1.988   7.065  0.00  0.00    +0.000 A 
ATOM     14  C   UNL     1      46.917   3.337   6.886  0.00  0.00    +0.000 A 
ATOM     15  N   UNL     1      45.988   4.027   7.582  0.00  0.00    +0.000 NA
ENDBRANCH   9  10
ENDBRANCH   8   9
ENDBRANCH   5   8
ENDBRANCH   1   2
BRANCH   1  16
ATOM     16  N   UNL     1      47.899   6.432  15.113  0.00  0.00    +0.000 N 
ATOM     17  C   UNL     1      49.030   6.291  15.874  0.00  0.00    +0.000 C 
ATOM     18  O   UNL     1      50.143   6.624  15.483  0.00  0.00    +0.000 OA
ATOM     19  H   UNL     1      47.093   5.878  15.385  0.00  0.00    +0.000 HD
BRANCH  17  20
ATOM     20  C   UNL     1      48.829   5.764  17.233  0.00  0.00    +0.000 A 
ATOM     21  C   UNL     1      49.065   4.420  17.493  0.00  0.00    +0.000 A 
ATOM     22  S   UNL     1      48.774   3.979  19.115  0.00  0.00    +0.000 S 
ATOM     23  C   UNL     1      48.282   5.558  19.515  0.00  0.00    +0.000 A 
ATOM     24  N   UNL     1      47.848   5.860  20.769  0.00  0.00    +0.000 NA
ATOM     25  C   UNL     1      47.474   7.089  20.922  0.00  0.00    +0.000 A 
ATOM     26  N   UNL     1      47.516   8.049  19.940  0.00  0.00    +0.000 N 
ATOM     27  C   UNL     1      47.996   7.797  18.679  0.00  0.00    +0.000 A 
ATOM     28  O   UNL     1      48.113   8.694  17.852  0.00  0.00    +0.000 OA
ATOM     29  C   UNL     1      48.383   6.420  18.438  0.00  0.00    +0.000 A 
ATOM     30  H   UNL     1      47.236   8.998  20.133  0.00  0.00    +0.000 HD
ENDBRANCH  17  20
ENDBRANCH   1  16
BRANCH   1  31
ATOM     31  C   UNL     1      47.567   8.371  13.532  0.00  0.00    +0.000 C 
BRANCH  31  32
ATOM     32  N   UNL     1      47.161   9.064  14.767  0.00  0.00    +0.000 NA
ATOM     33  H   UNL     1      46.147   9.017  14.845  0.00  0.00    +0.000 HD
ATOM     34  H   UNL     1      47.386  10.056  14.686  0.00  0.00    +0.000 HD
ENDBRANCH  31  32
ENDBRANCH   1  31
TORSDOF 8
ENDMDL
MODEL 3
REMARK VINA RESULT:    -7.739      2.795      4.374
REMARK INTER + INTRA:         -12.209
REMARK INTER:                 -10.883
REMARK INTRA:                  -1.327
REMARK UNBOUND:                -1.077
REMARK  Name = 
REMARK  8 active torsions:
REMARK  status: ('A' for Active; 'I' for Inactive)
REMARK    1  A    between atoms: N_1  and  C_2
REMARK    2  A    between atoms: C_2  and  C_3
REMARK    3  A    between atoms: C_3  and  N_4
REMARK    4  A    between atoms: C_3  and  C_17
REMARK    5  A    between atoms: C_5  and  C_7
REMARK    6  A    between atoms: C_20  and  O_21
REMARK    7  A    between atoms: O_21  and  C_22
REMARK    8  A    between atoms: C_22  and  C_23
REMARK                            x       y       z     vdW  Elec       q    Type
REMARK                         _______ _______ _______ _____ _____    ______ ____
ROOT
ATOM      1  C   UNL     1      46.754   5.671  14.042  0.00  0.00    +0.000 C 
ENDROOT
BRANCH   1   2
ATOM      2  C   UNL     1      46.050   5.106  12.805  0.00  0.00    +0.000 A 
ATOM      3  C   UNL     1      45.560   3.792  12.812  0.00  0.00    +0.000 A 
ATOM      4  C   UNL     1      44.944   3.256  11.677  0.00  0.00    +0.000 A 
ATOM      5  C   UNL     1      44.775   4.035  10.533  0.00  0.00    +0.000 A 
ATOM      6  C   UNL     1      45.294   5.327  10.499  0.00  0.00    +0.000 A 
ATOM      7  C   UNL     1      45.929   5.857  11.624  0.00  0.00    +0.000 A 
BRANCH   5   8
ATOM      8  O   UNL     1      44.097   3.437   9.505  0.00  0.00    +0.000 OA
BRANCH   8   9
ATOM      9  C   UNL     1      44.548   2.117   9.175  0.00  0.00    +0.000 C 
BRANCH   9  10
ATOM     10  C   UNL     1      45.673   2.154   8.166  0.00  0.00    +0.000 A 
ATOM     11  C   UNL     1      45.856   3.245   7.321  0.00  0.00    +0.000 A 
ATOM     12  C   UNL     1      46.898   3.216   6.396  0.00  0.00    +0.000 A 
ATOM     13  C   UNL     1      47.716   2.094   6.327  0.00  0.00    +0.000 A 
ATOM     14  C   UNL     1      47.457   1.043   7.188  0.00  0.00    +0.000 A 
ATOM     15  N   UNL     1      46.455   1.045   8.094  0.00  0.00    +0.000 NA
ENDBRANCH   9  10
ENDBRANCH   8   9
ENDBRANCH   5   8
ENDBRANCH   1   2
BRANCH   1  16
ATOM     16  N   UNL     1      47.917   6.452  13.619  0.00  0.00    +0.000 N 
ATOM     17  C   UNL     1      47.912   7.815  13.475  0.00  0.00    +0.000 C 
ATOM     18  O   UNL     1      46.962   8.516  13.804  0.00  0.00    +0.000 OA
ATOM     19  H   UNL     1      48.597   5.936  13.068  0.00  0.00    +0.000 HD
BRANCH  17  20
ATOM     20  C   UNL     1      49.151   8.411  12.952  0.00  0.00    +0.000 A 
ATOM     21  C   UNL     1      49.112   9.175  11.792  0.00  0.00    +0.000 A 
ATOM     22  S   UNL     1      50.636   9.781  11.323  0.00  0.00    +0.000 S 
ATOM     23  C   UNL     1      51.407   9.008  12.629  0.00  0.00    +0.000 A 
ATOM     24  N   UNL     1      52.756   9.082  12.790  0.00  0.00    +0.000 NA
ATOM     25  C   UNL     1      53.210   8.419  13.805  0.00  0.00    +0.000 A 
ATOM     26  N   UNL     1      52.433   7.707  14.685  0.00  0.00    +0.000 N 
ATOM     27  C   UNL     1      51.065   7.650  14.587  0.00  0.00    +0.000 A 
ATOM     28  O   UNL     1      50.389   7.088  15.441  0.00  0.00    +0.000 OA
ATOM     29  C   UNL     1      50.507   8.335  13.437  0.00  0.00    +0.000 A 
ATOM     30  H   UNL     1      52.847   7.235  15.474  0.00  0.00    +0.000 HD
ENDBRANCH  17  20
ENDBRANCH   1  16
BRANCH   1  31
ATOM     31  C   UNL     1      47.117   4.516  15.027  0.00  0.00    +0.000 C 
BRANCH  31  32
ATOM     32  N   UNL     1      48.239   4.809  15.936  0.00  0.00    +0.000 NA
ATOM     33  H   UNL     1      47.859   5.111  16.831  0.00  0.00    +0.000 HD
ATOM     34  H   UNL     1      48.765   5.606  15.576  0.00  0.00    +0.000 HD
ENDBRANCH  31  32
ENDBRANCH   1  31
TORSDOF 8
ENDMDL
MODEL 4
REMARK VINA RESULT:    -7.668      2.520      4.622
REMARK INTER + INTRA:         -12.107
REMARK INTER:                 -10.671
REMARK INTRA:                  -1.436
REMARK UNBOUND:                -1.077
REMARK  Name = 
REMARK  8 active torsions:
REMARK  status: ('A' for Active; 'I' for Inactive)
REMARK    1  A    between atoms: N_1  and  C_2
REMARK    2  A    between atoms: C_2  and  C_3
REMARK    3  A    between atoms: C_3  and  N_4
REMARK    4  A    between atoms: C_3  and  C_17
REMARK    5  A    between atoms: C_5  and  C_7
REMARK    6  A    between atoms: C_20  and  O_21
REMARK    7  A    between atoms: O_21  and  C_22
REMARK    8  A    between atoms: C_22  and  C_23
REMARK                            x       y       z     vdW  Elec       q    Type
REMARK                         _______ _______ _______ _____ _____    ______ ____
ROOT
ATOM      1  C   UNL     1      46.987   5.612  14.376  0.00  0.00    +0.000 C 
ENDROOT
BRANCH   1   2
ATOM      2  C   UNL     1      46.242   5.140  13.124  0.00  0.00    +0.000 A 
ATOM      3  C   UNL     1      45.743   3.832  13.052  0.00  0.00    +0.000 A 
ATOM      4  C   UNL     1      45.089   3.381  11.901  0.00  0.00    +0.000 A 
ATOM      5  C   UNL     1      44.890   4.241  10.821  0.00  0.00    +0.000 A 
ATOM      6  C   UNL     1      45.417   5.531  10.864  0.00  0.00    +0.000 A 
ATOM      7  C   UNL     1      46.090   5.975  12.004  0.00  0.00    +0.000 A 
BRANCH   5   8
ATOM      8  O   UNL     1      44.177   3.722   9.774  0.00  0.00    +0.000 OA
BRANCH   8   9
ATOM      9  C   UNL     1      44.503   2.367   9.438  0.00  0.00    +0.000 C 
BRANCH   9  10
ATOM     10  C   UNL     1      45.587   2.305   8.386  0.00  0.00    +0.000 A 
ATOM     11  C   UNL     1      45.831   3.376   7.530  0.00  0.00    +0.000 A 
ATOM     12  C   UNL     1      46.828   3.255   6.564  0.00  0.00    +0.000 A 
ATOM     13  C   UNL     1      47.542   2.065   6.468  0.00  0.00    +0.000 A 
ATOM     14  C   UNL     1      47.226   1.042   7.343  0.00  0.00    +0.000 A 
ATOM     15  N   UNL     1      46.264   1.132   8.287  0.00  0.00    +0.000 NA
ENDBRANCH   9  10
ENDBRANCH   8   9
ENDBRANCH   5   8
ENDBRANCH   1   2
BRANCH   1  16
ATOM     16  N   UNL     1      48.200   6.324  13.973  0.00  0.00    +0.000 N 
ATOM     17  C   UNL     1      48.824   7.269  14.745  0.00  0.00    +0.000 C 
ATOM     18  O   UNL     1      48.486   7.518  15.897  0.00  0.00    +0.000 OA
ATOM     19  H   UNL     1      48.343   6.386  12.970  0.00  0.00    +0.000 HD
BRANCH  17  20
ATOM     20  C   UNL     1      49.979   7.941  14.131  0.00  0.00    +0.000 A 
ATOM     21  C   UNL     1      51.243   7.789  14.689  0.00  0.00    +0.000 A 
ATOM     22  S   UNL     1      52.462   8.643  13.857  0.00  0.00    +0.000 S 
ATOM     23  C   UNL     1      51.339   9.279  12.749  0.00  0.00    +0.000 A 
ATOM     24  N   UNL     1      51.728  10.147  11.776  0.00  0.00    +0.000 NA
ATOM     25  C   UNL     1      50.764  10.577  11.027  0.00  0.00    +0.000 A 
ATOM     26  N   UNL     1      49.449  10.199  11.149  0.00  0.00    +0.000 N 
ATOM     27  C   UNL     1      49.026   9.286  12.083  0.00  0.00    +0.000 A 
ATOM     28  O   UNL     1      47.865   8.894  12.107  0.00  0.00    +0.000 OA
ATOM     29  C   UNL     1      50.058   8.810  12.983  0.00  0.00    +0.000 A 
ATOM     30  H   UNL     1      48.750  10.550  10.513  0.00  0.00    +0.000 HD
ENDBRANCH  17  20
ENDBRANCH   1  16
BRANCH   1  31
ATOM     31  C   UNL     1      47.272   4.400  15.318  0.00  0.00    +0.000 C 
BRANCH  31  32
ATOM     32  N   UNL     1      47.231   4.714  16.756  0.00  0.00    +0.000 NA
ATOM     33  H   UNL     1      48.187   4.815  17.092  0.00  0.00    +0.000 HD
ATOM     34  H   UNL     1      46.842   3.920  17.264  0.00  0.00    +0.000 HD
ENDBRANCH  31  32
ENDBRANCH   1  31
TORSDOF 8
ENDMDL
MODEL 5
REMARK VINA RESULT:    -6.880      3.145      4.603
REMARK INTER + INTRA:         -10.974
REMARK INTER:                  -9.721
REMARK INTRA:                  -1.253
REMARK UNBOUND:                -1.077
REMARK  Name = 
REMARK  8 active torsions:
REMARK  status: ('A' for Active; 'I' for Inactive)
REMARK    1  A    between atoms: N_1  and  C_2
REMARK    2  A    between atoms: C_2  and  C_3
REMARK    3  A    between atoms: C_3  and  N_4
REMARK    4  A    between atoms: C_3  and  C_17
REMARK    5  A    between atoms: C_5  and  C_7
REMARK    6  A    between atoms: C_20  and  O_21
REMARK    7  A    between atoms: O_21  and  C_22
REMARK    8  A    between atoms: C_22  and  C_23
REMARK                            x       y       z     vdW  Elec       q    Type
REMARK                         _______ _______ _______ _____ _____    ______ ____
ROOT
ATOM      1  C   UNL     1      49.362   6.509  17.394  0.00  0.00    +0.000 C 
ENDROOT
BRANCH   1   2
ATOM      2  C   UNL     1      48.476   5.798  16.367  0.00  0.00    +0.000 A 
ATOM      3  C   UNL     1      48.339   6.319  15.073  0.00  0.00    +0.000 A 
ATOM      4  C   UNL     1      47.507   5.695  14.138  0.00  0.00    +0.000 A 
ATOM      5  C   UNL     1      46.831   4.522  14.470  0.00  0.00    +0.000 A 
ATOM      6  C   UNL     1      46.926   4.016  15.765  0.00  0.00    +0.000 A 
ATOM      7  C   UNL     1      47.739   4.651  16.706  0.00  0.00    +0.000 A 
BRANCH   5   8
ATOM      8  O   UNL     1      46.101   3.954  13.460  0.00  0.00    +0.000 OA
BRANCH   8   9
ATOM      9  C   UNL     1      45.402   4.888  12.626  0.00  0.00    +0.000 C 
BRANCH   9  10
ATOM     10  C   UNL     1      45.221   4.349  11.225  0.00  0.00    +0.000 A 
ATOM     11  C   UNL     1      45.497   5.128  10.105  0.00  0.00    +0.000 A 
ATOM     12  C   UNL     1      45.292   4.587   8.838  0.00  0.00    +0.000 A 
ATOM     13  C   UNL     1      44.802   3.290   8.723  0.00  0.00    +0.000 A 
ATOM     14  C   UNL     1      44.535   2.588   9.884  0.00  0.00    +0.000 A 
ATOM     15  N   UNL     1      44.724   3.088  11.124  0.00  0.00    +0.000 NA
ENDBRANCH   9  10
ENDBRANCH   8   9
ENDBRANCH   5   8
ENDBRANCH   1   2
BRANCH   1  16
ATOM     16  N   UNL     1      50.395   5.584  17.861  0.00  0.00    +0.000 N 
ATOM     17  C   UNL     1      51.633   5.467  17.286  0.00  0.00    +0.000 C 
ATOM     18  O   UNL     1      52.029   6.213  16.398  0.00  0.00    +0.000 OA
ATOM     19  H   UNL     1      50.044   4.773  18.361  0.00  0.00    +0.000 HD
BRANCH  17  20
ATOM     20  C   UNL     1      52.502   4.416  17.839  0.00  0.00    +0.000 A 
ATOM     21  C   UNL     1      53.699   4.764  18.454  0.00  0.00    +0.000 A 
ATOM     22  S   UNL     1      54.584   3.424  19.029  0.00  0.00    +0.000 S 
ATOM     23  C   UNL     1      53.421   2.331  18.439  0.00  0.00    +0.000 A 
ATOM     24  N   UNL     1      53.596   0.988  18.561  0.00  0.00    +0.000 NA
ATOM     25  C   UNL     1      52.650   0.276  18.037  0.00  0.00    +0.000 A 
ATOM     26  N   UNL     1      51.534   0.789  17.422  0.00  0.00    +0.000 N 
ATOM     27  C   UNL     1      51.296   2.137  17.326  0.00  0.00    +0.000 A 
ATOM     28  O   UNL     1      50.246   2.565  16.858  0.00  0.00    +0.000 OA
ATOM     29  C   UNL     1      52.350   2.983  17.852  0.00  0.00    +0.000 A 
ATOM     30  H   UNL     1      50.818   0.178  17.060  0.00  0.00    +0.000 HD
ENDBRANCH  17  20
ENDBRANCH   1  16
BRANCH   1  31
ATOM     31  C   UNL     1      48.486   7.085  18.551  0.00  0.00    +0.000 C 
BRANCH  31  32
ATOM     32  N   UNL     1      47.514   8.111  18.136  0.00  0.00    +0.000 NA
ATOM     33  H   UNL     1      47.398   8.773  18.901  0.00  0.00    +0.000 HD
ATOM     34  H   UNL     1      46.601   7.677  18.005  0.00  0.00    +0.000 HD
ENDBRANCH  31  32
ENDBRANCH   1  31
TORSDOF 8
ENDMDL
MODEL 6
REMARK VINA RESULT:    -6.853      3.432      7.918
REMARK INTER + INTRA:         -10.935
REMARK INTER:                  -9.727
REMARK INTRA:                  -1.208
REMARK UNBOUND:                -1.077
REMARK  Name = 
REMARK  8 active torsions:
REMARK  status: ('A' for Active; 'I' for Inactive)
REMARK    1  A    between atoms: N_1  and  C_2
REMARK    2  A    between atoms: C_2  and  C_3
REMARK    3  A    between atoms: C_3  and  N_4
REMARK    4  A    between atoms: C_3  and  C_17
REMARK    5  A    between atoms: C_5  and  C_7
REMARK    6  A    between atoms: C_20  and  O_21
REMARK    7  A    between atoms: O_21  and  C_22
REMARK    8  A    between atoms: C_22  and  C_23
REMARK                            x       y       z     vdW  Elec       q    Type
REMARK                         _______ _______ _______ _____ _____    ______ ____
ROOT
ATOM      1  C   UNL     1      47.763   7.180  13.466  0.00  0.00    +0.000 C 
ENDROOT
BRANCH   1   2
ATOM      2  C   UNL     1      48.199   6.416  14.720  0.00  0.00    +0.000 A 
ATOM      3  C   UNL     1      47.543   5.233  15.088  0.00  0.00    +0.000 A 
ATOM      4  C   UNL     1      47.912   4.545  16.249  0.00  0.00    +0.000 A 
ATOM      5  C   UNL     1      48.965   5.008  17.037  0.00  0.00    +0.000 A 
ATOM      6  C   UNL     1      49.598   6.204  16.705  0.00  0.00    +0.000 A 
ATOM      7  C   UNL     1      49.216   6.904  15.558  0.00  0.00    +0.000 A 
BRANCH   5   8
ATOM      8  O   UNL     1      49.292   4.222  18.110  0.00  0.00    +0.000 OA
BRANCH   8   9
ATOM      9  C   UNL     1      49.477   2.834  17.803  0.00  0.00    +0.000 C 
BRANCH   9  10
ATOM     10  C   UNL     1      50.942   2.460  17.805  0.00  0.00    +0.000 A 
ATOM     11  C   UNL     1      51.931   3.393  18.103  0.00  0.00    +0.000 A 
ATOM     12  C   UNL     1      53.266   2.997  18.069  0.00  0.00    +0.000 A 
ATOM     13  C   UNL     1      53.579   1.688  17.720  0.00  0.00    +0.000 A 
ATOM     14  C   UNL     1      52.540   0.826  17.418  0.00  0.00    +0.000 A 
ATOM     15  N   UNL     1      51.238   1.183  17.444  0.00  0.00    +0.000 NA
ENDBRANCH   9  10
ENDBRANCH   8   9
ENDBRANCH   5   8
ENDBRANCH   1   2
BRANCH   1  16
ATOM     16  N   UNL     1      47.158   6.243  12.519  0.00  0.00    +0.000 N 
ATOM     17  C   UNL     1      46.092   6.551  11.715  0.00  0.00    +0.000 C 
ATOM     18  O   UNL     1      45.624   7.681  11.632  0.00  0.00    +0.000 OA
ATOM     19  H   UNL     1      47.290   5.263  12.748  0.00  0.00    +0.000 HD
BRANCH  17  20
ATOM     20  C   UNL     1      45.566   5.449  10.894  0.00  0.00    +0.000 A 
ATOM     21  C   UNL     1      45.700   5.492   9.512  0.00  0.00    +0.000 A 
ATOM     22  S   UNL     1      45.028   4.140   8.719  0.00  0.00    +0.000 S 
ATOM     23  C   UNL     1      44.495   3.472  10.191  0.00  0.00    +0.000 A 
ATOM     24  N   UNL     1      43.787   2.311  10.217  0.00  0.00    +0.000 NA
ATOM     25  C   UNL     1      43.418   1.938  11.400  0.00  0.00    +0.000 A 
ATOM     26  N   UNL     1      43.713   2.610  12.561  0.00  0.00    +0.000 N 
ATOM     27  C   UNL     1      44.468   3.756  12.581  0.00  0.00    +0.000 A 
ATOM     28  O   UNL     1      44.798   4.282  13.638  0.00  0.00    +0.000 OA
ATOM     29  C   UNL     1      44.867   4.247  11.275  0.00  0.00    +0.000 A 
ATOM     30  H   UNL     1      43.419   2.249  13.455  0.00  0.00    +0.000 HD
ENDBRANCH  17  20
ENDBRANCH   1  16
BRANCH   1  31
ATOM     31  C   UNL     1      48.974   7.961  12.867  0.00  0.00    +0.000 C 
BRANCH  31  32
ATOM     32  N   UNL     1      49.966   7.122  12.173  0.00  0.00    +0.000 NA
ATOM     33  H   UNL     1      50.623   6.761  12.863  0.00  0.00    +0.000 HD
ATOM     34  H   UNL     1      50.519   7.704  11.544  0.00  0.00    +0.000 HD
ENDBRANCH  31  32
ENDBRANCH   1  31
TORSDOF 8
ENDMDL
MODEL 7
REMARK VINA RESULT:    -6.853      2.507      4.085
REMARK INTER + INTRA:         -10.934
REMARK INTER:                  -9.529
REMARK INTRA:                  -1.405
REMARK UNBOUND:                -1.077
REMARK  Name = 
REMARK  8 active torsions:
REMARK  status: ('A' for Active; 'I' for Inactive)
REMARK    1  A    between atoms: N_1  and  C_2
REMARK    2  A    between atoms: C_2  and  C_3
REMARK    3  A    between atoms: C_3  and  N_4
REMARK    4  A    between atoms: C_3  and  C_17
REMARK    5  A    between atoms: C_5  and  C_7
REMARK    6  A    between atoms: C_20  and  O_21
REMARK    7  A    between atoms: O_21  and  C_22
REMARK    8  A    between atoms: C_22  and  C_23
REMARK                            x       y       z     vdW  Elec       q    Type
REMARK                         _______ _______ _______ _____ _____    ______ ____
ROOT
ATOM      1  C   UNL     1      47.228   4.568  15.789  0.00  0.00    +0.000 C 
ENDROOT
BRANCH   1   2
ATOM      2  C   UNL     1      46.729   4.841  14.366  0.00  0.00    +0.000 A 
ATOM      3  C   UNL     1      47.263   5.905  13.625  0.00  0.00    +0.000 A 
ATOM      4  C   UNL     1      46.792   6.182  12.338  0.00  0.00    +0.000 A 
ATOM      5  C   UNL     1      45.809   5.380  11.759  0.00  0.00    +0.000 A 
ATOM      6  C   UNL     1      45.242   4.345  12.501  0.00  0.00    +0.000 A 
ATOM      7  C   UNL     1      45.696   4.081  13.794  0.00  0.00    +0.000 A 
BRANCH   5   8
ATOM      8  O   UNL     1      45.471   5.695  10.470  0.00  0.00    +0.000 OA
BRANCH   8   9
ATOM      9  C   UNL     1      44.572   4.770   9.842  0.00  0.00    +0.000 C 
BRANCH   9  10
ATOM     10  C   UNL     1      45.308   3.822   8.924  0.00  0.00    +0.000 A 
ATOM     11  C   UNL     1      45.306   2.447   9.144  0.00  0.00    +0.000 A 
ATOM     12  C   UNL     1      46.020   1.623   8.277  0.00  0.00    +0.000 A 
ATOM     13  C   UNL     1      46.729   2.193   7.225  0.00  0.00    +0.000 A 
ATOM     14  C   UNL     1      46.696   3.569   7.085  0.00  0.00    +0.000 A 
ATOM     15  N   UNL     1      46.013   4.391   7.911  0.00  0.00    +0.000 NA
ENDBRANCH   9  10
ENDBRANCH   8   9
ENDBRANCH   5   8
ENDBRANCH   1   2
BRANCH   1  16
ATOM     16  N   UNL     1      48.128   5.647  16.198  0.00  0.00    +0.000 N 
ATOM     17  C   UNL     1      48.217   6.123  17.480  0.00  0.00    +0.000 C 
ATOM     18  O   UNL     1      47.633   5.606  18.425  0.00  0.00    +0.000 OA
ATOM     19  H   UNL     1      48.392   6.284  15.453  0.00  0.00    +0.000 HD
BRANCH  17  20
ATOM     20  C   UNL     1      49.113   7.273  17.678  0.00  0.00    +0.000 A 
ATOM     21  C   UNL     1      48.601   8.470  18.165  0.00  0.00    +0.000 A 
ATOM     22  S   UNL     1      49.774   9.698  18.325  0.00  0.00    +0.000 S 
ATOM     23  C   UNL     1      50.996   8.687  17.707  0.00  0.00    +0.000 A 
ATOM     24  N   UNL     1      52.264   9.148  17.532  0.00  0.00    +0.000 NA
ATOM     25  C   UNL     1      53.081   8.283  17.023  0.00  0.00    +0.000 A 
ATOM     26  N   UNL     1      52.749   6.992  16.695  0.00  0.00    +0.000 N 
ATOM     27  C   UNL     1      51.495   6.474  16.905  0.00  0.00    +0.000 A 
ATOM     28  O   UNL     1      51.252   5.291  16.693  0.00  0.00    +0.000 OA
ATOM     29  C   UNL     1      50.525   7.417  17.427  0.00  0.00    +0.000 A 
ATOM     30  H   UNL     1      53.442   6.357  16.328  0.00  0.00    +0.000 HD
ENDBRANCH  17  20
ENDBRANCH   1  16
BRANCH   1  31
ATOM     31  C   UNL     1      47.891   3.157  15.862  0.00  0.00    +0.000 C 
BRANCH  31  32
ATOM     32  N   UNL     1      49.089   3.082  16.715  0.00  0.00    +0.000 NA
ATOM     33  H   UNL     1      48.791   3.023  17.687  0.00  0.00    +0.000 HD
ATOM     34  H   UNL     1      49.613   3.953  16.638  0.00  0.00    +0.000 HD
ENDBRANCH  31  32
ENDBRANCH   1  31
TORSDOF 8
ENDMDL
MODEL 8
REMARK VINA RESULT:    -6.804      2.959      8.152
REMARK INTER + INTRA:         -10.864
REMARK INTER:                  -9.844
REMARK INTRA:                  -1.020
REMARK UNBOUND:                -1.077
REMARK  Name = 
REMARK  8 active torsions:
REMARK  status: ('A' for Active; 'I' for Inactive)
REMARK    1  A    between atoms: N_1  and  C_2
REMARK    2  A    between atoms: C_2  and  C_3
REMARK    3  A    between atoms: C_3  and  N_4
REMARK    4  A    between atoms: C_3  and  C_17
REMARK    5  A    between atoms: C_5  and  C_7
REMARK    6  A    between atoms: C_20  and  O_21
REMARK    7  A    between atoms: O_21  and  C_22
REMARK    8  A    between atoms: C_22  and  C_23
REMARK                            x       y       z     vdW  Elec       q    Type
REMARK                         _______ _______ _______ _____ _____    ______ ____
ROOT
ATOM      1  C   UNL     1      47.869   7.521  12.770  0.00  0.00    +0.000 C 
ENDROOT
BRANCH   1   2
ATOM      2  C   UNL     1      48.684   7.162  14.016  0.00  0.00    +0.000 A 
ATOM      3  C   UNL     1      48.138   6.321  14.996  0.00  0.00    +0.000 A 
ATOM      4  C   UNL     1      48.861   6.012  16.153  0.00  0.00    +0.000 A 
ATOM      5  C   UNL     1      50.153   6.507  16.329  0.00  0.00    +0.000 A 
ATOM      6  C   UNL     1      50.691   7.377  15.382  0.00  0.00    +0.000 A 
ATOM      7  C   UNL     1      49.961   7.703  14.237  0.00  0.00    +0.000 A 
BRANCH   5   8
ATOM      8  O   UNL     1      50.799   6.087  17.460  0.00  0.00    +0.000 OA
BRANCH   8   9
ATOM      9  C   UNL     1      50.158   5.006  18.151  0.00  0.00    +0.000 C 
BRANCH   9  10
ATOM     10  C   UNL     1      50.902   3.706  17.951  0.00  0.00    +0.000 A 
ATOM     11  C   UNL     1      50.286   2.596  17.379  0.00  0.00    +0.000 A 
ATOM     12  C   UNL     1      51.014   1.416  17.238  0.00  0.00    +0.000 A 
ATOM     13  C   UNL     1      52.329   1.370  17.688  0.00  0.00    +0.000 A 
ATOM     14  C   UNL     1      52.863   2.509  18.264  0.00  0.00    +0.000 A 
ATOM     15  N   UNL     1      52.180   3.665  18.412  0.00  0.00    +0.000 NA
ENDBRANCH   9  10
ENDBRANCH   8   9
ENDBRANCH   5   8
ENDBRANCH   1   2
BRANCH   1  16
ATOM     16  N   UNL     1      47.047   6.374  12.386  0.00  0.00    +0.000 N 
ATOM     17  C   UNL     1      45.788   6.478  11.854  0.00  0.00    +0.000 C 
ATOM     18  O   UNL     1      45.283   7.551  11.542  0.00  0.00    +0.000 OA
ATOM     19  H   UNL     1      47.266   5.511  12.875  0.00  0.00    +0.000 HD
BRANCH  17  20
ATOM     20  C   UNL     1      45.082   5.209  11.616  0.00  0.00    +0.000 A 
ATOM     21  C   UNL     1      44.375   4.610  12.651  0.00  0.00    +0.000 A 
ATOM     22  S   UNL     1      43.626   3.144  12.205  0.00  0.00    +0.000 S 
ATOM     23  C   UNL     1      44.257   3.237  10.627  0.00  0.00    +0.000 A 
ATOM     24  N   UNL     1      44.030   2.248   9.721  0.00  0.00    +0.000 NA
ATOM     25  C   UNL     1      44.598   2.434   8.574  0.00  0.00    +0.000 A 
ATOM     26  N   UNL     1      45.354   3.531   8.243  0.00  0.00    +0.000 N 
ATOM     27  C   UNL     1      45.563   4.574   9.110  0.00  0.00    +0.000 A 
ATOM     28  O   UNL     1      46.161   5.585   8.758  0.00  0.00    +0.000 OA
ATOM     29  C   UNL     1      44.990   4.395  10.431  0.00  0.00    +0.000 A 
ATOM     30  H   UNL     1      45.746   3.629   7.319  0.00  0.00    +0.000 HD
ENDBRANCH  17  20
ENDBRANCH   1  16
BRANCH   1  31
ATOM     31  C   UNL     1      48.818   8.004  11.629  0.00  0.00    +0.000 C 
BRANCH  31  32
ATOM     32  N   UNL     1      48.812   9.458  11.395  0.00  0.00    +0.000 NA
ATOM     33  H   UNL     1      48.860   9.624  10.392  0.00  0.00    +0.000 HD
ATOM     34  H   UNL     1      49.663   9.865  11.783  0.00  0.00    +0.000 HD
ENDBRANCH  31  32
ENDBRANCH   1  31
TORSDOF 8
ENDMDL
MODEL 9
REMARK VINA RESULT:    -6.504      2.793      7.850
REMARK INTER + INTRA:         -10.433
REMARK INTER:                  -9.063
REMARK INTRA:                  -1.370
REMARK UNBOUND:                -1.077
REMARK  Name = 
REMARK  8 active torsions:
REMARK  status: ('A' for Active; 'I' for Inactive)
REMARK    1  A    between atoms: N_1  and  C_2
REMARK    2  A    between atoms: C_2  and  C_3
REMARK    3  A    between atoms: C_3  and  N_4
REMARK    4  A    between atoms: C_3  and  C_17
REMARK    5  A    between atoms: C_5  and  C_7
REMARK    6  A    between atoms: C_20  and  O_21
REMARK    7  A    between atoms: O_21  and  C_22
REMARK    8  A    between atoms: C_22  and  C_23
REMARK                            x       y       z     vdW  Elec       q    Type
REMARK                         _______ _______ _______ _____ _____    ______ ____
ROOT
ATOM      1  C   UNL     1      47.886   7.941  12.321  0.00  0.00    +0.000 C 
ENDROOT
BRANCH   1   2
ATOM      2  C   UNL     1      48.377   7.852  13.769  0.00  0.00    +0.000 A 
ATOM      3  C   UNL     1      47.802   8.663  14.758  0.00  0.00    +0.000 A 
ATOM      4  C   UNL     1      48.264   8.612  16.077  0.00  0.00    +0.000 A 
ATOM      5  C   UNL     1      49.279   7.726  16.435  0.00  0.00    +0.000 A 
ATOM      6  C   UNL     1      49.887   6.945  15.453  0.00  0.00    +0.000 A 
ATOM      7  C   UNL     1      49.442   7.011  14.131  0.00  0.00    +0.000 A 
BRANCH   5   8
ATOM      8  O   UNL     1      49.607   7.706  17.764  0.00  0.00    +0.000 OA
BRANCH   8   9
ATOM      9  C   UNL     1      48.694   6.979  18.597  0.00  0.00    +0.000 C 
BRANCH   9  10
ATOM     10  C   UNL     1      48.592   5.532  18.172  0.00  0.00    +0.000 A 
ATOM     11  C   UNL     1      47.378   4.972  17.783  0.00  0.00    +0.000 A 
ATOM     12  C   UNL     1      47.339   3.627  17.421  0.00  0.00    +0.000 A 
ATOM     13  C   UNL     1      48.507   2.874  17.474  0.00  0.00    +0.000 A 
ATOM     14  C   UNL     1      49.669   3.499  17.889  0.00  0.00    +0.000 A 
ATOM     15  N   UNL     1      49.734   4.800  18.245  0.00  0.00    +0.000 NA
ENDBRANCH   9  10
ENDBRANCH   8   9
ENDBRANCH   5   8
ENDBRANCH   1   2
BRANCH   1  16
ATOM     16  N   UNL     1      47.028   6.792  12.032  0.00  0.00    +0.000 N 
ATOM     17  C   UNL     1      45.660   6.823  12.103  0.00  0.00    +0.000 C 
ATOM     18  O   UNL     1      45.026   7.853  12.300  0.00  0.00    +0.000 OA
ATOM     19  H   UNL     1      47.473   5.888  12.159  0.00  0.00    +0.000 HD
BRANCH  17  20
ATOM     20  C   UNL     1      44.975   5.542  11.866  0.00  0.00    +0.000 A 
ATOM     21  C   UNL     1      44.227   4.962  12.883  0.00  0.00    +0.000 A 
ATOM     22  S   UNL     1      43.510   3.479  12.440  0.00  0.00    +0.000 S 
ATOM     23  C   UNL     1      44.209   3.540  10.890  0.00  0.00    +0.000 A 
ATOM     24  N   UNL     1      44.028   2.527  10.000  0.00  0.00    +0.000 NA
ATOM     25  C   UNL     1      44.644   2.690   8.873  0.00  0.00    +0.000 A 
ATOM     26  N   UNL     1      45.406   3.786   8.549  0.00  0.00    +0.000 N 
ATOM     27  C   UNL     1      45.569   4.852   9.399  0.00  0.00    +0.000 A 
ATOM     28  O   UNL     1      46.174   5.858   9.048  0.00  0.00    +0.000 OA
ATOM     29  C   UNL     1      44.940   4.699  10.697  0.00  0.00    +0.000 A 
ATOM     30  H   UNL     1      45.837   3.866   7.641  0.00  0.00    +0.000 HD
ENDBRANCH  17  20
ENDBRANCH   1  16
BRANCH   1  31
ATOM     31  C   UNL     1      49.103   8.057  11.350  0.00  0.00    +0.000 C 
BRANCH  31  32
ATOM     32  N   UNL     1      49.769   9.370  11.349  0.00  0.00    +0.000 NA
ATOM     33  H   UNL     1      50.722   9.249  11.685  0.00  0.00    +0.000 HD
ATOM     34  H   UNL     1      49.312   9.981  12.027  0.00  0.00    +0.000 HD
ENDBRANCH  31  32
ENDBRANCH   1  31
TORSDOF 8
ENDMDL
