MODEL 1
REMARK VINA RESULT:    -8.217      0.000      0.000
REMARK INTER + INTRA:         -12.561
REMARK INTER:                 -11.580
REMARK INTRA:                  -0.981
REMARK UNBOUND:                -0.981
REMARK  Name = 
REMARK  8 active torsions:
REMARK  status: ('A' for Active; 'I' for Inactive)
REMARK    1  A    between atoms: C_1  and  O_2
REMARK    2  A    between atoms: O_2  and  C_3
REMARK    3  A    between atoms: C_3  and  C_4
REMARK    4  A    between atoms: C_4  and  N_5
REMARK    5  A    between atoms: C_4  and  C_18
REMARK    6  A    between atoms: C_6  and  C_8
REMARK    7  A    between atoms: C_21  and  C_22
REMARK    8  A    between atoms: C_22  and  C_23
REMARK                            x       y       z     vdW  Elec       q    Type
REMARK                         _______ _______ _______ _____ _____    ______ ____
ROOT
ATOM      1  C   UNL     1      46.420   7.857  12.624  0.00  0.00    +0.000 C 
ENDROOT
BRANCH   1   2
ATOM      2  C   UNL     1      45.950   6.664  11.804  0.00  0.00    +0.000 A 
ATOM      3  C   UNL     1      45.021   5.763  12.331  0.00  0.00    +0.000 A 
ATOM      4  C   UNL     1      44.568   4.684  11.566  0.00  0.00    +0.000 A 
ATOM      5  C   UNL     1      45.007   4.500  10.247  0.00  0.00    +0.000 A 
ATOM      6  C   UNL     1      45.937   5.399   9.718  0.00  0.00    +0.000 A 
ATOM      7  C   UNL     1      46.415   6.453  10.494  0.00  0.00    +0.000 A 
BRANCH   5   8
ATOM      8  C   UNL     1      44.488   3.361   9.401  0.00  0.00    +0.000 C 
BRANCH   8   9
ATOM      9  C   UNL     1      45.479   2.762   8.425  0.00  0.00    +0.000 A 
ATOM     10  C   UNL     1      45.850   3.445   7.267  0.00  0.00    +0.000 A 
ATOM     11  C   UNL     1      46.663   2.808   6.333  0.00  0.00    +0.000 A 
ATOM     12  C   UNL     1      47.089   1.511   6.574  0.00  0.00    +0.000 A 
ATOM     13  C   UNL     1      46.694   0.905   7.754  0.00  0.00    +0.000 A 
ATOM     14  N   UNL     1      45.902   1.495   8.678  0.00  0.00    +0.000 NA
ENDBRANCH   8   9
ENDBRANCH   5   8
ENDBRANCH   1   2
BRANCH   1  15
ATOM     15  N   UNL     1      47.009   7.390  13.870  0.00  0.00    +0.000 N 
ATOM     16  C   UNL     1      48.292   6.937  14.001  0.00  0.00    +0.000 C 
ATOM     17  O   UNL     1      49.116   6.984  13.092  0.00  0.00    +0.000 OA
ATOM     18  H   UNL     1      46.349   7.193  14.610  0.00  0.00    +0.000 HD
BRANCH  16  19
ATOM     19  C   UNL     1      48.644   6.431  15.337  0.00  0.00    +0.000 A 
ATOM     20  C   UNL     1      49.587   7.092  16.111  0.00  0.00    +0.000 A 
ATOM     21  S   UNL     1      49.842   6.374  17.638  0.00  0.00    +0.000 S 
ATOM     22  C   UNL     1      48.738   5.125  17.301  0.00  0.00    +0.000 A 
ATOM     23  N   UNL     1      48.501   4.132  18.201  0.00  0.00    +0.000 NA
ATOM     24  C   UNL     1      47.679   3.223  17.792  0.00  0.00    +0.000 A 
ATOM     25  N   UNL     1      47.065   3.222  16.569  0.00  0.00    +0.000 N 
ATOM     26  C   UNL     1      47.193   4.257  15.679  0.00  0.00    +0.000 A 
ATOM     27  O   UNL     1      46.476   4.314  14.686  0.00  0.00    +0.000 OA
ATOM     28  C   UNL     1      48.158   5.271  16.054  0.00  0.00    +0.000 A 
ATOM     29  H   UNL     1      46.394   2.509  16.325  0.00  0.00    +0.000 HD
ENDBRANCH  16  19
ENDBRANCH   1  15
BRANCH   1  30
ATOM     30  C   UNL     1      45.238   8.815  12.913  0.00  0.00    +0.000 C 
BRANCH  30  32
ATOM     31  C   UNL     1      44.766  10.667  11.529  0.00  0.00    +0.000 C 
ATOM     32  O   UNL     1      44.633   9.261  11.691  0.00  0.00    +0.000 OA
ENDBRANCH  30  32
ENDBRANCH   1  30
TORSDOF 7
ENDMDL
MODEL 2
REMARK VINA RESULT:    -7.743      1.655      2.382
REMARK INTER + INTRA:         -11.893
REMARK INTER:                 -10.897
REMARK INTRA:                  -0.996
REMARK UNBOUND:                -0.981
REMARK  Name = 
REMARK  8 active torsions:
REMARK  status: ('A' for Active; 'I' for Inactive)
REMARK    1  A    between atoms: C_1  and  O_2
REMARK    2  A    between atoms: O_2  and  C_3
REMARK    3  A    between atoms: C_3  and  C_4
REMARK    4  A    between atoms: C_4  and  N_5
REMARK    5  A    between atoms: C_4  and  C_18
REMARK    6  A    between atoms: C_6  and  C_8
REMARK    7  A    between atoms: C_21  and  C_22
REMARK    8  A    between atoms: C_22  and  C_23
REMARK                            x       y       z     vdW  Elec       q    Type
REMARK                         _______ _______ _______ _____ _____    ______ ____
ROOT
ATOM      1  C   UNL     1      46.928   7.025  13.050  0.00  0.00    +0.000 C 
ENDROOT
BRANCH   1   2
ATOM      2  C   UNL     1      46.288   6.070  12.052  0.00  0.00    +0.000 A 
ATOM      3  C   UNL     1      46.275   6.374  10.688  0.00  0.00    +0.000 A 
ATOM      4  C   UNL     1      45.712   5.483   9.769  0.00  0.00    +0.000 A 
ATOM      5  C   UNL     1      45.181   4.255  10.188  0.00  0.00    +0.000 A 
ATOM      6  C   UNL     1      45.191   3.949  11.552  0.00  0.00    +0.000 A 
ATOM      7  C   UNL     1      45.719   4.855  12.470  0.00  0.00    +0.000 A 
BRANCH   5   8
ATOM      8  C   UNL     1      44.611   3.269   9.195  0.00  0.00    +0.000 C 
BRANCH   8   9
ATOM      9  C   UNL     1      45.606   2.657   8.232  0.00  0.00    +0.000 A 
ATOM     10  C   UNL     1      45.983   3.325   7.067  0.00  0.00    +0.000 A 
ATOM     11  C   UNL     1      46.800   2.677   6.145  0.00  0.00    +0.000 A 
ATOM     12  C   UNL     1      47.224   1.382   6.404  0.00  0.00    +0.000 A 
ATOM     13  C   UNL     1      46.823   0.791   7.589  0.00  0.00    +0.000 A 
ATOM     14  N   UNL     1      46.027   1.393   8.502  0.00  0.00    +0.000 NA
ENDBRANCH   8   9
ENDBRANCH   5   8
ENDBRANCH   1   2
BRANCH   1  15
ATOM     15  N   UNL     1      47.070   6.359  14.338  0.00  0.00    +0.000 N 
ATOM     16  C   UNL     1      48.264   6.090  14.945  0.00  0.00    +0.000 C 
ATOM     17  O   UNL     1      49.343   6.486  14.511  0.00  0.00    +0.000 OA
ATOM     18  H   UNL     1      46.241   5.888  14.671  0.00  0.00    +0.000 HD
BRANCH  16  19
ATOM     19  C   UNL     1      48.170   5.330  16.201  0.00  0.00    +0.000 A 
ATOM     20  C   UNL     1      47.698   4.025  16.197  0.00  0.00    +0.000 A 
ATOM     21  S   UNL     1      47.688   3.298  17.742  0.00  0.00    +0.000 S 
ATOM     22  C   UNL     1      48.265   4.719  18.480  0.00  0.00    +0.000 A 
ATOM     23  N   UNL     1      48.457   4.786  19.825  0.00  0.00    +0.000 NA
ATOM     24  C   UNL     1      48.848   5.941  20.253  0.00  0.00    +0.000 A 
ATOM     25  N   UNL     1      49.075   7.031  19.457  0.00  0.00    +0.000 N 
ATOM     26  C   UNL     1      48.998   6.973  18.089  0.00  0.00    +0.000 A 
ATOM     27  O   UNL     1      49.398   7.908  17.404  0.00  0.00    +0.000 OA
ATOM     28  C   UNL     1      48.494   5.723  17.556  0.00  0.00    +0.000 A 
ATOM     29  H   UNL     1      49.428   7.893  19.844  0.00  0.00    +0.000 HD
ENDBRANCH  16  19
ENDBRANCH   1  15
BRANCH   1  30
ATOM     30  C   UNL     1      46.073   8.308  13.198  0.00  0.00    +0.000 C 
BRANCH  30  32
ATOM     31  C   UNL     1      47.834   9.769  12.621  0.00  0.00    +0.000 C 
ATOM     32  O   UNL     1      46.523   9.326  12.294  0.00  0.00    +0.000 OA
ENDBRANCH  30  32
ENDBRANCH   1  30
TORSDOF 7
ENDMDL
MODEL 3
REMARK VINA RESULT:    -7.695      2.623      4.320
REMARK INTER + INTRA:         -11.825
REMARK INTER:                 -10.671
REMARK INTRA:                  -1.154
REMARK UNBOUND:                -0.981
REMARK  Name = 
REMARK  8 active torsions:
REMARK  status: ('A' for Active; 'I' for Inactive)
REMARK    1  A    between atoms: C_1  and  O_2
REMARK    2  A    between atoms: O_2  and  C_3
REMARK    3  A    between atoms: C_3  and  C_4
REMARK    4  A    between atoms: C_4  and  N_5
REMARK    5  A    between atoms: C_4  and  C_18
REMARK    6  A    between atoms: C_6  and  C_8
REMARK    7  A    between atoms: C_21  and  C_22
REMARK    8  A    between atoms: C_22  and  C_23
REMARK                            x       y       z     vdW  Elec       q    Type
REMARK                         _______ _______ _______ _____ _____    ______ ____
ROOT
ATOM      1  C   UNL     1      46.485   5.615  13.659  0.00  0.00    +0.000 C 
ENDROOT
BRANCH   1   2
ATOM      2  C   UNL     1      45.942   5.115  12.328  0.00  0.00    +0.000 A 
ATOM      3  C   UNL     1      46.079   5.887  11.171  0.00  0.00    +0.000 A 
ATOM      4  C   UNL     1      45.606   5.414   9.943  0.00  0.00    +0.000 A 
ATOM      5  C   UNL     1      45.017   4.146   9.837  0.00  0.00    +0.000 A 
ATOM      6  C   UNL     1      44.879   3.372  10.992  0.00  0.00    +0.000 A 
ATOM      7  C   UNL     1      45.317   3.860  12.222  0.00  0.00    +0.000 A 
BRANCH   5   8
ATOM      8  C   UNL     1      44.545   3.611   8.506  0.00  0.00    +0.000 C 
BRANCH   8   9
ATOM      9  C   UNL     1      45.598   2.927   7.660  0.00  0.00    +0.000 A 
ATOM     10  C   UNL     1      46.165   1.717   8.059  0.00  0.00    +0.000 A 
ATOM     11  C   UNL     1      47.219   1.184   7.322  0.00  0.00    +0.000 A 
ATOM     12  C   UNL     1      47.683   1.866   6.207  0.00  0.00    +0.000 A 
ATOM     13  C   UNL     1      47.058   3.052   5.864  0.00  0.00    +0.000 A 
ATOM     14  N   UNL     1      46.035   3.597   6.561  0.00  0.00    +0.000 NA
ENDBRANCH   8   9
ENDBRANCH   5   8
ENDBRANCH   1   2
BRANCH   1  15
ATOM     15  N   UNL     1      47.711   6.366  13.434  0.00  0.00    +0.000 N 
ATOM     16  C   UNL     1      47.793   7.729  13.408  0.00  0.00    +0.000 C 
ATOM     17  O   UNL     1      46.849   8.464  13.686  0.00  0.00    +0.000 OA
ATOM     18  H   UNL     1      48.482   5.828  13.062  0.00  0.00    +0.000 HD
BRANCH  16  19
ATOM     19  C   UNL     1      49.120   8.270  13.076  0.00  0.00    +0.000 A 
ATOM     20  C   UNL     1      49.298   9.037  11.933  0.00  0.00    +0.000 A 
ATOM     21  S   UNL     1      50.898   9.599  11.730  0.00  0.00    +0.000 S 
ATOM     22  C   UNL     1      51.422   8.795  13.134  0.00  0.00    +0.000 A 
ATOM     23  N   UNL     1      52.723   8.842  13.529  0.00  0.00    +0.000 NA
ATOM     24  C   UNL     1      52.988   8.144  14.584  0.00  0.00    +0.000 A 
ATOM     25  N   UNL     1      52.068   7.412  15.285  0.00  0.00    +0.000 N 
ATOM     26  C   UNL     1      50.731   7.426  14.984  0.00  0.00    +0.000 A 
ATOM     27  O   UNL     1      49.917   6.921  15.749  0.00  0.00    +0.000 OA
ATOM     28  C   UNL     1      50.384   8.135  13.768  0.00  0.00    +0.000 A 
ATOM     29  H   UNL     1      52.327   6.926  16.131  0.00  0.00    +0.000 HD
ENDBRANCH  16  19
ENDBRANCH   1  15
BRANCH   1  30
ATOM     30  C   UNL     1      46.748   4.426  14.617  0.00  0.00    +0.000 C 
BRANCH  30  32
ATOM     31  C   UNL     1      47.527   4.475  16.844  0.00  0.00    +0.000 C 
ATOM     32  O   UNL     1      47.859   4.705  15.481  0.00  0.00    +0.000 OA
ENDBRANCH  30  32
ENDBRANCH   1  30
TORSDOF 7
ENDMDL
MODEL 4
REMARK VINA RESULT:    -7.425      2.515      4.786
REMARK INTER + INTRA:         -11.444
REMARK INTER:                 -10.116
REMARK INTRA:                  -1.329
REMARK UNBOUND:                -0.981
REMARK  Name = 
REMARK  8 active torsions:
REMARK  status: ('A' for Active; 'I' for Inactive)
REMARK    1  A    between atoms: C_1  and  O_2
REMARK    2  A    between atoms: O_2  and  C_3
REMARK    3  A    between atoms: C_3  and  C_4
REMARK    4  A    between atoms: C_4  and  N_5
REMARK    5  A    between atoms: C_4  and  C_18
REMARK    6  A    between atoms: C_6  and  C_8
REMARK    7  A    between atoms: C_21  and  C_22
REMARK    8  A    between atoms: C_22  and  C_23
REMARK                            x       y       z     vdW  Elec       q    Type
REMARK                         _______ _______ _______ _____ _____    ______ ____
ROOT
ATOM      1  C   UNL     1      47.091   5.351  14.504  0.00  0.00    +0.000 C 
ENDROOT
BRANCH   1   2
ATOM      2  C   UNL     1      46.348   4.933  13.244  0.00  0.00    +0.000 A 
ATOM      3  C   UNL     1      46.170   5.835  12.191  0.00  0.00    +0.000 A 
ATOM      4  C   UNL     1      45.512   5.441  11.023  0.00  0.00    +0.000 A 
ATOM      5  C   UNL     1      45.047   4.127  10.865  0.00  0.00    +0.000 A 
ATOM      6  C   UNL     1      45.222   3.223  11.916  0.00  0.00    +0.000 A 
ATOM      7  C   UNL     1      45.845   3.628  13.095  0.00  0.00    +0.000 A 
BRANCH   5   8
ATOM      8  C   UNL     1      44.375   3.683   9.587  0.00  0.00    +0.000 C 
BRANCH   8   9
ATOM      9  C   UNL     1      45.292   3.114   8.525  0.00  0.00    +0.000 A 
ATOM     10  C   UNL     1      45.738   1.795   8.593  0.00  0.00    +0.000 A 
ATOM     11  C   UNL     1      46.680   1.347   7.671  0.00  0.00    +0.000 A 
ATOM     12  C   UNL     1      47.152   2.220   6.702  0.00  0.00    +0.000 A 
ATOM     13  C   UNL     1      46.648   3.509   6.687  0.00  0.00    +0.000 A 
ATOM     14  N   UNL     1      45.737   3.974   7.572  0.00  0.00    +0.000 NA
ENDBRANCH   8   9
ENDBRANCH   5   8
ENDBRANCH   1   2
BRANCH   1  15
ATOM     15  N   UNL     1      48.263   6.135  14.140  0.00  0.00    +0.000 N 
ATOM     16  C   UNL     1      48.825   7.102  14.924  0.00  0.00    +0.000 C 
ATOM     17  O   UNL     1      48.459   7.331  16.074  0.00  0.00    +0.000 OA
ATOM     18  H   UNL     1      48.519   6.095  13.163  0.00  0.00    +0.000 HD
BRANCH  16  19
ATOM     19  C   UNL     1      49.952   7.826  14.315  0.00  0.00    +0.000 A 
ATOM     20  C   UNL     1      51.218   7.755  14.878  0.00  0.00    +0.000 A 
ATOM     21  S   UNL     1      52.399   8.636  14.016  0.00  0.00    +0.000 S 
ATOM     22  C   UNL     1      51.251   9.187  12.888  0.00  0.00    +0.000 A 
ATOM     23  N   UNL     1      51.603  10.025  11.875  0.00  0.00    +0.000 NA
ATOM     24  C   UNL     1      50.621  10.402  11.126  0.00  0.00    +0.000 A 
ATOM     25  N   UNL     1      49.320  10.009  11.291  0.00  0.00    +0.000 N 
ATOM     26  C   UNL     1      48.943   9.084  12.229  0.00  0.00    +0.000 A 
ATOM     27  O   UNL     1      47.811   8.611  12.216  0.00  0.00    +0.000 OA
ATOM     28  C   UNL     1      49.990   8.678  13.145  0.00  0.00    +0.000 A 
ATOM     29  H   UNL     1      48.603  10.299  10.642  0.00  0.00    +0.000 HD
ENDBRANCH  16  19
ENDBRANCH   1  15
BRANCH   1  30
ATOM     30  C   UNL     1      47.509   4.106  15.325  0.00  0.00    +0.000 C 
BRANCH  30  32
ATOM     31  C   UNL     1      47.328   4.389  17.660  0.00  0.00    +0.000 C 
ATOM     32  O   UNL     1      46.671   3.952  16.478  0.00  0.00    +0.000 OA
ENDBRANCH  30  32
ENDBRANCH   1  30
TORSDOF 7
ENDMDL
MODEL 5
REMARK VINA RESULT:    -7.395      2.282      3.027
REMARK INTER + INTRA:         -11.403
REMARK INTER:                 -10.254
REMARK INTRA:                  -1.149
REMARK UNBOUND:                -0.981
REMARK  Name = 
REMARK  8 active torsions:
REMARK  status: ('A' for Active; 'I' for Inactive)
REMARK    1  A    between atoms: C_1  and  O_2
REMARK    2  A    between atoms: O_2  and  C_3
REMARK    3  A    between atoms: C_3  and  C_4
REMARK    4  A    between atoms: C_4  and  N_5
REMARK    5  A    between atoms: C_4  and  C_18
REMARK    6  A    between atoms: C_6  and  C_8
REMARK    7  A    between atoms: C_21  and  C_22
REMARK    8  A    between atoms: C_22  and  C_23
REMARK                            x       y       z     vdW  Elec       q    Type
REMARK                         _______ _______ _______ _____ _____    ______ ____
ROOT
ATOM      1  C   UNL     1      47.982   7.394  13.873  0.00  0.00    +0.000 C 
ENDROOT
BRANCH   1   2
ATOM      2  C   UNL     1      47.094   6.586  12.938  0.00  0.00    +0.000 A 
ATOM      3  C   UNL     1      46.475   5.415  13.384  0.00  0.00    +0.000 A 
ATOM      4  C   UNL     1      45.636   4.688  12.533  0.00  0.00    +0.000 A 
ATOM      5  C   UNL     1      45.371   5.133  11.230  0.00  0.00    +0.000 A 
ATOM      6  C   UNL     1      45.989   6.303  10.781  0.00  0.00    +0.000 A 
ATOM      7  C   UNL     1      46.854   7.006  11.618  0.00  0.00    +0.000 A 
BRANCH   5   8
ATOM      8  C   UNL     1      44.431   4.376  10.321  0.00  0.00    +0.000 C 
BRANCH   8   9
ATOM      9  C   UNL     1      45.085   3.597   9.199  0.00  0.00    +0.000 A 
ATOM     10  C   UNL     1      45.259   2.216   9.290  0.00  0.00    +0.000 A 
ATOM     11  C   UNL     1      45.978   1.555   8.298  0.00  0.00    +0.000 A 
ATOM     12  C   UNL     1      46.504   2.281   7.240  0.00  0.00    +0.000 A 
ATOM     13  C   UNL     1      46.275   3.646   7.210  0.00  0.00    +0.000 A 
ATOM     14  N   UNL     1      45.585   4.317   8.160  0.00  0.00    +0.000 NA
ENDBRANCH   8   9
ENDBRANCH   5   8
ENDBRANCH   1   2
BRANCH   1  15
ATOM     15  N   UNL     1      47.973   6.789  15.197  0.00  0.00    +0.000 N 
ATOM     16  C   UNL     1      49.090   6.395  15.878  0.00  0.00    +0.000 C 
ATOM     17  O   UNL     1      50.231   6.617  15.482  0.00  0.00    +0.000 OA
ATOM     18  H   UNL     1      47.072   6.453  15.510  0.00  0.00    +0.000 HD
BRANCH  16  19
ATOM     19  C   UNL     1      48.835   5.726  17.164  0.00  0.00    +0.000 A 
ATOM     20  C   UNL     1      49.028   4.358  17.293  0.00  0.00    +0.000 A 
ATOM     21  S   UNL     1      48.709   3.769  18.863  0.00  0.00    +0.000 S 
ATOM     22  C   UNL     1      48.253   5.312  19.414  0.00  0.00    +0.000 A 
ATOM     23  N   UNL     1      47.832   5.507  20.693  0.00  0.00    +0.000 NA
ATOM     24  C   UNL     1      47.469   6.718  20.959  0.00  0.00    +0.000 A 
ATOM     25  N   UNL     1      47.499   7.754  20.064  0.00  0.00    +0.000 N 
ATOM     26  C   UNL     1      48.017   7.623  18.802  0.00  0.00    +0.000 A 
ATOM     27  O   UNL     1      48.209   8.612  18.103  0.00  0.00    +0.000 OA
ATOM     28  C   UNL     1      48.374   6.270  18.424  0.00  0.00    +0.000 A 
ATOM     29  H   UNL     1      47.249   8.691  20.345  0.00  0.00    +0.000 HD
ENDBRANCH  16  19
ENDBRANCH   1  15
BRANCH   1  30
ATOM     30  C   UNL     1      47.494   8.862  13.948  0.00  0.00    +0.000 C 
BRANCH  30  32
ATOM     31  C   UNL     1      49.085  10.248  15.005  0.00  0.00    +0.000 C 
ATOM     32  O   UNL     1      48.587   9.772  13.761  0.00  0.00    +0.000 OA
ENDBRANCH  30  32
ENDBRANCH   1  30
TORSDOF 7
ENDMDL
MODEL 6
REMARK VINA RESULT:    -6.994      3.121      7.770
REMARK INTER + INTRA:         -10.837
REMARK INTER:                  -9.478
REMARK INTRA:                  -1.359
REMARK UNBOUND:                -0.981
REMARK  Name = 
REMARK  8 active torsions:
REMARK  status: ('A' for Active; 'I' for Inactive)
REMARK    1  A    between atoms: C_1  and  O_2
REMARK    2  A    between atoms: O_2  and  C_3
REMARK    3  A    between atoms: C_3  and  C_4
REMARK    4  A    between atoms: C_4  and  N_5
REMARK    5  A    between atoms: C_4  and  C_18
REMARK    6  A    between atoms: C_6  and  C_8
REMARK    7  A    between atoms: C_21  and  C_22
REMARK    8  A    between atoms: C_22  and  C_23
REMARK                            x       y       z     vdW  Elec       q    Type
REMARK                         _______ _______ _______ _____ _____    ______ ____
ROOT
ATOM      1  C   UNL     1      48.016   7.472  13.596  0.00  0.00    +0.000 C 
ENDROOT
BRANCH   1   2
ATOM      2  C   UNL     1      48.544   6.693  14.793  0.00  0.00    +0.000 A 
ATOM      3  C   UNL     1      49.741   7.066  15.410  0.00  0.00    +0.000 A 
ATOM      4  C   UNL     1      50.211   6.368  16.526  0.00  0.00    +0.000 A 
ATOM      5  C   UNL     1      49.479   5.303  17.072  0.00  0.00    +0.000 A 
ATOM      6  C   UNL     1      48.282   4.928  16.456  0.00  0.00    +0.000 A 
ATOM      7  C   UNL     1      47.834   5.601  15.321  0.00  0.00    +0.000 A 
BRANCH   5   8
ATOM      8  C   UNL     1      49.959   4.573  18.304  0.00  0.00    +0.000 C 
BRANCH   8   9
ATOM      9  C   UNL     1      51.003   3.502  18.069  0.00  0.00    +0.000 A 
ATOM     10  C   UNL     1      50.674   2.306  17.433  0.00  0.00    +0.000 A 
ATOM     11  C   UNL     1      51.628   1.295  17.349  0.00  0.00    +0.000 A 
ATOM     12  C   UNL     1      52.886   1.500  17.898  0.00  0.00    +0.000 A 
ATOM     13  C   UNL     1      53.143   2.721  18.498  0.00  0.00    +0.000 A 
ATOM     14  N   UNL     1      52.236   3.719  18.598  0.00  0.00    +0.000 NA
ENDBRANCH   8   9
ENDBRANCH   5   8
ENDBRANCH   1   2
BRANCH   1  15
ATOM     15  N   UNL     1      47.332   6.563  12.688  0.00  0.00    +0.000 N 
ATOM     16  C   UNL     1      46.286   6.913  11.881  0.00  0.00    +0.000 C 
ATOM     17  O   UNL     1      45.888   8.069  11.761  0.00  0.00    +0.000 OA
ATOM     18  H   UNL     1      47.515   5.582  12.844  0.00  0.00    +0.000 HD
BRANCH  16  19
ATOM     19  C   UNL     1      45.693   5.809  11.111  0.00  0.00    +0.000 A 
ATOM     20  C   UNL     1      45.858   5.746   9.734  0.00  0.00    +0.000 A 
ATOM     21  S   UNL     1      45.124   4.381   9.020  0.00  0.00    +0.000 S 
ATOM     22  C   UNL     1      44.514   3.851  10.517  0.00  0.00    +0.000 A 
ATOM     23  N   UNL     1      43.753   2.727  10.610  0.00  0.00    +0.000 NA
ATOM     24  C   UNL     1      43.316   2.473  11.799  0.00  0.00    +0.000 A 
ATOM     25  N   UNL     1      43.580   3.235  12.905  0.00  0.00    +0.000 N 
ATOM     26  C   UNL     1      44.430   4.310  12.874  0.00  0.00    +0.000 A 
ATOM     27  O   UNL     1      44.796   4.844  13.915  0.00  0.00    +0.000 OA
ATOM     28  C   UNL     1      44.894   4.686  11.553  0.00  0.00    +0.000 A 
ATOM     29  H   UNL     1      43.251   2.958  13.818  0.00  0.00    +0.000 HD
ENDBRANCH  16  19
ENDBRANCH   1  15
BRANCH   1  30
ATOM     30  C   UNL     1      49.175   8.194  12.866  0.00  0.00    +0.000 C 
BRANCH  30  32
ATOM     31  C   UNL     1      50.892   7.956  11.266  0.00  0.00    +0.000 C 
ATOM     32  O   UNL     1      49.783   7.329  11.897  0.00  0.00    +0.000 OA
ENDBRANCH  30  32
ENDBRANCH   1  30
TORSDOF 7
ENDMDL
MODEL 7
REMARK VINA RESULT:    -6.469      2.653      3.866
REMARK INTER + INTRA:         -10.098
REMARK INTER:                  -8.462
REMARK INTRA:                  -1.636
REMARK UNBOUND:                -0.981
REMARK  Name = 
REMARK  8 active torsions:
REMARK  status: ('A' for Active; 'I' for Inactive)
REMARK    1  A    between atoms: C_1  and  O_2
REMARK    2  A    between atoms: O_2  and  C_3
REMARK    3  A    between atoms: C_3  and  C_4
REMARK    4  A    between atoms: C_4  and  N_5
REMARK    5  A    between atoms: C_4  and  C_18
REMARK    6  A    between atoms: C_6  and  C_8
REMARK    7  A    between atoms: C_21  and  C_22
REMARK    8  A    between atoms: C_22  and  C_23
REMARK                            x       y       z     vdW  Elec       q    Type
REMARK                         _______ _______ _______ _____ _____    ______ ____
ROOT
ATOM      1  C   UNL     1      49.160   8.532  14.370  0.00  0.00    +0.000 C 
ENDROOT
BRANCH   1   2
ATOM      2  C   UNL     1      47.994   8.157  13.467  0.00  0.00    +0.000 A 
ATOM      3  C   UNL     1      48.135   7.152  12.506  0.00  0.00    +0.000 A 
ATOM      4  C   UNL     1      47.055   6.788  11.697  0.00  0.00    +0.000 A 
ATOM      5  C   UNL     1      45.800   7.395  11.852  0.00  0.00    +0.000 A 
ATOM      6  C   UNL     1      45.656   8.401  12.811  0.00  0.00    +0.000 A 
ATOM      7  C   UNL     1      46.744   8.789  13.592  0.00  0.00    +0.000 A 
BRANCH   5   8
ATOM      8  C   UNL     1      44.618   6.975  11.011  0.00  0.00    +0.000 C 
BRANCH   8   9
ATOM      9  C   UNL     1      44.105   5.571  11.251  0.00  0.00    +0.000 A 
ATOM     10  C   UNL     1      43.684   5.167  12.518  0.00  0.00    +0.000 A 
ATOM     11  C   UNL     1      43.341   3.834  12.728  0.00  0.00    +0.000 A 
ATOM     12  C   UNL     1      43.423   2.937  11.673  0.00  0.00    +0.000 A 
ATOM     13  C   UNL     1      43.832   3.416  10.441  0.00  0.00    +0.000 A 
ATOM     14  N   UNL     1      44.175   4.703  10.208  0.00  0.00    +0.000 NA
ENDBRANCH   8   9
ENDBRANCH   5   8
ENDBRANCH   1   2
BRANCH   1  15
ATOM     15  N   UNL     1      49.221   7.611  15.495  0.00  0.00    +0.000 N 
ATOM     16  C   UNL     1      50.333   6.910  15.866  0.00  0.00    +0.000 C 
ATOM     17  O   UNL     1      51.435   7.075  15.348  0.00  0.00    +0.000 OA
ATOM     18  H   UNL     1      48.324   7.327  15.866  0.00  0.00    +0.000 HD
BRANCH  16  19
ATOM     19  C   UNL     1      50.138   5.970  16.981  0.00  0.00    +0.000 A 
ATOM     20  C   UNL     1      50.968   6.019  18.092  0.00  0.00    +0.000 A 
ATOM     21  S   UNL     1      50.571   4.871  19.292  0.00  0.00    +0.000 S 
ATOM     22  C   UNL     1      49.308   4.234  18.348  0.00  0.00    +0.000 A 
ATOM     23  N   UNL     1      48.560   3.184  18.786  0.00  0.00    +0.000 NA
ATOM     24  C   UNL     1      47.671   2.771  17.945  0.00  0.00    +0.000 A 
ATOM     25  N   UNL     1      47.453   3.320  16.710  0.00  0.00    +0.000 N 
ATOM     26  C   UNL     1      48.109   4.443  16.276  0.00  0.00    +0.000 A 
ATOM     27  O   UNL     1      47.748   5.017  15.254  0.00  0.00    +0.000 OA
ATOM     28  C   UNL     1      49.169   4.909  17.148  0.00  0.00    +0.000 A 
ATOM     29  H   UNL     1      46.709   2.985  16.116  0.00  0.00    +0.000 HD
ENDBRANCH  16  19
ENDBRANCH   1  15
BRANCH   1  30
ATOM     30  C   UNL     1      49.008   9.989  14.873  0.00  0.00    +0.000 C 
BRANCH  30  32
ATOM     31  C   UNL     1      49.261  11.137  16.919  0.00  0.00    +0.000 C 
ATOM     32  O   UNL     1      48.680  10.013  16.269  0.00  0.00    +0.000 OA
ENDBRANCH  30  32
ENDBRANCH   1  30
TORSDOF 7
ENDMDL
