MODEL 1
REMARK VINA RESULT:    -8.220      0.000      0.000
REMARK INTER + INTRA:         -12.105
REMARK INTER:                 -11.344
REMARK INTRA:                  -0.761
REMARK UNBOUND:                -0.761
REMARK  Name = 
REMARK  8 active torsions:
REMARK  status: ('A' for Active; 'I' for Inactive)
REMARK    1  A    between atoms: C_1  and  C_2
REMARK    2  A    between atoms: C_2  and  C_3
REMARK    3  A    between atoms: C_5  and  C_6
REMARK    4  A    between atoms: C_11  and  N_12
REMARK    5  A    between atoms: N_12  and  C_13
REMARK    6  A    between atoms: C_13  and  C_14
REMARK    7  A    between atoms: C_17  and  C_18
REMARK    8  A    between atoms: C_18  and  N_19
REMARK                            x       y       z     vdW  Elec       q    Type
REMARK                         _______ _______ _______ _____ _____    ______ ____
ROOT
ATOM      1  C   UNL     1      46.487   6.013  12.107  0.00  0.00    +0.000 A 
ATOM      2  C   UNL     1      47.149   5.509  13.248  0.00  0.00    +0.000 A 
ATOM      3  C   UNL     1      46.536   4.560  14.048  0.00  0.00    +0.000 A 
ATOM      4  N   UNL     1      45.303   4.063  13.803  0.00  0.00    +0.000 NA
ATOM      5  C   UNL     1      44.697   4.541  12.686  0.00  0.00    +0.000 A 
ATOM      6  C   UNL     1      45.201   5.512  11.789  0.00  0.00    +0.000 A 
ENDROOT
BRANCH   3   7
ATOM      7  C   UNL     1      47.258   4.040  15.258  0.00  0.00    +0.000 C 
ATOM      8  N   UNL     1      47.240   4.863  16.349  0.00  0.00    +0.000 N 
ATOM      9  O   UNL     1      47.825   2.957  15.279  0.00  0.00    +0.000 OA
ATOM     10  H   UNL     1      46.747   5.747  16.296  0.00  0.00    +0.000 HD
ATOM     11  H   UNL     1      47.688   4.569  17.203  0.00  0.00    +0.000 HD
ENDBRANCH   3   7
BRANCH   1  13
ATOM     12  C   UNL     1      48.521   7.544  12.095  0.00  0.00    +0.000 C 
ATOM     13  C   UNL     1      47.259   7.089  11.374  0.00  0.00    +0.000 C 
ENDBRANCH   1  13
BRANCH   6  14
ATOM     14  N   UNL     1      44.430   5.757  10.637  0.00  0.00    +0.000 N 
ATOM     15  H   UNL     1      44.853   6.457  10.032  0.00  0.00    +0.000 HD
BRANCH  14  16
ATOM     16  C   UNL     1      43.798   4.690   9.894  0.00  0.00    +0.000 C 
BRANCH  16  17
ATOM     17  C   UNL     1      44.722   3.796   9.100  0.00  0.00    +0.000 A 
ATOM     18  C   UNL     1      45.609   4.442   8.220  0.00  0.00    +0.000 A 
ATOM     19  C   UNL     1      46.552   3.728   7.485  0.00  0.00    +0.000 A 
ATOM     20  C   UNL     1      46.641   2.341   7.614  0.00  0.00    +0.000 A 
ATOM     21  C   UNL     1      45.777   1.691   8.513  0.00  0.00    +0.000 A 
ATOM     22  C   UNL     1      44.830   2.411   9.259  0.00  0.00    +0.000 A 
BRANCH  20  23
ATOM     23  C   UNL     1      47.630   1.570   6.778  0.00  0.00    +0.000 C 
BRANCH  23  24
ATOM     24  N   UNL     1      48.624   2.439   6.160  0.00  0.00    +0.000 NA
ATOM     25  H   UNL     1      48.183   2.944   5.392  0.00  0.00    +0.000 HD
ATOM     26  H   UNL     1      49.351   1.862   5.743  0.00  0.00    +0.000 HD
ENDBRANCH  23  24
ENDBRANCH  20  23
ENDBRANCH  16  17
ENDBRANCH  14  16
ENDBRANCH   6  14
TORSDOF 7
ENDMDL
MODEL 2
REMARK VINA RESULT:    -7.753      1.765      2.680
REMARK INTER + INTRA:         -11.460
REMARK INTER:                 -10.988
REMARK INTRA:                  -0.471
REMARK UNBOUND:                -0.761
REMARK  Name = 
REMARK  8 active torsions:
REMARK  status: ('A' for Active; 'I' for Inactive)
REMARK    1  A    between atoms: C_1  and  C_2
REMARK    2  A    between atoms: C_2  and  C_3
REMARK    3  A    between atoms: C_5  and  C_6
REMARK    4  A    between atoms: C_11  and  N_12
REMARK    5  A    between atoms: N_12  and  C_13
REMARK    6  A    between atoms: C_13  and  C_14
REMARK    7  A    between atoms: C_17  and  C_18
REMARK    8  A    between atoms: C_18  and  N_19
REMARK                            x       y       z     vdW  Elec       q    Type
REMARK                         _______ _______ _______ _____ _____    ______ ____
ROOT
ATOM      1  C   UNL     1      45.148   5.251  12.144  0.00  0.00    +0.000 A 
ATOM      2  C   UNL     1      46.041   6.195  12.697  0.00  0.00    +0.000 A 
ATOM      3  C   UNL     1      47.130   5.774  13.440  0.00  0.00    +0.000 A 
ATOM      4  N   UNL     1      47.410   4.474  13.680  0.00  0.00    +0.000 NA
ATOM      5  C   UNL     1      46.555   3.582  13.116  0.00  0.00    +0.000 A 
ATOM      6  C   UNL     1      45.404   3.872  12.346  0.00  0.00    +0.000 A 
ENDROOT
BRANCH   3   7
ATOM      7  C   UNL     1      48.065   6.795  14.020  0.00  0.00    +0.000 C 
ATOM      8  N   UNL     1      47.495   7.996  14.340  0.00  0.00    +0.000 N 
ATOM      9  O   UNL     1      49.256   6.582  14.199  0.00  0.00    +0.000 OA
ATOM     10  H   UNL     1      46.501   8.129  14.190  0.00  0.00    +0.000 HD
ATOM     11  H   UNL     1      48.059   8.723  14.752  0.00  0.00    +0.000 HD
ENDBRANCH   3   7
BRANCH   1  13
ATOM     12  C   UNL     1      42.631   5.624  12.088  0.00  0.00    +0.000 C 
ATOM     13  C   UNL     1      43.974   5.869  11.416  0.00  0.00    +0.000 C 
ENDBRANCH   1  13
BRANCH   6  14
ATOM     14  N   UNL     1      44.743   2.770  11.773  0.00  0.00    +0.000 N 
ATOM     15  H   UNL     1      44.197   2.249  12.457  0.00  0.00    +0.000 HD
BRANCH  14  16
ATOM     16  C   UNL     1      44.087   2.849  10.486  0.00  0.00    +0.000 C 
BRANCH  16  17
ATOM     17  C   UNL     1      44.997   2.928   9.282  0.00  0.00    +0.000 A 
ATOM     18  C   UNL     1      45.535   1.710   8.828  0.00  0.00    +0.000 A 
ATOM     19  C   UNL     1      46.334   1.649   7.689  0.00  0.00    +0.000 A 
ATOM     20  C   UNL     1      46.612   2.808   6.962  0.00  0.00    +0.000 A 
ATOM     21  C   UNL     1      46.054   4.024   7.394  0.00  0.00    +0.000 A 
ATOM     22  C   UNL     1      45.245   4.086   8.539  0.00  0.00    +0.000 A 
BRANCH  20  23
ATOM     23  C   UNL     1      47.519   2.740   5.759  0.00  0.00    +0.000 C 
BRANCH  23  24
ATOM     24  N   UNL     1      48.464   1.635   5.843  0.00  0.00    +0.000 NA
ATOM     25  H   UNL     1      48.156   0.997   6.576  0.00  0.00    +0.000 HD
ATOM     26  H   UNL     1      49.367   1.996   6.140  0.00  0.00    +0.000 HD
ENDBRANCH  23  24
ENDBRANCH  20  23
ENDBRANCH  16  17
ENDBRANCH  14  16
ENDBRANCH   6  14
TORSDOF 7
ENDMDL
MODEL 3
REMARK VINA RESULT:    -7.660      2.361      3.085
REMARK INTER + INTRA:         -11.332
REMARK INTER:                 -10.899
REMARK INTRA:                  -0.433
REMARK UNBOUND:                -0.761
REMARK  Name = 
REMARK  8 active torsions:
REMARK  status: ('A' for Active; 'I' for Inactive)
REMARK    1  A    between atoms: C_1  and  C_2
REMARK    2  A    between atoms: C_2  and  C_3
REMARK    3  A    between atoms: C_5  and  C_6
REMARK    4  A    between atoms: C_11  and  N_12
REMARK    5  A    between atoms: N_12  and  C_13
REMARK    6  A    between atoms: C_13  and  C_14
REMARK    7  A    between atoms: C_17  and  C_18
REMARK    8  A    between atoms: C_18  and  N_19
REMARK                            x       y       z     vdW  Elec       q    Type
REMARK                         _______ _______ _______ _____ _____    ______ ____
ROOT
ATOM      1  C   UNL     1      46.118   4.868  12.933  0.00  0.00    +0.000 A 
ATOM      2  C   UNL     1      46.253   6.239  13.242  0.00  0.00    +0.000 A 
ATOM      3  C   UNL     1      45.476   7.181  12.589  0.00  0.00    +0.000 A 
ATOM      4  N   UNL     1      44.563   6.867  11.644  0.00  0.00    +0.000 NA
ATOM      5  C   UNL     1      44.430   5.542  11.383  0.00  0.00    +0.000 A 
ATOM      6  C   UNL     1      45.161   4.479  11.964  0.00  0.00    +0.000 A 
ENDROOT
BRANCH   3   7
ATOM      7  C   UNL     1      45.637   8.634  12.933  0.00  0.00    +0.000 C 
ATOM      8  N   UNL     1      46.538   8.904  13.925  0.00  0.00    +0.000 N 
ATOM      9  O   UNL     1      45.013   9.524  12.372  0.00  0.00    +0.000 OA
ATOM     10  H   UNL     1      47.046   8.140  14.356  0.00  0.00    +0.000 HD
ATOM     11  H   UNL     1      46.712   9.860  14.195  0.00  0.00    +0.000 HD
ENDBRANCH   3   7
BRANCH   1  13
ATOM     12  C   UNL     1      47.081   4.188  15.189  0.00  0.00    +0.000 C 
ATOM     13  C   UNL     1      47.082   3.973  13.682  0.00  0.00    +0.000 C 
ENDBRANCH   1  13
BRANCH   6  14
ATOM     14  N   UNL     1      44.758   3.178  11.610  0.00  0.00    +0.000 N 
ATOM     15  H   UNL     1      44.369   2.667  12.400  0.00  0.00    +0.000 HD
BRANCH  14  16
ATOM     16  C   UNL     1      44.064   2.897  10.373  0.00  0.00    +0.000 C 
BRANCH  16  17
ATOM     17  C   UNL     1      44.932   2.738   9.147  0.00  0.00    +0.000 A 
ATOM     18  C   UNL     1      45.147   3.898   8.382  0.00  0.00    +0.000 A 
ATOM     19  C   UNL     1      45.982   3.889   7.266  0.00  0.00    +0.000 A 
ATOM     20  C   UNL     1      46.635   2.715   6.887  0.00  0.00    +0.000 A 
ATOM     21  C   UNL     1      46.446   1.558   7.663  0.00  0.00    +0.000 A 
ATOM     22  C   UNL     1      45.609   1.568   8.790  0.00  0.00    +0.000 A 
BRANCH  20  23
ATOM     23  C   UNL     1      47.497   2.702   5.650  0.00  0.00    +0.000 C 
BRANCH  23  24
ATOM     24  N   UNL     1      48.549   1.697   5.723  0.00  0.00    +0.000 NA
ATOM     25  H   UNL     1      49.256   1.913   5.022  0.00  0.00    +0.000 HD
ATOM     26  H   UNL     1      48.159   0.792   5.467  0.00  0.00    +0.000 HD
ENDBRANCH  23  24
ENDBRANCH  20  23
ENDBRANCH  16  17
ENDBRANCH  14  16
ENDBRANCH   6  14
TORSDOF 7
ENDMDL
MODEL 4
REMARK VINA RESULT:    -7.444      1.494      2.382
REMARK INTER + INTRA:         -11.034
REMARK INTER:                 -10.511
REMARK INTRA:                  -0.523
REMARK UNBOUND:                -0.761
REMARK  Name = 
REMARK  8 active torsions:
REMARK  status: ('A' for Active; 'I' for Inactive)
REMARK    1  A    between atoms: C_1  and  C_2
REMARK    2  A    between atoms: C_2  and  C_3
REMARK    3  A    between atoms: C_5  and  C_6
REMARK    4  A    between atoms: C_11  and  N_12
REMARK    5  A    between atoms: N_12  and  C_13
REMARK    6  A    between atoms: C_13  and  C_14
REMARK    7  A    between atoms: C_17  and  C_18
REMARK    8  A    between atoms: C_18  and  N_19
REMARK                            x       y       z     vdW  Elec       q    Type
REMARK                         _______ _______ _______ _____ _____    ______ ____
ROOT
ATOM      1  C   UNL     1      45.456   5.007  12.625  0.00  0.00    +0.000 A 
ATOM      2  C   UNL     1      46.358   5.186  13.696  0.00  0.00    +0.000 A 
ATOM      3  C   UNL     1      47.428   6.055  13.569  0.00  0.00    +0.000 A 
ATOM      4  N   UNL     1      47.677   6.772  12.451  0.00  0.00    +0.000 NA
ATOM      5  C   UNL     1      46.781   6.605  11.443  0.00  0.00    +0.000 A 
ATOM      6  C   UNL     1      45.655   5.749  11.434  0.00  0.00    +0.000 A 
ENDROOT
BRANCH   3   7
ATOM      7  C   UNL     1      48.376   6.229  14.721  0.00  0.00    +0.000 C 
ATOM      8  N   UNL     1      47.899   5.825  15.936  0.00  0.00    +0.000 N 
ATOM      9  O   UNL     1      49.498   6.698  14.594  0.00  0.00    +0.000 OA
ATOM     10  H   UNL     1      46.968   5.429  15.998  0.00  0.00    +0.000 HD
ATOM     11  H   UNL     1      48.488   5.895  16.752  0.00  0.00    +0.000 HD
ENDBRANCH   3   7
BRANCH   1  13
ATOM     12  C   UNL     1      43.012   4.577  13.195  0.00  0.00    +0.000 C 
ATOM     13  C   UNL     1      44.379   3.978  12.895  0.00  0.00    +0.000 C 
ENDBRANCH   1  13
BRANCH   6  14
ATOM     14  N   UNL     1      44.812   5.840  10.312  0.00  0.00    +0.000 N 
ATOM     15  H   UNL     1      45.190   6.455   9.594  0.00  0.00    +0.000 HD
BRANCH  14  16
ATOM     16  C   UNL     1      44.145   4.684   9.755  0.00  0.00    +0.000 C 
BRANCH  16  17
ATOM     17  C   UNL     1      45.008   3.747   8.942  0.00  0.00    +0.000 A 
ATOM     18  C   UNL     1      45.874   4.348   8.011  0.00  0.00    +0.000 A 
ATOM     19  C   UNL     1      46.764   3.592   7.252  0.00  0.00    +0.000 A 
ATOM     20  C   UNL     1      46.819   2.206   7.408  0.00  0.00    +0.000 A 
ATOM     21  C   UNL     1      45.976   1.601   8.357  0.00  0.00    +0.000 A 
ATOM     22  C   UNL     1      45.083   2.363   9.126  0.00  0.00    +0.000 A 
BRANCH  20  23
ATOM     23  C   UNL     1      47.749   1.389   6.547  0.00  0.00    +0.000 C 
BRANCH  23  24
ATOM     24  N   UNL     1      48.436   2.204   5.553  0.00  0.00    +0.000 NA
ATOM     25  H   UNL     1      48.530   3.151   5.916  0.00  0.00    +0.000 HD
ATOM     26  H   UNL     1      47.852   2.272   4.723  0.00  0.00    +0.000 HD
ENDBRANCH  23  24
ENDBRANCH  20  23
ENDBRANCH  16  17
ENDBRANCH  14  16
ENDBRANCH   6  14
TORSDOF 7
ENDMDL
MODEL 5
REMARK VINA RESULT:    -6.684      2.265      6.746
REMARK INTER + INTRA:          -9.986
REMARK INTER:                  -9.903
REMARK INTRA:                  -0.083
REMARK UNBOUND:                -0.761
REMARK  Name = 
REMARK  8 active torsions:
REMARK  status: ('A' for Active; 'I' for Inactive)
REMARK    1  A    between atoms: C_1  and  C_2
REMARK    2  A    between atoms: C_2  and  C_3
REMARK    3  A    between atoms: C_5  and  C_6
REMARK    4  A    between atoms: C_11  and  N_12
REMARK    5  A    between atoms: N_12  and  C_13
REMARK    6  A    between atoms: C_13  and  C_14
REMARK    7  A    between atoms: C_17  and  C_18
REMARK    8  A    between atoms: C_18  and  N_19
REMARK                            x       y       z     vdW  Elec       q    Type
REMARK                         _______ _______ _______ _____ _____    ______ ____
ROOT
ATOM      1  C   UNL     1      44.987   2.949   9.423  0.00  0.00    +0.000 A 
ATOM      2  C   UNL     1      45.750   2.129   8.563  0.00  0.00    +0.000 A 
ATOM      3  C   UNL     1      46.595   2.697   7.626  0.00  0.00    +0.000 A 
ATOM      4  N   UNL     1      46.750   4.031   7.473  0.00  0.00    +0.000 NA
ATOM      5  C   UNL     1      46.028   4.800   8.328  0.00  0.00    +0.000 A 
ATOM      6  C   UNL     1      45.124   4.356   9.321  0.00  0.00    +0.000 A 
ENDROOT
BRANCH   3   7
ATOM      7  C   UNL     1      47.396   1.805   6.721  0.00  0.00    +0.000 C 
ATOM      8  N   UNL     1      48.438   2.411   6.076  0.00  0.00    +0.000 N 
ATOM      9  O   UNL     1      47.145   0.619   6.563  0.00  0.00    +0.000 OA
ATOM     10  H   UNL     1      48.622   3.393   6.243  0.00  0.00    +0.000 HD
ATOM     11  H   UNL     1      49.031   1.869   5.466  0.00  0.00    +0.000 HD
ENDBRANCH   3   7
BRANCH   1  13
ATOM     12  C   UNL     1      43.311   3.058  11.336  0.00  0.00    +0.000 C 
ATOM     13  C   UNL     1      44.064   2.182  10.345  0.00  0.00    +0.000 C 
ENDBRANCH   1  13
BRANCH   6  14
ATOM     14  N   UNL     1      44.584   5.347  10.161  0.00  0.00    +0.000 N 
ATOM     15  H   UNL     1      43.910   4.967  10.824  0.00  0.00    +0.000 HD
BRANCH  14  16
ATOM     16  C   UNL     1      45.398   6.394  10.739  0.00  0.00    +0.000 C 
BRANCH  16  17
ATOM     17  C   UNL     1      46.058   6.070  12.058  0.00  0.00    +0.000 A 
ATOM     18  C   UNL     1      45.467   5.041  12.814  0.00  0.00    +0.000 A 
ATOM     19  C   UNL     1      46.024   4.609  14.016  0.00  0.00    +0.000 A 
ATOM     20  C   UNL     1      47.199   5.192  14.495  0.00  0.00    +0.000 A 
ATOM     21  C   UNL     1      47.810   6.202  13.731  0.00  0.00    +0.000 A 
ATOM     22  C   UNL     1      47.253   6.633  12.518  0.00  0.00    +0.000 A 
BRANCH  20  23
ATOM     23  C   UNL     1      47.767   4.755  15.821  0.00  0.00    +0.000 C 
BRANCH  23  24
ATOM     24  N   UNL     1      47.012   3.656  16.408  0.00  0.00    +0.000 NA
ATOM     25  H   UNL     1      47.662   3.023  16.872  0.00  0.00    +0.000 HD
ATOM     26  H   UNL     1      46.576   3.120  15.661  0.00  0.00    +0.000 HD
ENDBRANCH  23  24
ENDBRANCH  20  23
ENDBRANCH  16  17
ENDBRANCH  14  16
ENDBRANCH   6  14
TORSDOF 7
ENDMDL
MODEL 6
REMARK VINA RESULT:    -6.278      3.137      7.270
REMARK INTER + INTRA:          -9.424
REMARK INTER:                  -8.918
REMARK INTRA:                  -0.506
REMARK UNBOUND:                -0.761
REMARK  Name = 
REMARK  8 active torsions:
REMARK  status: ('A' for Active; 'I' for Inactive)
REMARK    1  A    between atoms: C_1  and  C_2
REMARK    2  A    between atoms: C_2  and  C_3
REMARK    3  A    between atoms: C_5  and  C_6
REMARK    4  A    between atoms: C_11  and  N_12
REMARK    5  A    between atoms: N_12  and  C_13
REMARK    6  A    between atoms: C_13  and  C_14
REMARK    7  A    between atoms: C_17  and  C_18
REMARK    8  A    between atoms: C_18  and  N_19
REMARK                            x       y       z     vdW  Elec       q    Type
REMARK                         _______ _______ _______ _____ _____    ______ ____
ROOT
ATOM      1  C   UNL     1      46.428   6.046  12.880  0.00  0.00    +0.000 A 
ATOM      2  C   UNL     1      45.554   5.600  11.865  0.00  0.00    +0.000 A 
ATOM      3  C   UNL     1      45.054   4.309  11.893  0.00  0.00    +0.000 A 
ATOM      4  N   UNL     1      45.354   3.415  12.861  0.00  0.00    +0.000 NA
ATOM      5  C   UNL     1      46.174   3.874  13.841  0.00  0.00    +0.000 A 
ATOM      6  C   UNL     1      46.762   5.158  13.932  0.00  0.00    +0.000 A 
ENDROOT
BRANCH   3   7
ATOM      7  C   UNL     1      44.127   3.855  10.803  0.00  0.00    +0.000 C 
ATOM      8  N   UNL     1      43.995   4.717   9.751  0.00  0.00    +0.000 N 
ATOM      9  O   UNL     1      43.526   2.791  10.841  0.00  0.00    +0.000 OA
ATOM     10  H   UNL     1      44.521   5.584   9.749  0.00  0.00    +0.000 HD
ATOM     11  H   UNL     1      43.403   4.469   8.973  0.00  0.00    +0.000 HD
ENDBRANCH   3   7
BRANCH   1  13
ATOM     12  C   UNL     1      48.316   7.528  12.028  0.00  0.00    +0.000 C 
ATOM     13  C   UNL     1      46.939   7.457  12.674  0.00  0.00    +0.000 C 
ENDBRANCH   1  13
BRANCH   6  14
ATOM     14  N   UNL     1      47.485   5.432  15.108  0.00  0.00    +0.000 N 
ATOM     15  H   UNL     1      47.513   6.427  15.321  0.00  0.00    +0.000 HD
BRANCH  14  16
ATOM     16  C   UNL     1      47.360   4.615  16.295  0.00  0.00    +0.000 C 
BRANCH  16  17
ATOM     17  C   UNL     1      48.617   3.915  16.754  0.00  0.00    +0.000 A 
ATOM     18  C   UNL     1      48.662   2.523  16.555  0.00  0.00    +0.000 A 
ATOM     19  C   UNL     1      49.795   1.779  16.878  0.00  0.00    +0.000 A 
ATOM     20  C   UNL     1      50.923   2.409  17.405  0.00  0.00    +0.000 A 
ATOM     21  C   UNL     1      50.895   3.804  17.580  0.00  0.00    +0.000 A 
ATOM     22  C   UNL     1      49.757   4.555  17.250  0.00  0.00    +0.000 A 
BRANCH  20  23
ATOM     23  C   UNL     1      52.126   1.590  17.799  0.00  0.00    +0.000 C 
BRANCH  23  24
ATOM     24  N   UNL     1      51.772   0.215  18.129  0.00  0.00    +0.000 NA
ATOM     25  H   UNL     1      52.620  -0.287  18.388  0.00  0.00    +0.000 HD
ATOM     26  H   UNL     1      51.413  -0.241  17.293  0.00  0.00    +0.000 HD
ENDBRANCH  23  24
ENDBRANCH  20  23
ENDBRANCH  16  17
ENDBRANCH  14  16
ENDBRANCH   6  14
TORSDOF 7
ENDMDL
MODEL 7
REMARK VINA RESULT:    -6.020      3.230      5.791
REMARK INTER + INTRA:          -9.069
REMARK INTER:                  -8.682
REMARK INTRA:                  -0.387
REMARK UNBOUND:                -0.761
REMARK  Name = 
REMARK  8 active torsions:
REMARK  status: ('A' for Active; 'I' for Inactive)
REMARK    1  A    between atoms: C_1  and  C_2
REMARK    2  A    between atoms: C_2  and  C_3
REMARK    3  A    between atoms: C_5  and  C_6
REMARK    4  A    between atoms: C_11  and  N_12
REMARK    5  A    between atoms: N_12  and  C_13
REMARK    6  A    between atoms: C_13  and  C_14
REMARK    7  A    between atoms: C_17  and  C_18
REMARK    8  A    between atoms: C_18  and  N_19
REMARK                            x       y       z     vdW  Elec       q    Type
REMARK                         _______ _______ _______ _____ _____    ______ ____
ROOT
ATOM      1  C   UNL     1      49.030   4.166  17.492  0.00  0.00    +0.000 A 
ATOM      2  C   UNL     1      50.220   3.497  17.851  0.00  0.00    +0.000 A 
ATOM      3  C   UNL     1      50.530   2.272  17.288  0.00  0.00    +0.000 A 
ATOM      4  N   UNL     1      49.744   1.649  16.382  0.00  0.00    +0.000 NA
ATOM      5  C   UNL     1      48.618   2.322  16.030  0.00  0.00    +0.000 A 
ATOM      6  C   UNL     1      48.177   3.569  16.531  0.00  0.00    +0.000 A 
ENDROOT
BRANCH   3   7
ATOM      7  C   UNL     1      51.801   1.578  17.686  0.00  0.00    +0.000 C 
ATOM      8  N   UNL     1      51.664   0.265  18.039  0.00  0.00    +0.000 N 
ATOM      9  O   UNL     1      52.888   2.137  17.698  0.00  0.00    +0.000 OA
ATOM     10  H   UNL     1      50.748  -0.167  18.003  0.00  0.00    +0.000 HD
ATOM     11  H   UNL     1      52.479  -0.270  18.300  0.00  0.00    +0.000 HD
ENDBRANCH   3   7
BRANCH   1  13
ATOM     12  C   UNL     1      47.415   5.584  18.856  0.00  0.00    +0.000 C 
ATOM     13  C   UNL     1      48.802   5.461  18.242  0.00  0.00    +0.000 C 
ENDBRANCH   1  13
BRANCH   6  14
ATOM     14  N   UNL     1      47.032   4.116  15.922  0.00  0.00    +0.000 N 
ATOM     15  H   UNL     1      46.299   4.325  16.596  0.00  0.00    +0.000 HD
BRANCH  14  16
ATOM     16  C   UNL     1      47.118   5.107  14.872  0.00  0.00    +0.000 C 
BRANCH  16  17
ATOM     17  C   UNL     1      46.255   4.864  13.657  0.00  0.00    +0.000 A 
ATOM     18  C   UNL     1      46.174   3.533  13.207  0.00  0.00    +0.000 A 
ATOM     19  C   UNL     1      45.358   3.176  12.136  0.00  0.00    +0.000 A 
ATOM     20  C   UNL     1      44.590   4.143  11.485  0.00  0.00    +0.000 A 
ATOM     21  C   UNL     1      44.644   5.470  11.947  0.00  0.00    +0.000 A 
ATOM     22  C   UNL     1      45.462   5.829  13.029  0.00  0.00    +0.000 A 
BRANCH  20  23
ATOM     23  C   UNL     1      43.748   3.757  10.295  0.00  0.00    +0.000 C 
BRANCH  23  24
ATOM     24  N   UNL     1      44.089   4.528   9.107  0.00  0.00    +0.000 NA
ATOM     25  H   UNL     1      43.569   5.405   9.126  0.00  0.00    +0.000 HD
ATOM     26  H   UNL     1      43.767   4.023   8.284  0.00  0.00    +0.000 HD
ENDBRANCH  23  24
ENDBRANCH  20  23
ENDBRANCH  16  17
ENDBRANCH  14  16
ENDBRANCH   6  14
TORSDOF 7
ENDMDL
MODEL 8
REMARK VINA RESULT:    -5.580      3.527      5.681
REMARK INTER + INTRA:          -8.462
REMARK INTER:                  -7.742
REMARK INTRA:                  -0.719
REMARK UNBOUND:                -0.761
REMARK  Name = 
REMARK  8 active torsions:
REMARK  status: ('A' for Active; 'I' for Inactive)
REMARK    1  A    between atoms: C_1  and  C_2
REMARK    2  A    between atoms: C_2  and  C_3
REMARK    3  A    between atoms: C_5  and  C_6
REMARK    4  A    between atoms: C_11  and  N_12
REMARK    5  A    between atoms: N_12  and  C_13
REMARK    6  A    between atoms: C_13  and  C_14
REMARK    7  A    between atoms: C_17  and  C_18
REMARK    8  A    between atoms: C_18  and  N_19
REMARK                            x       y       z     vdW  Elec       q    Type
REMARK                         _______ _______ _______ _____ _____    ______ ____
ROOT
ATOM      1  C   UNL     1      48.446   5.158  16.793  0.00  0.00    +0.000 A 
ATOM      2  C   UNL     1      49.443   4.868  17.749  0.00  0.00    +0.000 A 
ATOM      3  C   UNL     1      50.673   5.501  17.689  0.00  0.00    +0.000 A 
ATOM      4  N   UNL     1      50.995   6.413  16.745  0.00  0.00    +0.000 NA
ATOM      5  C   UNL     1      50.012   6.698  15.853  0.00  0.00    +0.000 A 
ATOM      6  C   UNL     1      48.721   6.122  15.792  0.00  0.00    +0.000 A 
ENDROOT
BRANCH   3   7
ATOM      7  C   UNL     1      51.719   5.176  18.715  0.00  0.00    +0.000 C 
ATOM      8  N   UNL     1      51.499   4.035  19.434  0.00  0.00    +0.000 N 
ATOM      9  O   UNL     1      52.705   5.874  18.905  0.00  0.00    +0.000 OA
ATOM     10  H   UNL     1      50.677   3.475  19.238  0.00  0.00    +0.000 HD
ATOM     11  H   UNL     1      52.170   3.744  20.128  0.00  0.00    +0.000 HD
ENDBRANCH   3   7
BRANCH   1  13
ATOM     12  C   UNL     1      47.428   2.915  17.436  0.00  0.00    +0.000 C 
ATOM     13  C   UNL     1      47.184   4.338  16.954  0.00  0.00    +0.000 C 
ENDBRANCH   1  13
BRANCH   6  14
ATOM     14  N   UNL     1      47.839   6.669  14.841  0.00  0.00    +0.000 N 
ATOM     15  H   UNL     1      47.657   7.657  15.008  0.00  0.00    +0.000 HD
BRANCH  14  16
ATOM     16  C   UNL     1      47.931   6.351  13.434  0.00  0.00    +0.000 C 
BRANCH  16  17
ATOM     17  C   UNL     1      46.816   5.502  12.870  0.00  0.00    +0.000 A 
ATOM     18  C   UNL     1      46.129   6.031  11.763  0.00  0.00    +0.000 A 
ATOM     19  C   UNL     1      45.126   5.311  11.118  0.00  0.00    +0.000 A 
ATOM     20  C   UNL     1      44.785   4.032  11.559  0.00  0.00    +0.000 A 
ATOM     21  C   UNL     1      45.487   3.485  12.647  0.00  0.00    +0.000 A 
ATOM     22  C   UNL     1      46.501   4.207  13.294  0.00  0.00    +0.000 A 
BRANCH  20  23
ATOM     23  C   UNL     1      43.664   3.280  10.887  0.00  0.00    +0.000 C 
BRANCH  23  24
ATOM     24  N   UNL     1      43.099   2.249  11.748  0.00  0.00    +0.000 NA
ATOM     25  H   UNL     1      42.845   1.446  11.173  0.00  0.00    +0.000 HD
ATOM     26  H   UNL     1      42.232   2.597  12.151  0.00  0.00    +0.000 HD
ENDBRANCH  23  24
ENDBRANCH  20  23
ENDBRANCH  16  17
ENDBRANCH  14  16
ENDBRANCH   6  14
TORSDOF 7
ENDMDL
MODEL 9
REMARK VINA RESULT:    -5.446      3.279      8.144
REMARK INTER + INTRA:          -8.277
REMARK INTER:                  -7.886
REMARK INTRA:                  -0.391
REMARK UNBOUND:                -0.761
REMARK  Name = 
REMARK  8 active torsions:
REMARK  status: ('A' for Active; 'I' for Inactive)
REMARK    1  A    between atoms: C_1  and  C_2
REMARK    2  A    between atoms: C_2  and  C_3
REMARK    3  A    between atoms: C_5  and  C_6
REMARK    4  A    between atoms: C_11  and  N_12
REMARK    5  A    between atoms: N_12  and  C_13
REMARK    6  A    between atoms: C_13  and  C_14
REMARK    7  A    between atoms: C_17  and  C_18
REMARK    8  A    between atoms: C_18  and  N_19
REMARK                            x       y       z     vdW  Elec       q    Type
REMARK                         _______ _______ _______ _____ _____    ______ ____
ROOT
ATOM      1  C   UNL     1      45.950   5.934  12.806  0.00  0.00    +0.000 A 
ATOM      2  C   UNL     1      45.229   5.506  11.671  0.00  0.00    +0.000 A 
ATOM      3  C   UNL     1      45.040   4.155  11.432  0.00  0.00    +0.000 A 
ATOM      4  N   UNL     1      45.513   3.183  12.242  0.00  0.00    +0.000 NA
ATOM      5  C   UNL     1      46.180   3.617  13.342  0.00  0.00    +0.000 A 
ATOM      6  C   UNL     1      46.453   4.958  13.702  0.00  0.00    +0.000 A 
ENDROOT
BRANCH   3   7
ATOM      7  C   UNL     1      44.270   3.723  10.218  0.00  0.00    +0.000 C 
ATOM      8  N   UNL     1      44.145   4.667   9.238  0.00  0.00    +0.000 N 
ATOM      9  O   UNL     1      43.785   2.607  10.100  0.00  0.00    +0.000 OA
ATOM     10  H   UNL     1      44.573   5.577   9.366  0.00  0.00    +0.000 HD
ATOM     11  H   UNL     1      43.657   4.441   8.384  0.00  0.00    +0.000 HD
ENDBRANCH   3   7
BRANCH   1  13
ATOM     12  C   UNL     1      47.446   7.936  12.322  0.00  0.00    +0.000 C 
ATOM     13  C   UNL     1      46.126   7.435  12.892  0.00  0.00    +0.000 C 
ENDBRANCH   1  13
BRANCH   6  14
ATOM     14  N   UNL     1      47.063   5.156  14.955  0.00  0.00    +0.000 N 
ATOM     15  H   UNL     1      46.847   6.070  15.348  0.00  0.00    +0.000 HD
BRANCH  14  16
ATOM     16  C   UNL     1      47.111   4.117  15.959  0.00  0.00    +0.000 C 
BRANCH  16  17
ATOM     17  C   UNL     1      47.963   4.407  17.173  0.00  0.00    +0.000 A 
ATOM     18  C   UNL     1      47.354   5.154  18.197  0.00  0.00    +0.000 A 
ATOM     19  C   UNL     1      48.018   5.428  19.391  0.00  0.00    +0.000 A 
ATOM     20  C   UNL     1      49.314   4.953  19.599  0.00  0.00    +0.000 A 
ATOM     21  C   UNL     1      49.919   4.182  18.591  0.00  0.00    +0.000 A 
ATOM     22  C   UNL     1      49.249   3.901  17.390  0.00  0.00    +0.000 A 
BRANCH  20  23
ATOM     23  C   UNL     1      50.044   5.296  20.873  0.00  0.00    +0.000 C 
BRANCH  23  24
ATOM     24  N   UNL     1      51.261   4.513  21.038  0.00  0.00    +0.000 NA
ATOM     25  H   UNL     1      51.009   3.527  21.101  0.00  0.00    +0.000 HD
ATOM     26  H   UNL     1      51.690   4.756  21.928  0.00  0.00    +0.000 HD
ENDBRANCH  23  24
ENDBRANCH  20  23
ENDBRANCH  16  17
ENDBRANCH  14  16
ENDBRANCH   6  14
TORSDOF 7
ENDMDL
