MODEL 1
REMARK VINA RESULT:    -7.634      0.000      0.000
REMARK INTER + INTRA:         -10.649
REMARK INTER:                  -9.865
REMARK INTRA:                  -0.783
REMARK UNBOUND:                -0.783
REMARK  Name = 
REMARK  6 active torsions:
REMARK  status: ('A' for Active; 'I' for Inactive)
REMARK    1  A    between atoms: C_1  and  C_2
REMARK    2  A    between atoms: C_2  and  C_3
REMARK    3  A    between atoms: C_7  and  C_8
REMARK    4  A    between atoms: C_8  and  C_9
REMARK    5  A    between atoms: C_9  and  N_10
REMARK    6  A    between atoms: C_14  and  C_15
REMARK                            x       y       z     vdW  Elec       q    Type
REMARK                         _______ _______ _______ _____ _____    ______ ____
ROOT
ATOM      1  C   UNL     1      44.252   4.801  12.520  0.00  0.00    +0.000 C 
ENDROOT
BRANCH   1   6
ATOM      2  C   UNL     1      47.113   7.340  12.761  0.00  0.00    +0.000 A 
ATOM      3  C   UNL     1      46.507   8.443  12.128  0.00  0.00    +0.000 A 
ATOM      4  C   UNL     1      45.192   8.387  11.662  0.00  0.00    +0.000 A 
ATOM      5  C   UNL     1      44.445   7.224  11.815  0.00  0.00    +0.000 A 
ATOM      6  C   UNL     1      45.007   6.110  12.445  0.00  0.00    +0.000 A 
ATOM      7  C   UNL     1      46.330   6.181  12.914  0.00  0.00    +0.000 A 
BRANCH   2   9
ATOM      8  C   UNL     1      49.460   7.387  11.892  0.00  0.00    +0.000 C 
ATOM      9  C   UNL     1      48.595   7.418  13.164  0.00  0.00    +0.000 C 
ATOM     10  C   UNL     1      48.909   8.657  14.027  0.00  0.00    +0.000 C 
ATOM     11  C   UNL     1      48.919   8.169  15.475  0.00  0.00    +0.000 C 
ATOM     12  C   UNL     1      48.685   6.674  15.400  0.00  0.00    +0.000 C 
ATOM     13  N   UNL     1      49.074   6.333  14.040  0.00  0.00    +0.000 NA
ATOM     14  H   UNL     1      48.741   5.422  13.744  0.00  0.00    +0.000 HD
ENDBRANCH   2   9
ENDBRANCH   1   6
BRANCH   1  15
ATOM     15  C   UNL     1      43.658   4.468  11.148  0.00  0.00    +0.000 C 
BRANCH  15  16
ATOM     16  N   UNL     1      43.935   3.080  10.760  0.00  0.00    +0.000 N 
ATOM     17  C   UNL     1      44.778   3.007   9.632  0.00  0.00    +0.000 A 
ATOM     18  C   UNL     1      45.123   1.758   9.126  0.00  0.00    +0.000 A 
ATOM     19  C   UNL     1      45.957   1.677   8.005  0.00  0.00    +0.000 A 
ATOM     20  C   UNL     1      46.435   2.846   7.409  0.00  0.00    +0.000 A 
ATOM     21  C   UNL     1      46.059   4.042   7.992  0.00  0.00    +0.000 A 
ATOM     22  N   UNL     1      45.255   4.139   9.077  0.00  0.00    +0.000 NA
ATOM     23  H   UNL     1      43.086   2.556  10.562  0.00  0.00    +0.000 HD
BRANCH  20  24
ATOM     24  C   UNL     1      47.300   2.763   6.207  0.00  0.00    +0.000 C 
ATOM     25  N   UNL     1      48.637   2.521   6.365  0.00  0.00    +0.000 N 
ATOM     26  O   UNL     1      46.834   2.916   5.086  0.00  0.00    +0.000 OA
ATOM     27  H   UNL     1      49.122   2.388   7.237  0.00  0.00    +0.000 HD
ATOM     28  H   UNL     1      49.191   2.486   5.518  0.00  0.00    +0.000 HD
ENDBRANCH  20  24
ENDBRANCH  15  16
ENDBRANCH   1  15
TORSDOF 5
ENDMDL
MODEL 2
REMARK VINA RESULT:    -6.777      3.139      5.657
REMARK INTER + INTRA:          -9.541
REMARK INTER:                  -8.687
REMARK INTRA:                  -0.854
REMARK UNBOUND:                -0.783
REMARK  Name = 
REMARK  6 active torsions:
REMARK  status: ('A' for Active; 'I' for Inactive)
REMARK    1  A    between atoms: C_1  and  C_2
REMARK    2  A    between atoms: C_2  and  C_3
REMARK    3  A    between atoms: C_7  and  C_8
REMARK    4  A    between atoms: C_8  and  C_9
REMARK    5  A    between atoms: C_9  and  N_10
REMARK    6  A    between atoms: C_14  and  C_15
REMARK                            x       y       z     vdW  Elec       q    Type
REMARK                         _______ _______ _______ _____ _____    ______ ____
ROOT
ATOM      1  C   UNL     1      49.087   7.644  13.885  0.00  0.00    +0.000 C 
ENDROOT
BRANCH   1   6
ATOM      2  C   UNL     1      49.045   5.533  17.083  0.00  0.00    +0.000 A 
ATOM      3  C   UNL     1      50.403   5.624  17.448  0.00  0.00    +0.000 A 
ATOM      4  C   UNL     1      51.311   6.378  16.701  0.00  0.00    +0.000 A 
ATOM      5  C   UNL     1      50.886   7.061  15.566  0.00  0.00    +0.000 A 
ATOM      6  C   UNL     1      49.546   7.002  15.176  0.00  0.00    +0.000 A 
ATOM      7  C   UNL     1      48.640   6.244  15.938  0.00  0.00    +0.000 A 
BRANCH   2   9
ATOM      8  C   UNL     1      47.735   3.401  17.000  0.00  0.00    +0.000 C 
ATOM      9  C   UNL     1      48.107   4.608  17.879  0.00  0.00    +0.000 C 
ATOM     10  C   UNL     1      48.720   4.159  19.220  0.00  0.00    +0.000 C 
ATOM     11  C   UNL     1      48.119   5.077  20.285  0.00  0.00    +0.000 C 
ATOM     12  C   UNL     1      47.141   5.967  19.545  0.00  0.00    +0.000 C 
ATOM     13  N   UNL     1      46.845   5.221  18.333  0.00  0.00    +0.000 NA
ATOM     14  H   UNL     1      46.408   5.784  17.611  0.00  0.00    +0.000 HD
ENDBRANCH   2   9
ENDBRANCH   1   6
BRANCH   1  15
ATOM     15  C   UNL     1      47.589   7.392  13.686  0.00  0.00    +0.000 C 
BRANCH  15  16
ATOM     16  N   UNL     1      47.222   7.404  12.265  0.00  0.00    +0.000 N 
ATOM     17  C   UNL     1      46.433   6.288  11.916  0.00  0.00    +0.000 A 
ATOM     18  C   UNL     1      46.015   6.142  10.597  0.00  0.00    +0.000 A 
ATOM     19  C   UNL     1      45.235   5.036  10.242  0.00  0.00    +0.000 A 
ATOM     20  C   UNL     1      44.882   4.095  11.211  0.00  0.00    +0.000 A 
ATOM     21  C   UNL     1      45.323   4.332  12.500  0.00  0.00    +0.000 A 
ATOM     22  N   UNL     1      46.076   5.397  12.862  0.00  0.00    +0.000 NA
ATOM     23  H   UNL     1      48.035   7.427  11.655  0.00  0.00    +0.000 HD
BRANCH  20  24
ATOM     24  C   UNL     1      44.075   2.910  10.831  0.00  0.00    +0.000 C 
ATOM     25  N   UNL     1      44.516   2.102   9.819  0.00  0.00    +0.000 N 
ATOM     26  O   UNL     1      43.023   2.657  11.403  0.00  0.00    +0.000 OA
ATOM     27  H   UNL     1      45.359   2.222   9.281  0.00  0.00    +0.000 HD
ATOM     28  H   UNL     1      43.927   1.312   9.586  0.00  0.00    +0.000 HD
ENDBRANCH  20  24
ENDBRANCH  15  16
ENDBRANCH   1  15
TORSDOF 5
ENDMDL
MODEL 3
REMARK VINA RESULT:    -6.599      2.863      7.217
REMARK INTER + INTRA:          -9.311
REMARK INTER:                  -9.054
REMARK INTRA:                  -0.257
REMARK UNBOUND:                -0.783
REMARK  Name = 
REMARK  6 active torsions:
REMARK  status: ('A' for Active; 'I' for Inactive)
REMARK    1  A    between atoms: C_1  and  C_2
REMARK    2  A    between atoms: C_2  and  C_3
REMARK    3  A    between atoms: C_7  and  C_8
REMARK    4  A    between atoms: C_8  and  C_9
REMARK    5  A    between atoms: C_9  and  N_10
REMARK    6  A    between atoms: C_14  and  C_15
REMARK                            x       y       z     vdW  Elec       q    Type
REMARK                         _______ _______ _______ _____ _____    ______ ____
ROOT
ATOM      1  C   UNL     1      43.537   2.469  10.974  0.00  0.00    +0.000 C 
ENDROOT
BRANCH   1   6
ATOM      2  C   UNL     1      46.099   2.450   8.124  0.00  0.00    +0.000 A 
ATOM      3  C   UNL     1      46.160   3.831   7.848  0.00  0.00    +0.000 A 
ATOM      4  C   UNL     1      45.420   4.757   8.586  0.00  0.00    +0.000 A 
ATOM      5  C   UNL     1      44.595   4.327   9.621  0.00  0.00    +0.000 A 
ATOM      6  C   UNL     1      44.512   2.967   9.930  0.00  0.00    +0.000 A 
ATOM      7  C   UNL     1      45.267   2.045   9.183  0.00  0.00    +0.000 A 
BRANCH   2   9
ATOM      8  C   UNL     1      46.589   0.031   7.711  0.00  0.00    +0.000 C 
ATOM      9  C   UNL     1      46.855   1.463   7.217  0.00  0.00    +0.000 C 
ATOM     10  C   UNL     1      46.482   1.623   5.730  0.00  0.00    +0.000 C 
ATOM     11  C   UNL     1      47.589   2.473   5.108  0.00  0.00    +0.000 C 
ATOM     12  C   UNL     1      48.587   2.715   6.222  0.00  0.00    +0.000 C 
ATOM     13  N   UNL     1      48.317   1.640   7.164  0.00  0.00    +0.000 NA
ATOM     14  H   UNL     1      48.720   1.799   8.082  0.00  0.00    +0.000 HD
ENDBRANCH   2   9
ENDBRANCH   1   6
BRANCH   1  15
ATOM     15  C   UNL     1      43.676   3.303  12.251  0.00  0.00    +0.000 C 
BRANCH  15  16
ATOM     16  N   UNL     1      45.002   3.145  12.859  0.00  0.00    +0.000 N 
ATOM     17  C   UNL     1      45.656   4.384  13.026  0.00  0.00    +0.000 A 
ATOM     18  C   UNL     1      46.934   4.405  13.575  0.00  0.00    +0.000 A 
ATOM     19  C   UNL     1      47.590   5.630  13.741  0.00  0.00    +0.000 A 
ATOM     20  C   UNL     1      46.958   6.814  13.357  0.00  0.00    +0.000 A 
ATOM     21  C   UNL     1      45.680   6.700  12.841  0.00  0.00    +0.000 A 
ATOM     22  N   UNL     1      45.029   5.525  12.676  0.00  0.00    +0.000 NA
ATOM     23  H   UNL     1      45.607   2.532  12.318  0.00  0.00    +0.000 HD
BRANCH  20  24
ATOM     24  C   UNL     1      47.662   8.111  13.510  0.00  0.00    +0.000 C 
ATOM     25  N   UNL     1      48.254   8.679  12.415  0.00  0.00    +0.000 N 
ATOM     26  O   UNL     1      47.725   8.667  14.598  0.00  0.00    +0.000 OA
ATOM     27  H   UNL     1      48.268   8.304  11.481  0.00  0.00    +0.000 HD
ATOM     28  H   UNL     1      48.734   9.557  12.569  0.00  0.00    +0.000 HD
ENDBRANCH  20  24
ENDBRANCH  15  16
ENDBRANCH   1  15
TORSDOF 5
ENDMDL
MODEL 4
REMARK VINA RESULT:    -6.582      3.271      5.967
REMARK INTER + INTRA:          -9.290
REMARK INTER:                  -8.366
REMARK INTRA:                  -0.924
REMARK UNBOUND:                -0.783
REMARK  Name = 
REMARK  6 active torsions:
REMARK  status: ('A' for Active; 'I' for Inactive)
REMARK    1  A    between atoms: C_1  and  C_2
REMARK    2  A    between atoms: C_2  and  C_3
REMARK    3  A    between atoms: C_7  and  C_8
REMARK    4  A    between atoms: C_8  and  C_9
REMARK    5  A    between atoms: C_9  and  N_10
REMARK    6  A    between atoms: C_14  and  C_15
REMARK                            x       y       z     vdW  Elec       q    Type
REMARK                         _______ _______ _______ _____ _____    ______ ____
ROOT
ATOM      1  C   UNL     1      49.438   7.975  13.948  0.00  0.00    +0.000 C 
ENDROOT
BRANCH   1   6
ATOM      2  C   UNL     1      49.467   5.713  17.041  0.00  0.00    +0.000 A 
ATOM      3  C   UNL     1      50.832   5.792  17.382  0.00  0.00    +0.000 A 
ATOM      4  C   UNL     1      51.722   6.585  16.655  0.00  0.00    +0.000 A 
ATOM      5  C   UNL     1      51.272   7.320  15.563  0.00  0.00    +0.000 A 
ATOM      6  C   UNL     1      49.925   7.274  15.197  0.00  0.00    +0.000 A 
ATOM      7  C   UNL     1      49.037   6.476  15.940  0.00  0.00    +0.000 A 
BRANCH   2   9
ATOM      8  C   UNL     1      47.880   5.511  18.967  0.00  0.00    +0.000 C 
ATOM      9  C   UNL     1      48.549   4.747  17.810  0.00  0.00    +0.000 C 
ATOM     10  C   UNL     1      47.500   4.077  16.900  0.00  0.00    +0.000 C 
ATOM     11  C   UNL     1      48.059   2.695  16.562  0.00  0.00    +0.000 C 
ATOM     12  C   UNL     1      49.359   2.586  17.333  0.00  0.00    +0.000 C 
ATOM     13  N   UNL     1      49.213   3.568  18.395  0.00  0.00    +0.000 NA
ATOM     14  H   UNL     1      50.090   3.804  18.848  0.00  0.00    +0.000 HD
ENDBRANCH   2   9
ENDBRANCH   1   6
BRANCH   1  15
ATOM     15  C   UNL     1      47.928   7.771  13.796  0.00  0.00    +0.000 C 
BRANCH  15  16
ATOM     16  N   UNL     1      47.543   7.596  12.390  0.00  0.00    +0.000 N 
ATOM     17  C   UNL     1      46.654   6.515  12.218  0.00  0.00    +0.000 A 
ATOM     18  C   UNL     1      46.207   6.205  10.937  0.00  0.00    +0.000 A 
ATOM     19  C   UNL     1      45.326   5.133  10.758  0.00  0.00    +0.000 A 
ATOM     20  C   UNL     1      44.905   4.388  11.861  0.00  0.00    +0.000 A 
ATOM     21  C   UNL     1      45.383   4.780  13.098  0.00  0.00    +0.000 A 
ATOM     22  N   UNL     1      46.232   5.816  13.291  0.00  0.00    +0.000 NA
ATOM     23  H   UNL     1      48.347   7.452  11.784  0.00  0.00    +0.000 HD
BRANCH  20  24
ATOM     24  C   UNL     1      43.990   3.235  11.669  0.00  0.00    +0.000 C 
ATOM     25  N   UNL     1      43.760   2.388  12.719  0.00  0.00    +0.000 N 
ATOM     26  O   UNL     1      43.454   3.032  10.589  0.00  0.00    +0.000 OA
ATOM     27  H   UNL     1      44.153   2.460  13.643  0.00  0.00    +0.000 HD
ATOM     28  H   UNL     1      43.140   1.609  12.539  0.00  0.00    +0.000 HD
ENDBRANCH  20  24
ENDBRANCH  15  16
ENDBRANCH   1  15
TORSDOF 5
ENDMDL
MODEL 5
REMARK VINA RESULT:    -6.514      4.034      8.067
REMARK INTER + INTRA:          -9.201
REMARK INTER:                  -8.611
REMARK INTRA:                  -0.591
REMARK UNBOUND:                -0.783
REMARK  Name = 
REMARK  6 active torsions:
REMARK  status: ('A' for Active; 'I' for Inactive)
REMARK    1  A    between atoms: C_1  and  C_2
REMARK    2  A    between atoms: C_2  and  C_3
REMARK    3  A    between atoms: C_7  and  C_8
REMARK    4  A    between atoms: C_8  and  C_9
REMARK    5  A    between atoms: C_9  and  N_10
REMARK    6  A    between atoms: C_14  and  C_15
REMARK                            x       y       z     vdW  Elec       q    Type
REMARK                         _______ _______ _______ _____ _____    ______ ____
ROOT
ATOM      1  C   UNL     1      48.610   7.158  13.333  0.00  0.00    +0.000 C 
ENDROOT
BRANCH   1   6
ATOM      2  C   UNL     1      45.489   6.306  11.278  0.00  0.00    +0.000 A 
ATOM      3  C   UNL     1      44.771   7.510  11.423  0.00  0.00    +0.000 A 
ATOM      4  C   UNL     1      45.293   8.591  12.138  0.00  0.00    +0.000 A 
ATOM      5  C   UNL     1      46.548   8.496  12.730  0.00  0.00    +0.000 A 
ATOM      6  C   UNL     1      47.295   7.322  12.603  0.00  0.00    +0.000 A 
ATOM      7  C   UNL     1      46.761   6.243  11.876  0.00  0.00    +0.000 A 
BRANCH   2   9
ATOM      8  C   UNL     1      45.524   4.891   9.214  0.00  0.00    +0.000 C 
ATOM      9  C   UNL     1      44.829   5.111  10.568  0.00  0.00    +0.000 C 
ATOM     10  C   UNL     1      44.849   3.830  11.425  0.00  0.00    +0.000 C 
ATOM     11  C   UNL     1      43.469   3.737  12.075  0.00  0.00    +0.000 C 
ATOM     12  C   UNL     1      42.684   4.911  11.527  0.00  0.00    +0.000 C 
ATOM     13  N   UNL     1      43.386   5.250  10.299  0.00  0.00    +0.000 NA
ATOM     14  H   UNL     1      43.147   6.169   9.940  0.00  0.00    +0.000 HD
ENDBRANCH   2   9
ENDBRANCH   1   6
BRANCH   1  15
ATOM     15  C   UNL     1      48.409   7.430  14.827  0.00  0.00    +0.000 C 
BRANCH  15  16
ATOM     16  N   UNL     1      47.916   6.241  15.533  0.00  0.00    +0.000 N 
ATOM     17  C   UNL     1      48.932   5.614  16.283  0.00  0.00    +0.000 A 
ATOM     18  C   UNL     1      48.630   4.460  16.998  0.00  0.00    +0.000 A 
ATOM     19  C   UNL     1      49.634   3.830  17.742  0.00  0.00    +0.000 A 
ATOM     20  C   UNL     1      50.923   4.366  17.762  0.00  0.00    +0.000 A 
ATOM     21  C   UNL     1      51.128   5.527  17.040  0.00  0.00    +0.000 A 
ATOM     22  N   UNL     1      50.168   6.151  16.317  0.00  0.00    +0.000 NA
ATOM     23  H   UNL     1      47.512   5.555  14.900  0.00  0.00    +0.000 HD
BRANCH  20  24
ATOM     24  C   UNL     1      51.994   3.686  18.532  0.00  0.00    +0.000 C 
ATOM     25  N   UNL     1      52.075   2.321  18.495  0.00  0.00    +0.000 N 
ATOM     26  O   UNL     1      52.791   4.329  19.201  0.00  0.00    +0.000 OA
ATOM     27  H   UNL     1      51.469   1.699  17.985  0.00  0.00    +0.000 HD
ATOM     28  H   UNL     1      52.813   1.900  19.045  0.00  0.00    +0.000 HD
ENDBRANCH  20  24
ENDBRANCH  15  16
ENDBRANCH   1  15
TORSDOF 5
ENDMDL
MODEL 6
REMARK VINA RESULT:    -6.450      3.141      7.759
REMARK INTER + INTRA:          -9.118
REMARK INTER:                  -8.668
REMARK INTRA:                  -0.450
REMARK UNBOUND:                -0.783
REMARK  Name = 
REMARK  6 active torsions:
REMARK  status: ('A' for Active; 'I' for Inactive)
REMARK    1  A    between atoms: C_1  and  C_2
REMARK    2  A    between atoms: C_2  and  C_3
REMARK    3  A    between atoms: C_7  and  C_8
REMARK    4  A    between atoms: C_8  and  C_9
REMARK    5  A    between atoms: C_9  and  N_10
REMARK    6  A    between atoms: C_14  and  C_15
REMARK                            x       y       z     vdW  Elec       q    Type
REMARK                         _______ _______ _______ _____ _____    ______ ____
ROOT
ATOM      1  C   UNL     1      45.703   5.912   9.725  0.00  0.00    +0.000 C 
ENDROOT
BRANCH   1   6
ATOM      2  C   UNL     1      45.890   2.385   8.237  0.00  0.00    +0.000 A 
ATOM      3  C   UNL     1      44.941   1.733   9.049  0.00  0.00    +0.000 A 
ATOM      4  C   UNL     1      44.226   2.419  10.033  0.00  0.00    +0.000 A 
ATOM      5  C   UNL     1      44.443   3.779  10.235  0.00  0.00    +0.000 A 
ATOM      6  C   UNL     1      45.371   4.463   9.446  0.00  0.00    +0.000 A 
ATOM      7  C   UNL     1      46.080   3.762   8.455  0.00  0.00    +0.000 A 
BRANCH   2   9
ATOM      8  C   UNL     1      46.606   0.074   7.597  0.00  0.00    +0.000 C 
ATOM      9  C   UNL     1      46.724   1.565   7.238  0.00  0.00    +0.000 C 
ATOM     10  C   UNL     1      46.313   1.824   5.774  0.00  0.00    +0.000 C 
ATOM     11  C   UNL     1      47.324   2.832   5.227  0.00  0.00    +0.000 C 
ATOM     12  C   UNL     1      48.311   3.066   6.352  0.00  0.00    +0.000 C 
ATOM     13  N   UNL     1      48.161   1.888   7.192  0.00  0.00    +0.000 NA
ATOM     14  H   UNL     1      48.561   2.001   8.117  0.00  0.00    +0.000 HD
ENDBRANCH   2   9
ENDBRANCH   1   6
BRANCH   1  15
ATOM     15  C   UNL     1      45.235   6.289  11.134  0.00  0.00    +0.000 C 
BRANCH  15  16
ATOM     16  N   UNL     1      46.312   6.908  11.916  0.00  0.00    +0.000 N 
ATOM     17  C   UNL     1      46.673   6.124  13.030  0.00  0.00    +0.000 A 
ATOM     18  C   UNL     1      47.670   6.582  13.885  0.00  0.00    +0.000 A 
ATOM     19  C   UNL     1      48.032   5.810  14.995  0.00  0.00    +0.000 A 
ATOM     20  C   UNL     1      47.393   4.592  15.231  0.00  0.00    +0.000 A 
ATOM     21  C   UNL     1      46.430   4.204  14.318  0.00  0.00    +0.000 A 
ATOM     22  N   UNL     1      46.068   4.936  13.238  0.00  0.00    +0.000 NA
ATOM     23  H   UNL     1      46.066   7.839  12.243  0.00  0.00    +0.000 HD
BRANCH  20  24
ATOM     24  C   UNL     1      47.759   3.783  16.421  0.00  0.00    +0.000 C 
ATOM     25  N   UNL     1      46.769   3.341  17.254  0.00  0.00    +0.000 N 
ATOM     26  O   UNL     1      48.929   3.520  16.666  0.00  0.00    +0.000 OA
ATOM     27  H   UNL     1      45.781   3.507  17.150  0.00  0.00    +0.000 HD
ATOM     28  H   UNL     1      47.065   2.805  18.060  0.00  0.00    +0.000 HD
ENDBRANCH  20  24
ENDBRANCH  15  16
ENDBRANCH   1  15
TORSDOF 5
ENDMDL
MODEL 7
REMARK VINA RESULT:    -6.421      3.893      7.826
REMARK INTER + INTRA:          -9.081
REMARK INTER:                  -7.973
REMARK INTRA:                  -1.108
REMARK UNBOUND:                -0.783
REMARK  Name = 
REMARK  6 active torsions:
REMARK  status: ('A' for Active; 'I' for Inactive)
REMARK    1  A    between atoms: C_1  and  C_2
REMARK    2  A    between atoms: C_2  and  C_3
REMARK    3  A    between atoms: C_7  and  C_8
REMARK    4  A    between atoms: C_8  and  C_9
REMARK    5  A    between atoms: C_9  and  N_10
REMARK    6  A    between atoms: C_14  and  C_15
REMARK                            x       y       z     vdW  Elec       q    Type
REMARK                         _______ _______ _______ _____ _____    ______ ____
ROOT
ATOM      1  C   UNL     1      49.069   8.268  11.819  0.00  0.00    +0.000 C 
ENDROOT
BRANCH   1   6
ATOM      2  C   UNL     1      45.696   6.504  12.271  0.00  0.00    +0.000 A 
ATOM      3  C   UNL     1      44.883   7.616  12.569  0.00  0.00    +0.000 A 
ATOM      4  C   UNL     1      45.399   8.914  12.591  0.00  0.00    +0.000 A 
ATOM      5  C   UNL     1      46.745   9.136  12.316  0.00  0.00    +0.000 A 
ATOM      6  C   UNL     1      47.582   8.061  12.009  0.00  0.00    +0.000 A 
ATOM      7  C   UNL     1      47.050   6.759  11.985  0.00  0.00    +0.000 A 
BRANCH   2   9
ATOM      8  C   UNL     1      46.032   4.213  13.220  0.00  0.00    +0.000 C 
ATOM      9  C   UNL     1      45.104   5.087  12.360  0.00  0.00    +0.000 C 
ATOM     10  C   UNL     1      43.662   5.083  12.906  0.00  0.00    +0.000 C 
ATOM     11  C   UNL     1      42.750   4.991  11.683  0.00  0.00    +0.000 C 
ATOM     12  C   UNL     1      43.680   4.877  10.493  0.00  0.00    +0.000 C 
ATOM     13  N   UNL     1      44.923   4.392  11.072  0.00  0.00    +0.000 NA
ATOM     14  H   UNL     1      45.722   4.502  10.458  0.00  0.00    +0.000 HD
ENDBRANCH   2   9
ENDBRANCH   1   6
BRANCH   1  15
ATOM     15  C   UNL     1      49.843   7.378  12.796  0.00  0.00    +0.000 C 
BRANCH  15  16
ATOM     16  N   UNL     1      50.037   8.036  14.093  0.00  0.00    +0.000 N 
ATOM     17  C   UNL     1      49.467   7.298  15.150  0.00  0.00    +0.000 A 
ATOM     18  C   UNL     1      49.550   7.798  16.446  0.00  0.00    +0.000 A 
ATOM     19  C   UNL     1      48.983   7.072  17.500  0.00  0.00    +0.000 A 
ATOM     20  C   UNL     1      48.345   5.857  17.243  0.00  0.00    +0.000 A 
ATOM     21  C   UNL     1      48.329   5.427  15.929  0.00  0.00    +0.000 A 
ATOM     22  N   UNL     1      48.874   6.114  14.897  0.00  0.00    +0.000 NA
ATOM     23  H   UNL     1      49.651   8.977  14.111  0.00  0.00    +0.000 HD
BRANCH  20  24
ATOM     24  C   UNL     1      47.724   5.098  18.355  0.00  0.00    +0.000 C 
ATOM     25  N   UNL     1      46.553   5.553  18.898  0.00  0.00    +0.000 N 
ATOM     26  O   UNL     1      48.249   4.085  18.795  0.00  0.00    +0.000 OA
ATOM     27  H   UNL     1      46.044   6.376  18.618  0.00  0.00    +0.000 HD
ATOM     28  H   UNL     1      46.172   5.011  19.663  0.00  0.00    +0.000 HD
ENDBRANCH  20  24
ENDBRANCH  15  16
ENDBRANCH   1  15
TORSDOF 5
ENDMDL
MODEL 8
REMARK VINA RESULT:    -6.201      3.811      8.489
REMARK INTER + INTRA:          -8.797
REMARK INTER:                  -8.201
REMARK INTRA:                  -0.597
REMARK UNBOUND:                -0.783
REMARK  Name = 
REMARK  6 active torsions:
REMARK  status: ('A' for Active; 'I' for Inactive)
REMARK    1  A    between atoms: C_1  and  C_2
REMARK    2  A    between atoms: C_2  and  C_3
REMARK    3  A    between atoms: C_7  and  C_8
REMARK    4  A    between atoms: C_8  and  C_9
REMARK    5  A    between atoms: C_9  and  N_10
REMARK    6  A    between atoms: C_14  and  C_15
REMARK                            x       y       z     vdW  Elec       q    Type
REMARK                         _______ _______ _______ _____ _____    ______ ____
ROOT
ATOM      1  C   UNL     1      47.797   7.170  12.408  0.00  0.00    +0.000 C 
ENDROOT
BRANCH   1   6
ATOM      2  C   UNL     1      45.204   4.429  11.737  0.00  0.00    +0.000 A 
ATOM      3  C   UNL     1      45.623   3.467  12.679  0.00  0.00    +0.000 A 
ATOM      4  C   UNL     1      46.697   3.707  13.539  0.00  0.00    +0.000 A 
ATOM      5  C   UNL     1      47.384   4.916  13.481  0.00  0.00    +0.000 A 
ATOM      6  C   UNL     1      46.994   5.898  12.566  0.00  0.00    +0.000 A 
ATOM      7  C   UNL     1      45.908   5.646  11.709  0.00  0.00    +0.000 A 
BRANCH   2   9
ATOM      8  C   UNL     1      42.744   4.592  11.303  0.00  0.00    +0.000 C 
ATOM      9  C   UNL     1      44.082   4.077  10.745  0.00  0.00    +0.000 C 
ATOM     10  C   UNL     1      44.351   4.629   9.330  0.00  0.00    +0.000 C 
ATOM     11  C   UNL     1      44.927   3.464   8.527  0.00  0.00    +0.000 C 
ATOM     12  C   UNL     1      44.908   2.276   9.467  0.00  0.00    +0.000 C 
ATOM     13  N   UNL     1      43.911   2.641  10.462  0.00  0.00    +0.000 NA
ATOM     14  H   UNL     1      43.956   2.074  11.302  0.00  0.00    +0.000 HD
ENDBRANCH   2   9
ENDBRANCH   1   6
BRANCH   1  15
ATOM     15  C   UNL     1      48.032   7.807  13.781  0.00  0.00    +0.000 C 
BRANCH  15  16
ATOM     16  N   UNL     1      49.458   7.848  14.123  0.00  0.00    +0.000 N 
ATOM     17  C   UNL     1      49.746   7.092  15.278  0.00  0.00    +0.000 A 
ATOM     18  C   UNL     1      51.055   7.044  15.745  0.00  0.00    +0.000 A 
ATOM     19  C   UNL     1      51.348   6.298  16.893  0.00  0.00    +0.000 A 
ATOM     20  C   UNL     1      50.328   5.611  17.553  0.00  0.00    +0.000 A 
ATOM     21  C   UNL     1      49.061   5.697  17.006  0.00  0.00    +0.000 A 
ATOM     22  N   UNL     1      48.760   6.411  15.896  0.00  0.00    +0.000 NA
ATOM     23  H   UNL     1      49.795   8.797  14.267  0.00  0.00    +0.000 HD
BRANCH  20  24
ATOM     24  C   UNL     1      50.633   4.839  18.783  0.00  0.00    +0.000 C 
ATOM     25  N   UNL     1      51.286   3.642  18.673  0.00  0.00    +0.000 N 
ATOM     26  O   UNL     1      50.299   5.255  19.885  0.00  0.00    +0.000 OA
ATOM     27  H   UNL     1      51.597   3.207  17.820  0.00  0.00    +0.000 HD
ATOM     28  H   UNL     1      51.461   3.144  19.537  0.00  0.00    +0.000 HD
ENDBRANCH  20  24
ENDBRANCH  15  16
ENDBRANCH   1  15
TORSDOF 5
ENDMDL
MODEL 9
REMARK VINA RESULT:    -6.168      3.748      6.196
REMARK INTER + INTRA:          -8.754
REMARK INTER:                  -7.960
REMARK INTRA:                  -0.793
REMARK UNBOUND:                -0.783
REMARK  Name = 
REMARK  6 active torsions:
REMARK  status: ('A' for Active; 'I' for Inactive)
REMARK    1  A    between atoms: C_1  and  C_2
REMARK    2  A    between atoms: C_2  and  C_3
REMARK    3  A    between atoms: C_7  and  C_8
REMARK    4  A    between atoms: C_8  and  C_9
REMARK    5  A    between atoms: C_9  and  N_10
REMARK    6  A    between atoms: C_14  and  C_15
REMARK                            x       y       z     vdW  Elec       q    Type
REMARK                         _______ _______ _______ _____ _____    ______ ____
ROOT
ATOM      1  C   UNL     1      47.086   3.598  17.282  0.00  0.00    +0.000 C 
ENDROOT
BRANCH   1   6
ATOM      2  C   UNL     1      49.968   5.469  18.979  0.00  0.00    +0.000 A 
ATOM      3  C   UNL     1      49.244   6.502  19.609  0.00  0.00    +0.000 A 
ATOM      4  C   UNL     1      47.853   6.579  19.520  0.00  0.00    +0.000 A 
ATOM      5  C   UNL     1      47.144   5.623  18.797  0.00  0.00    +0.000 A 
ATOM      6  C   UNL     1      47.824   4.580  18.165  0.00  0.00    +0.000 A 
ATOM      7  C   UNL     1      49.225   4.511  18.265  0.00  0.00    +0.000 A 
BRANCH   2   9
ATOM      8  C   UNL     1      51.976   4.805  20.318  0.00  0.00    +0.000 C 
ATOM      9  C   UNL     1      51.505   5.487  19.021  0.00  0.00    +0.000 C 
ATOM     10  C   UNL     1      52.138   4.829  17.779  0.00  0.00    +0.000 C 
ATOM     11  C   UNL     1      52.516   5.977  16.842  0.00  0.00    +0.000 C 
ATOM     12  C   UNL     1      52.158   7.244  17.592  0.00  0.00    +0.000 C 
ATOM     13  N   UNL     1      52.127   6.824  18.984  0.00  0.00    +0.000 NA
ATOM     14  H   UNL     1      51.657   7.485  19.592  0.00  0.00    +0.000 HD
ENDBRANCH   2   9
ENDBRANCH   1   6
BRANCH   1  15
ATOM     15  C   UNL     1      47.583   3.726  15.839  0.00  0.00    +0.000 C 
BRANCH  15  16
ATOM     16  N   UNL     1      47.102   4.959  15.206  0.00  0.00    +0.000 N 
ATOM     17  C   UNL     1      46.426   4.702  13.996  0.00  0.00    +0.000 A 
ATOM     18  C   UNL     1      45.922   5.772  13.262  0.00  0.00    +0.000 A 
ATOM     19  C   UNL     1      45.252   5.525  12.059  0.00  0.00    +0.000 A 
ATOM     20  C   UNL     1      45.095   4.213  11.608  0.00  0.00    +0.000 A 
ATOM     21  C   UNL     1      45.609   3.211  12.411  0.00  0.00    +0.000 A 
ATOM     22  N   UNL     1      46.256   3.431  13.580  0.00  0.00    +0.000 NA
ATOM     23  H   UNL     1      47.853   5.619  15.022  0.00  0.00    +0.000 HD
BRANCH  20  24
ATOM     24  C   UNL     1      44.407   3.951  10.320  0.00  0.00    +0.000 C 
ATOM     25  N   UNL     1      44.599   4.813   9.276  0.00  0.00    +0.000 N 
ATOM     26  O   UNL     1      43.667   2.985  10.188  0.00  0.00    +0.000 OA
ATOM     27  H   UNL     1      45.178   5.637   9.280  0.00  0.00    +0.000 HD
ATOM     28  H   UNL     1      44.100   4.602   8.421  0.00  0.00    +0.000 HD
ENDBRANCH  20  24
ENDBRANCH  15  16
ENDBRANCH   1  15
TORSDOF 5
ENDMDL
