MODEL 1
REMARK VINA RESULT:    -7.707      0.000      0.000
REMARK INTER + INTRA:         -10.638
REMARK INTER:                  -9.960
REMARK INTRA:                  -0.678
REMARK UNBOUND:                -0.678
REMARK  Name = 
REMARK  5 active torsions:
REMARK  status: ('A' for Active; 'I' for Inactive)
REMARK    1  A    between atoms: C_2  and  C_4
REMARK    2  A    between atoms: C_7  and  N_8
REMARK    3  A    between atoms: N_8  and  C_9
REMARK    4  A    between atoms: C_9  and  C_10
REMARK    5  A    between atoms: C_15  and  C_16
REMARK                            x       y       z     vdW  Elec       q    Type
REMARK                         _______ _______ _______ _____ _____    ______ ____
ROOT
ATOM      1  N   UNL     1      43.769   4.987   9.556  0.00  0.00    +0.000 N 
ATOM      2  H   UNL     1      42.855   4.930   9.102  0.00  0.00    +0.000 HD
ENDROOT
BRANCH   1   6
ATOM      3  C   UNL     1      46.251   2.122   7.994  0.00  0.00    +0.000 A 
ATOM      4  C   UNL     1      46.406   3.455   7.647  0.00  0.00    +0.000 A 
ATOM      5  N   UNL     1      45.632   4.446   8.173  0.00  0.00    +0.000 NA
ATOM      6  C   UNL     1      44.679   4.062   9.051  0.00  0.00    +0.000 A 
ATOM      7  C   UNL     1      44.521   2.702   9.360  0.00  0.00    +0.000 A 
ATOM      8  N   UNL     1      45.301   1.704   8.872  0.00  0.00    +0.000 NA
BRANCH   3  10
ATOM      9  N   UNL     1      46.799  -0.214   7.700  0.00  0.00    +0.000 N 
ATOM     10  C   UNL     1      47.137   1.081   7.405  0.00  0.00    +0.000 C 
ATOM     11  O   UNL     1      48.107   1.355   6.709  0.00  0.00    +0.000 OA
ATOM     12  H   UNL     1      47.352  -0.974   7.329  0.00  0.00    +0.000 HD
ATOM     13  H   UNL     1      45.985  -0.403   8.275  0.00  0.00    +0.000 HD
ENDBRANCH   3  10
ENDBRANCH   1   6
BRANCH   1  14
ATOM     14  C   UNL     1      43.553   4.976  11.005  0.00  0.00    +0.000 C 
BRANCH  14  15
ATOM     15  C   UNL     1      44.552   5.943  11.654  0.00  0.00    +0.000 A 
ATOM     16  N   UNL     1      44.429   7.256  11.266  0.00  0.00    +0.000 NA
ATOM     17  C   UNL     1      45.281   8.168  11.781  0.00  0.00    +0.000 A 
ATOM     18  C   UNL     1      46.253   7.857  12.704  0.00  0.00    +0.000 A 
ATOM     19  C   UNL     1      46.359   6.534  13.120  0.00  0.00    +0.000 A 
ATOM     20  C   UNL     1      45.503   5.545  12.597  0.00  0.00    +0.000 A 
BRANCH  20  21
ATOM     21  C   UNL     1      45.649   4.139  13.103  0.00  0.00    +0.000 C 
ATOM     22  F   UNL     1      46.004   3.223  12.164  0.00  0.00    +0.000 F 
ATOM     23  F   UNL     1      46.587   4.042  14.086  0.00  0.00    +0.000 F 
ATOM     24  F   UNL     1      44.492   3.674  13.651  0.00  0.00    +0.000 F 
ENDBRANCH  20  21
ENDBRANCH  14  15
ENDBRANCH   1  14
TORSDOF 5
ENDMDL
MODEL 2
REMARK VINA RESULT:    -7.442      1.645      2.091
REMARK INTER + INTRA:         -10.296
REMARK INTER:                 -10.053
REMARK INTRA:                  -0.242
REMARK UNBOUND:                -0.678
REMARK  Name = 
REMARK  5 active torsions:
REMARK  status: ('A' for Active; 'I' for Inactive)
REMARK    1  A    between atoms: C_2  and  C_4
REMARK    2  A    between atoms: C_7  and  N_8
REMARK    3  A    between atoms: N_8  and  C_9
REMARK    4  A    between atoms: C_9  and  C_10
REMARK    5  A    between atoms: C_15  and  C_16
REMARK                            x       y       z     vdW  Elec       q    Type
REMARK                         _______ _______ _______ _____ _____    ______ ____
ROOT
ATOM      1  N   UNL     1      43.831   4.781   9.824  0.00  0.00    +0.000 N 
ATOM      2  H   UNL     1      43.343   4.209  10.516  0.00  0.00    +0.000 HD
ENDROOT
BRANCH   1   6
ATOM      3  C   UNL     1      46.514   2.527   7.695  0.00  0.00    +0.000 A 
ATOM      4  C   UNL     1      46.444   3.899   7.513  0.00  0.00    +0.000 A 
ATOM      5  N   UNL     1      45.598   4.693   8.229  0.00  0.00    +0.000 NA
ATOM      6  C   UNL     1      44.804   4.070   9.127  0.00  0.00    +0.000 A 
ATOM      7  C   UNL     1      44.870   2.675   9.268  0.00  0.00    +0.000 A 
ATOM      8  N   UNL     1      45.727   1.870   8.588  0.00  0.00    +0.000 NA
BRANCH   3  10
ATOM      9  N   UNL     1      48.559   2.383   6.414  0.00  0.00    +0.000 N 
ATOM     10  C   UNL     1      47.471   1.708   6.902  0.00  0.00    +0.000 C 
ATOM     11  O   UNL     1      47.302   0.514   6.692  0.00  0.00    +0.000 OA
ATOM     12  H   UNL     1      49.254   1.890   5.872  0.00  0.00    +0.000 HD
ATOM     13  H   UNL     1      48.669   3.372   6.615  0.00  0.00    +0.000 HD
ENDBRANCH   3  10
ENDBRANCH   1   6
BRANCH   1  14
ATOM     14  C   UNL     1      44.263   6.016  10.484  0.00  0.00    +0.000 C 
BRANCH  14  15
ATOM     15  C   UNL     1      45.129   5.643  11.695  0.00  0.00    +0.000 A 
ATOM     16  N   UNL     1      46.417   6.123  11.661  0.00  0.00    +0.000 NA
ATOM     17  C   UNL     1      47.248   5.826  12.682  0.00  0.00    +0.000 A 
ATOM     18  C   UNL     1      46.863   5.090  13.780  0.00  0.00    +0.000 A 
ATOM     19  C   UNL     1      45.552   4.629  13.829  0.00  0.00    +0.000 A 
ATOM     20  C   UNL     1      44.654   4.899  12.778  0.00  0.00    +0.000 A 
BRANCH  20  21
ATOM     21  C   UNL     1      43.245   4.396  12.900  0.00  0.00    +0.000 C 
ATOM     22  F   UNL     1      42.282   5.295  12.563  0.00  0.00    +0.000 F 
ATOM     23  F   UNL     1      43.020   3.304  12.118  0.00  0.00    +0.000 F 
ATOM     24  F   UNL     1      42.954   4.005  14.172  0.00  0.00    +0.000 F 
ENDBRANCH  20  21
ENDBRANCH  14  15
ENDBRANCH   1  14
TORSDOF 5
ENDMDL
MODEL 3
REMARK VINA RESULT:    -7.402      2.107      2.678
REMARK INTER + INTRA:         -10.244
REMARK INTER:                 -10.264
REMARK INTRA:                   0.020
REMARK UNBOUND:                -0.678
REMARK  Name = 
REMARK  5 active torsions:
REMARK  status: ('A' for Active; 'I' for Inactive)
REMARK    1  A    between atoms: C_2  and  C_4
REMARK    2  A    between atoms: C_7  and  N_8
REMARK    3  A    between atoms: N_8  and  C_9
REMARK    4  A    between atoms: C_9  and  C_10
REMARK    5  A    between atoms: C_15  and  C_16
REMARK                            x       y       z     vdW  Elec       q    Type
REMARK                         _______ _______ _______ _____ _____    ______ ____
ROOT
ATOM      1  N   UNL     1      43.796   4.734   9.857  0.00  0.00    +0.000 N 
ATOM      2  H   UNL     1      42.914   4.818   9.347  0.00  0.00    +0.000 HD
ENDROOT
BRANCH   1   6
ATOM      3  C   UNL     1      46.448   2.493   7.676  0.00  0.00    +0.000 A 
ATOM      4  C   UNL     1      46.478   3.878   7.617  0.00  0.00    +0.000 A 
ATOM      5  N   UNL     1      45.645   4.663   8.356  0.00  0.00    +0.000 NA
ATOM      6  C   UNL     1      44.761   4.021   9.151  0.00  0.00    +0.000 A 
ATOM      7  C   UNL     1      44.727   2.618   9.167  0.00  0.00    +0.000 A 
ATOM      8  N   UNL     1      45.569   1.817   8.463  0.00  0.00    +0.000 NA
BRANCH   3  10
ATOM      9  N   UNL     1      48.501   2.350   6.407  0.00  0.00    +0.000 N 
ATOM     10  C   UNL     1      47.395   1.682   6.864  0.00  0.00    +0.000 C 
ATOM     11  O   UNL     1      47.204   0.499   6.613  0.00  0.00    +0.000 OA
ATOM     12  H   UNL     1      49.191   1.862   5.855  0.00  0.00    +0.000 HD
ATOM     13  H   UNL     1      48.628   3.329   6.642  0.00  0.00    +0.000 HD
ENDBRANCH   3  10
ENDBRANCH   1   6
BRANCH   1  14
ATOM     14  C   UNL     1      43.491   4.267  11.212  0.00  0.00    +0.000 C 
BRANCH  14  15
ATOM     15  C   UNL     1      44.735   4.467  12.087  0.00  0.00    +0.000 A 
ATOM     16  N   UNL     1      45.323   3.309  12.539  0.00  0.00    +0.000 NA
ATOM     17  C   UNL     1      46.415   3.401  13.328  0.00  0.00    +0.000 A 
ATOM     18  C   UNL     1      46.993   4.598  13.682  0.00  0.00    +0.000 A 
ATOM     19  C   UNL     1      46.416   5.769  13.201  0.00  0.00    +0.000 A 
ATOM     20  C   UNL     1      45.266   5.723  12.389  0.00  0.00    +0.000 A 
BRANCH  20  21
ATOM     21  C   UNL     1      44.704   7.019  11.880  0.00  0.00    +0.000 C 
ATOM     22  F   UNL     1      45.149   7.397  10.653  0.00  0.00    +0.000 F 
ATOM     23  F   UNL     1      43.346   6.988  11.787  0.00  0.00    +0.000 F 
ATOM     24  F   UNL     1      44.992   8.059  12.712  0.00  0.00    +0.000 F 
ENDBRANCH  20  21
ENDBRANCH  14  15
ENDBRANCH   1  14
TORSDOF 5
ENDMDL
MODEL 4
REMARK VINA RESULT:    -7.041      2.257      2.845
REMARK INTER + INTRA:          -9.777
REMARK INTER:                  -9.358
REMARK INTRA:                  -0.419
REMARK UNBOUND:                -0.678
REMARK  Name = 
REMARK  5 active torsions:
REMARK  status: ('A' for Active; 'I' for Inactive)
REMARK    1  A    between atoms: C_2  and  C_4
REMARK    2  A    between atoms: C_7  and  N_8
REMARK    3  A    between atoms: N_8  and  C_9
REMARK    4  A    between atoms: C_9  and  C_10
REMARK    5  A    between atoms: C_15  and  C_16
REMARK                            x       y       z     vdW  Elec       q    Type
REMARK                         _______ _______ _______ _____ _____    ______ ____
ROOT
ATOM      1  N   UNL     1      44.420   5.043  10.039  0.00  0.00    +0.000 N 
ATOM      2  H   UNL     1      43.912   4.504  10.743  0.00  0.00    +0.000 HD
ENDROOT
BRANCH   1   6
ATOM      3  C   UNL     1      46.606   2.560   7.617  0.00  0.00    +0.000 A 
ATOM      4  C   UNL     1      46.645   3.934   7.439  0.00  0.00    +0.000 A 
ATOM      5  N   UNL     1      45.969   4.799   8.247  0.00  0.00    +0.000 NA
ATOM      6  C   UNL     1      45.232   4.248   9.235  0.00  0.00    +0.000 A 
ATOM      7  C   UNL     1      45.181   2.852   9.373  0.00  0.00    +0.000 A 
ATOM      8  N   UNL     1      45.872   1.974   8.601  0.00  0.00    +0.000 NA
BRANCH   3  10
ATOM      9  N   UNL     1      48.414   2.250   6.044  0.00  0.00    +0.000 N 
ATOM     10  C   UNL     1      47.380   1.659   6.721  0.00  0.00    +0.000 C 
ATOM     11  O   UNL     1      47.115   0.471   6.588  0.00  0.00    +0.000 OA
ATOM     12  H   UNL     1      48.988   1.699   5.422  0.00  0.00    +0.000 HD
ATOM     13  H   UNL     1      48.609   3.237   6.185  0.00  0.00    +0.000 HD
ENDBRANCH   3  10
ENDBRANCH   1   6
BRANCH   1  14
ATOM     14  C   UNL     1      45.064   6.172  10.715  0.00  0.00    +0.000 C 
BRANCH  14  15
ATOM     15  C   UNL     1      45.729   5.657  11.999  0.00  0.00    +0.000 A 
ATOM     16  N   UNL     1      45.166   4.522  12.532  0.00  0.00    +0.000 NA
ATOM     17  C   UNL     1      45.684   4.013  13.670  0.00  0.00    +0.000 A 
ATOM     18  C   UNL     1      46.773   4.556  14.313  0.00  0.00    +0.000 A 
ATOM     19  C   UNL     1      47.362   5.687  13.758  0.00  0.00    +0.000 A 
ATOM     20  C   UNL     1      46.845   6.263  12.581  0.00  0.00    +0.000 A 
BRANCH  20  21
ATOM     21  C   UNL     1      47.538   7.469  12.016  0.00  0.00    +0.000 C 
ATOM     22  F   UNL     1      48.161   7.268  10.824  0.00  0.00    +0.000 F 
ATOM     23  F   UNL     1      46.680   8.507  11.814  0.00  0.00    +0.000 F 
ATOM     24  F   UNL     1      48.498   7.943  12.858  0.00  0.00    +0.000 F 
ENDBRANCH  20  21
ENDBRANCH  14  15
ENDBRANCH   1  14
TORSDOF 5
ENDMDL
MODEL 5
REMARK VINA RESULT:    -6.696      3.622      6.214
REMARK INTER + INTRA:          -9.331
REMARK INTER:                  -8.955
REMARK INTRA:                  -0.376
REMARK UNBOUND:                -0.678
REMARK  Name = 
REMARK  5 active torsions:
REMARK  status: ('A' for Active; 'I' for Inactive)
REMARK    1  A    between atoms: C_2  and  C_4
REMARK    2  A    between atoms: C_7  and  N_8
REMARK    3  A    between atoms: N_8  and  C_9
REMARK    4  A    between atoms: C_9  and  C_10
REMARK    5  A    between atoms: C_15  and  C_16
REMARK                            x       y       z     vdW  Elec       q    Type
REMARK                         _______ _______ _______ _____ _____    ______ ____
ROOT
ATOM      1  N   UNL     1      46.482   6.267  11.373  0.00  0.00    +0.000 N 
ATOM      2  H   UNL     1      47.079   5.933  10.615  0.00  0.00    +0.000 HD
ENDROOT
BRANCH   1   6
ATOM      3  C   UNL     1      47.862   5.423  15.140  0.00  0.00    +0.000 A 
ATOM      4  C   UNL     1      46.738   4.784  14.641  0.00  0.00    +0.000 A 
ATOM      5  N   UNL     1      46.268   5.002  13.380  0.00  0.00    +0.000 NA
ATOM      6  C   UNL     1      46.949   5.896  12.631  0.00  0.00    +0.000 A 
ATOM      7  C   UNL     1      48.064   6.555  13.172  0.00  0.00    +0.000 A 
ATOM      8  N   UNL     1      48.568   6.330  14.413  0.00  0.00    +0.000 NA
BRANCH   3  10
ATOM      9  N   UNL     1      47.394   5.193  17.501  0.00  0.00    +0.000 N 
ATOM     10  C   UNL     1      48.346   5.133  16.518  0.00  0.00    +0.000 C 
ATOM     11  O   UNL     1      49.515   4.864  16.764  0.00  0.00    +0.000 OA
ATOM     12  H   UNL     1      47.648   5.002  18.459  0.00  0.00    +0.000 HD
ATOM     13  H   UNL     1      46.433   5.413  17.257  0.00  0.00    +0.000 HD
ENDBRANCH   3  10
ENDBRANCH   1   6
BRANCH   1  14
ATOM     14  C   UNL     1      45.099   5.904  11.051  0.00  0.00    +0.000 C 
BRANCH  14  15
ATOM     15  C   UNL     1      45.122   4.757  10.031  0.00  0.00    +0.000 A 
ATOM     16  N   UNL     1      45.884   4.987   8.911  0.00  0.00    +0.000 NA
ATOM     17  C   UNL     1      45.944   4.031   7.959  0.00  0.00    +0.000 A 
ATOM     18  C   UNL     1      45.304   2.818   8.064  0.00  0.00    +0.000 A 
ATOM     19  C   UNL     1      44.556   2.573   9.211  0.00  0.00    +0.000 A 
ATOM     20  C   UNL     1      44.450   3.547  10.223  0.00  0.00    +0.000 A 
BRANCH  20  21
ATOM     21  C   UNL     1      43.649   3.214  11.449  0.00  0.00    +0.000 C 
ATOM     22  F   UNL     1      44.361   3.166  12.606  0.00  0.00    +0.000 F 
ATOM     23  F   UNL     1      42.649   4.112  11.668  0.00  0.00    +0.000 F 
ATOM     24  F   UNL     1      43.038   2.001  11.342  0.00  0.00    +0.000 F 
ENDBRANCH  20  21
ENDBRANCH  14  15
ENDBRANCH   1  14
TORSDOF 5
ENDMDL
MODEL 6
REMARK VINA RESULT:    -6.226      5.626      7.737
REMARK INTER + INTRA:          -8.723
REMARK INTER:                  -8.278
REMARK INTRA:                  -0.445
REMARK UNBOUND:                -0.678
REMARK  Name = 
REMARK  5 active torsions:
REMARK  status: ('A' for Active; 'I' for Inactive)
REMARK    1  A    between atoms: C_2  and  C_4
REMARK    2  A    between atoms: C_7  and  N_8
REMARK    3  A    between atoms: N_8  and  C_9
REMARK    4  A    between atoms: C_9  and  C_10
REMARK    5  A    between atoms: C_15  and  C_16
REMARK                            x       y       z     vdW  Elec       q    Type
REMARK                         _______ _______ _______ _____ _____    ______ ____
ROOT
ATOM      1  N   UNL     1      46.833   3.636  14.492  0.00  0.00    +0.000 N 
ATOM      2  H   UNL     1      45.925   3.173  14.560  0.00  0.00    +0.000 HD
ENDROOT
BRANCH   1   6
ATOM      3  C   UNL     1      48.439   4.430  18.180  0.00  0.00    +0.000 A 
ATOM      4  C   UNL     1      47.957   3.166  17.877  0.00  0.00    +0.000 A 
ATOM      5  N   UNL     1      47.454   2.846  16.652  0.00  0.00    +0.000 NA
ATOM      6  C   UNL     1      47.430   3.836  15.734  0.00  0.00    +0.000 A 
ATOM      7  C   UNL     1      47.892   5.117  16.076  0.00  0.00    +0.000 A 
ATOM      8  N   UNL     1      48.427   5.449  17.279  0.00  0.00    +0.000 NA
BRANCH   3  10
ATOM      9  N   UNL     1      48.565   3.901  20.535  0.00  0.00    +0.000 N 
ATOM     10  C   UNL     1      48.998   4.723  19.528  0.00  0.00    +0.000 C 
ATOM     11  O   UNL     1      49.788   5.636  19.731  0.00  0.00    +0.000 OA
ATOM     12  H   UNL     1      48.907   4.036  21.476  0.00  0.00    +0.000 HD
ATOM     13  H   UNL     1      47.915   3.150  20.327  0.00  0.00    +0.000 HD
ENDBRANCH   3  10
ENDBRANCH   1   6
BRANCH   1  14
ATOM     14  C   UNL     1      46.674   4.817  13.639  0.00  0.00    +0.000 C 
BRANCH  14  15
ATOM     15  C   UNL     1      45.410   4.636  12.787  0.00  0.00    +0.000 A 
ATOM     16  N   UNL     1      44.808   3.404  12.891  0.00  0.00    +0.000 NA
ATOM     17  C   UNL     1      43.698   3.161  12.162  0.00  0.00    +0.000 A 
ATOM     18  C   UNL     1      43.116   4.096  11.337  0.00  0.00    +0.000 A 
ATOM     19  C   UNL     1      43.708   5.351  11.254  0.00  0.00    +0.000 A 
ATOM     20  C   UNL     1      44.876   5.646  11.983  0.00  0.00    +0.000 A 
BRANCH  20  21
ATOM     21  C   UNL     1      45.455   7.027  11.872  0.00  0.00    +0.000 C 
ATOM     22  F   UNL     1      46.745   7.078  11.446  0.00  0.00    +0.000 F 
ATOM     23  F   UNL     1      44.751   7.810  11.009  0.00  0.00    +0.000 F 
ATOM     24  F   UNL     1      45.435   7.684  13.065  0.00  0.00    +0.000 F 
ENDBRANCH  20  21
ENDBRANCH  14  15
ENDBRANCH   1  14
TORSDOF 5
ENDMDL
MODEL 7
REMARK VINA RESULT:    -6.201      3.969      6.102
REMARK INTER + INTRA:          -8.692
REMARK INTER:                  -8.633
REMARK INTRA:                  -0.059
REMARK UNBOUND:                -0.678
REMARK  Name = 
REMARK  5 active torsions:
REMARK  status: ('A' for Active; 'I' for Inactive)
REMARK    1  A    between atoms: C_2  and  C_4
REMARK    2  A    between atoms: C_7  and  N_8
REMARK    3  A    between atoms: N_8  and  C_9
REMARK    4  A    between atoms: C_9  and  C_10
REMARK    5  A    between atoms: C_15  and  C_16
REMARK                            x       y       z     vdW  Elec       q    Type
REMARK                         _______ _______ _______ _____ _____    ______ ____
ROOT
ATOM      1  N   UNL     1      47.153   6.332  12.194  0.00  0.00    +0.000 N 
ATOM      2  H   UNL     1      47.568   5.763  11.454  0.00  0.00    +0.000 HD
ENDROOT
BRANCH   1   6
ATOM      3  C   UNL     1      47.424   4.318  15.755  0.00  0.00    +0.000 A 
ATOM      4  C   UNL     1      47.992   5.574  15.610  0.00  0.00    +0.000 A 
ATOM      5  N   UNL     1      47.890   6.298  14.459  0.00  0.00    +0.000 NA
ATOM      6  C   UNL     1      47.214   5.719  13.443  0.00  0.00    +0.000 A 
ATOM      7  C   UNL     1      46.679   4.432  13.604  0.00  0.00    +0.000 A 
ATOM      8  N   UNL     1      46.741   3.708  14.751  0.00  0.00    +0.000 NA
BRANCH   3  10
ATOM      9  N   UNL     1      48.741   3.728  17.695  0.00  0.00    +0.000 N 
ATOM     10  C   UNL     1      47.546   3.579  17.041  0.00  0.00    +0.000 C 
ATOM     11  O   UNL     1      46.647   2.878  17.488  0.00  0.00    +0.000 OA
ATOM     12  H   UNL     1      48.893   3.261  18.577  0.00  0.00    +0.000 HD
ATOM     13  H   UNL     1      49.461   4.323  17.297  0.00  0.00    +0.000 HD
ENDBRANCH   3  10
ENDBRANCH   1   6
BRANCH   1  14
ATOM     14  C   UNL     1      45.831   6.770  11.739  0.00  0.00    +0.000 C 
BRANCH  14  15
ATOM     15  C   UNL     1      45.280   5.722  10.763  0.00  0.00    +0.000 A 
ATOM     16  N   UNL     1      46.029   5.532   9.626  0.00  0.00    +0.000 NA
ATOM     17  C   UNL     1      45.603   4.637   8.710  0.00  0.00    +0.000 A 
ATOM     18  C   UNL     1      44.468   3.875   8.868  0.00  0.00    +0.000 A 
ATOM     19  C   UNL     1      43.726   4.045  10.032  0.00  0.00    +0.000 A 
ATOM     20  C   UNL     1      44.122   4.980  11.008  0.00  0.00    +0.000 A 
BRANCH  20  21
ATOM     21  C   UNL     1      43.293   5.101  12.254  0.00  0.00    +0.000 C 
ATOM     22  F   UNL     1      43.098   3.938  12.931  0.00  0.00    +0.000 F 
ATOM     23  F   UNL     1      43.842   5.963  13.154  0.00  0.00    +0.000 F 
ATOM     24  F   UNL     1      42.048   5.586  11.991  0.00  0.00    +0.000 F 
ENDBRANCH  20  21
ENDBRANCH  14  15
ENDBRANCH   1  14
TORSDOF 5
ENDMDL
MODEL 8
REMARK VINA RESULT:    -6.059      4.086      5.342
REMARK INTER + INTRA:          -8.508
REMARK INTER:                  -8.137
REMARK INTRA:                  -0.371
REMARK UNBOUND:                -0.678
REMARK  Name = 
REMARK  5 active torsions:
REMARK  status: ('A' for Active; 'I' for Inactive)
REMARK    1  A    between atoms: C_2  and  C_4
REMARK    2  A    between atoms: C_7  and  N_8
REMARK    3  A    between atoms: N_8  and  C_9
REMARK    4  A    between atoms: C_9  and  C_10
REMARK    5  A    between atoms: C_15  and  C_16
REMARK                            x       y       z     vdW  Elec       q    Type
REMARK                         _______ _______ _______ _____ _____    ______ ____
ROOT
ATOM      1  N   UNL     1      46.692   5.361  14.348  0.00  0.00    +0.000 N 
ATOM      2  H   UNL     1      46.078   5.915  14.949  0.00  0.00    +0.000 HD
ENDROOT
BRANCH   1   6
ATOM      3  C   UNL     1      45.008   4.041  10.851  0.00  0.00    +0.000 A 
ATOM      4  C   UNL     1      45.017   3.235  11.978  0.00  0.00    +0.000 A 
ATOM      5  N   UNL     1      45.527   3.648  13.173  0.00  0.00    +0.000 NA
ATOM      6  C   UNL     1      46.048   4.894  13.206  0.00  0.00    +0.000 A 
ATOM      7  C   UNL     1      46.058   5.677  12.041  0.00  0.00    +0.000 A 
ATOM      8  N   UNL     1      45.527   5.298  10.850  0.00  0.00    +0.000 NA
BRANCH   3  10
ATOM      9  N   UNL     1      43.984   4.522   8.715  0.00  0.00    +0.000 N 
ATOM     10  C   UNL     1      44.419   3.549   9.575  0.00  0.00    +0.000 C 
ATOM     11  O   UNL     1      44.322   2.358   9.309  0.00  0.00    +0.000 OA
ATOM     12  H   UNL     1      43.579   4.263   7.826  0.00  0.00    +0.000 HD
ATOM     13  H   UNL     1      44.088   5.500   8.967  0.00  0.00    +0.000 HD
ENDBRANCH   3  10
ENDBRANCH   1   6
BRANCH   1  14
ATOM     14  C   UNL     1      47.358   4.360  15.186  0.00  0.00    +0.000 C 
BRANCH  14  15
ATOM     15  C   UNL     1      48.129   5.089  16.295  0.00  0.00    +0.000 A 
ATOM     16  N   UNL     1      48.419   6.407  16.035  0.00  0.00    +0.000 NA
ATOM     17  C   UNL     1      49.107   7.114  16.956  0.00  0.00    +0.000 A 
ATOM     18  C   UNL     1      49.512   6.591  18.163  0.00  0.00    +0.000 A 
ATOM     19  C   UNL     1      49.193   5.265  18.439  0.00  0.00    +0.000 A 
ATOM     20  C   UNL     1      48.491   4.484  17.501  0.00  0.00    +0.000 A 
BRANCH  20  21
ATOM     21  C   UNL     1      48.155   3.067  17.866  0.00  0.00    +0.000 C 
ATOM     22  F   UNL     1      48.826   2.116  17.163  0.00  0.00    +0.000 F 
ATOM     23  F   UNL     1      48.406   2.801  19.178  0.00  0.00    +0.000 F 
ATOM     24  F   UNL     1      46.832   2.796  17.683  0.00  0.00    +0.000 F 
ENDBRANCH  20  21
ENDBRANCH  14  15
ENDBRANCH   1  14
TORSDOF 5
ENDMDL
MODEL 9
REMARK VINA RESULT:    -6.002      4.890      6.413
REMARK INTER + INTRA:          -8.435
REMARK INTER:                  -7.949
REMARK INTRA:                  -0.486
REMARK UNBOUND:                -0.678
REMARK  Name = 
REMARK  5 active torsions:
REMARK  status: ('A' for Active; 'I' for Inactive)
REMARK    1  A    between atoms: C_2  and  C_4
REMARK    2  A    between atoms: C_7  and  N_8
REMARK    3  A    between atoms: N_8  and  C_9
REMARK    4  A    between atoms: C_9  and  C_10
REMARK    5  A    between atoms: C_15  and  C_16
REMARK                            x       y       z     vdW  Elec       q    Type
REMARK                         _______ _______ _______ _____ _____    ______ ____
ROOT
ATOM      1  N   UNL     1      47.304   5.018  15.055  0.00  0.00    +0.000 N 
ATOM      2  H   UNL     1      47.265   6.015  15.273  0.00  0.00    +0.000 HD
ENDROOT
BRANCH   1   6
ATOM      3  C   UNL     1      45.002   4.150  11.775  0.00  0.00    +0.000 A 
ATOM      4  C   UNL     1      45.626   3.137  12.487  0.00  0.00    +0.000 A 
ATOM      5  N   UNL     1      46.365   3.375  13.608  0.00  0.00    +0.000 NA
ATOM      6  C   UNL     1      46.479   4.666  13.990  0.00  0.00    +0.000 A 
ATOM      7  C   UNL     1      45.866   5.676  13.232  0.00  0.00    +0.000 A 
ATOM      8  N   UNL     1      45.100   5.458  12.132  0.00  0.00    +0.000 NA
BRANCH   3  10
ATOM      9  N   UNL     1      44.321   2.558  10.088  0.00  0.00    +0.000 N 
ATOM     10  C   UNL     1      44.189   3.834  10.569  0.00  0.00    +0.000 C 
ATOM     11  O   UNL     1      43.453   4.655  10.036  0.00  0.00    +0.000 OA
ATOM     12  H   UNL     1      43.793   2.270   9.276  0.00  0.00    +0.000 HD
ATOM     13  H   UNL     1      44.935   1.903  10.561  0.00  0.00    +0.000 HD
ENDBRANCH   3  10
ENDBRANCH   1   6
BRANCH   1  14
ATOM     14  C   UNL     1      47.118   4.277  16.306  0.00  0.00    +0.000 C 
BRANCH  14  15
ATOM     15  C   UNL     1      48.492   3.810  16.804  0.00  0.00    +0.000 A 
ATOM     16  N   UNL     1      48.875   2.561  16.377  0.00  0.00    +0.000 NA
ATOM     17  C   UNL     1      50.065   2.072  16.784  0.00  0.00    +0.000 A 
ATOM     18  C   UNL     1      50.936   2.774  17.585  0.00  0.00    +0.000 A 
ATOM     19  C   UNL     1      50.563   4.050  17.994  0.00  0.00    +0.000 A 
ATOM     20  C   UNL     1      49.323   4.595  17.608  0.00  0.00    +0.000 A 
BRANCH  20  21
ATOM     21  C   UNL     1      48.986   5.986  18.060  0.00  0.00    +0.000 C 
ATOM     22  F   UNL     1      48.859   6.901  17.063  0.00  0.00    +0.000 F 
ATOM     23  F   UNL     1      47.815   6.032  18.753  0.00  0.00    +0.000 F 
ATOM     24  F   UNL     1      49.932   6.489  18.902  0.00  0.00    +0.000 F 
ENDBRANCH  20  21
ENDBRANCH  14  15
ENDBRANCH   1  14
TORSDOF 5
ENDMDL
