MODEL 1
REMARK VINA RESULT:    -8.929      0.000      0.000
REMARK INTER + INTRA:         -12.343
REMARK INTER:                 -11.539
REMARK INTRA:                  -0.804
REMARK UNBOUND:                -0.804
REMARK  Name = 
REMARK  5 active torsions:
REMARK  status: ('A' for Active; 'I' for Inactive)
REMARK    1  A    between atoms: C_2  and  C_4
REMARK    2  A    between atoms: C_7  and  O_8
REMARK    3  A    between atoms: O_8  and  C_9
REMARK    4  A    between atoms: C_9  and  C_10
REMARK    5  A    between atoms: C_15  and  C_16
REMARK                            x       y       z     vdW  Elec       q    Type
REMARK                         _______ _______ _______ _____ _____    ______ ____
ROOT
ATOM      1  C   UNL     1      43.624   4.348  11.168  0.00  0.00    +0.000 C 
ENDROOT
BRANCH   1   2
ATOM      2  C   UNL     1      44.865   4.758  11.928  0.00  0.00    +0.000 A 
ATOM      3  C   UNL     1      45.489   3.844  12.783  0.00  0.00    +0.000 A 
ATOM      4  C   UNL     1      46.661   4.200  13.433  0.00  0.00    +0.000 A 
ATOM      5  F   UNL     1      47.257   3.320  14.249  0.00  0.00    +0.000 F 
ATOM      6  C   UNL     1      47.236   5.455  13.249  0.00  0.00    +0.000 A 
ATOM      7  C   UNL     1      46.652   6.394  12.383  0.00  0.00    +0.000 A 
ATOM      8  C   UNL     1      45.466   6.012  11.724  0.00  0.00    +0.000 A 
BRANCH   7   9
ATOM      9  C   UNL     1      47.257   7.724  12.159  0.00  0.00    +0.000 A 
ATOM     10  C   UNL     1      48.595   7.881  11.767  0.00  0.00    +0.000 A 
ATOM     11  C   UNL     1      49.130   9.151  11.551  0.00  0.00    +0.000 A 
ATOM     12  C   UNL     1      48.308  10.248  11.726  0.00  0.00    +0.000 A 
ATOM     13  N   UNL     1      47.019  10.161  12.104  0.00  0.00    +0.000 NA
ATOM     14  C   UNL     1      46.534   8.911  12.314  0.00  0.00    +0.000 A 
ENDBRANCH   7   9
ENDBRANCH   1   2
BRANCH   1  15
ATOM     15  O   UNL     1      43.713   4.730   9.789  0.00  0.00    +0.000 OA
BRANCH  15  19
ATOM     16  C   UNL     1      46.346   2.298   7.762  0.00  0.00    +0.000 A 
ATOM     17  C   UNL     1      45.448   1.731   8.669  0.00  0.00    +0.000 A 
ATOM     18  C   UNL     1      44.554   2.560   9.350  0.00  0.00    +0.000 A 
ATOM     19  C   UNL     1      44.594   3.925   9.095  0.00  0.00    +0.000 A 
ATOM     20  N   UNL     1      45.448   4.493   8.217  0.00  0.00    +0.000 NA
ATOM     21  C   UNL     1      46.314   3.672   7.580  0.00  0.00    +0.000 A 
BRANCH  16  23
ATOM     22  N   UNL     1      48.448   2.191   6.552  0.00  0.00    +0.000 N 
ATOM     23  C   UNL     1      47.352   1.519   7.013  0.00  0.00    +0.000 C 
ATOM     24  O   UNL     1      47.227   0.314   6.842  0.00  0.00    +0.000 OA
ATOM     25  H   UNL     1      49.176   1.622   6.136  0.00  0.00    +0.000 HD
ATOM     26  H   UNL     1      48.707   3.108   6.888  0.00  0.00    +0.000 HD
ENDBRANCH  16  23
ENDBRANCH  15  19
ENDBRANCH   1  15
TORSDOF 5
ENDMDL
MODEL 2
REMARK VINA RESULT:    -8.415      1.204      1.840
REMARK INTER + INTRA:         -11.679
REMARK INTER:                 -10.740
REMARK INTRA:                  -0.940
REMARK UNBOUND:                -0.804
REMARK  Name = 
REMARK  5 active torsions:
REMARK  status: ('A' for Active; 'I' for Inactive)
REMARK    1  A    between atoms: C_2  and  C_4
REMARK    2  A    between atoms: C_7  and  O_8
REMARK    3  A    between atoms: O_8  and  C_9
REMARK    4  A    between atoms: C_9  and  C_10
REMARK    5  A    between atoms: C_15  and  C_16
REMARK                            x       y       z     vdW  Elec       q    Type
REMARK                         _______ _______ _______ _____ _____    ______ ____
ROOT
ATOM      1  C   UNL     1      43.636   4.010  11.412  0.00  0.00    +0.000 C 
ENDROOT
BRANCH   1   2
ATOM      2  C   UNL     1      44.642   4.911  12.093  0.00  0.00    +0.000 A 
ATOM      3  C   UNL     1      45.591   4.361  12.961  0.00  0.00    +0.000 A 
ATOM      4  C   UNL     1      46.551   5.179  13.538  0.00  0.00    +0.000 A 
ATOM      5  F   UNL     1      47.460   4.646  14.366  0.00  0.00    +0.000 F 
ATOM      6  C   UNL     1      46.592   6.544  13.268  0.00  0.00    +0.000 A 
ATOM      7  C   UNL     1      45.670   7.132  12.388  0.00  0.00    +0.000 A 
ATOM      8  C   UNL     1      44.707   6.284  11.803  0.00  0.00    +0.000 A 
BRANCH   7   9
ATOM      9  C   UNL     1      45.709   8.576  12.073  0.00  0.00    +0.000 A 
ATOM     10  C   UNL     1      44.620   9.246  11.496  0.00  0.00    +0.000 A 
ATOM     11  C   UNL     1      44.687  10.613  11.223  0.00  0.00    +0.000 A 
ATOM     12  C   UNL     1      45.850  11.289  11.542  0.00  0.00    +0.000 A 
ATOM     13  N   UNL     1      46.928  10.700  12.093  0.00  0.00    +0.000 NA
ATOM     14  C   UNL     1      46.831   9.368  12.336  0.00  0.00    +0.000 A 
ENDBRANCH   7   9
ENDBRANCH   1   2
BRANCH   1  15
ATOM     15  O   UNL     1      43.541   4.308  10.013  0.00  0.00    +0.000 OA
BRANCH  15  19
ATOM     16  C   UNL     1      46.360   2.291   7.791  0.00  0.00    +0.000 A 
ATOM     17  C   UNL     1      46.245   3.677   7.659  0.00  0.00    +0.000 A 
ATOM     18  C   UNL     1      45.291   4.356   8.419  0.00  0.00    +0.000 A 
ATOM     19  C   UNL     1      44.489   3.621   9.282  0.00  0.00    +0.000 A 
ATOM     20  N   UNL     1      44.588   2.283   9.431  0.00  0.00    +0.000 NA
ATOM     21  C   UNL     1      45.510   1.645   8.675  0.00  0.00    +0.000 A 
BRANCH  16  23
ATOM     22  N   UNL     1      48.444   2.088   6.564  0.00  0.00    +0.000 N 
ATOM     23  C   UNL     1      47.312   1.472   7.015  0.00  0.00    +0.000 C 
ATOM     24  O   UNL     1      47.114   0.281   6.816  0.00  0.00    +0.000 OA
ATOM     25  H   UNL     1      49.135   1.487   6.129  0.00  0.00    +0.000 HD
ATOM     26  H   UNL     1      48.760   2.979   6.921  0.00  0.00    +0.000 HD
ENDBRANCH  16  23
ENDBRANCH  15  19
ENDBRANCH   1  15
TORSDOF 5
ENDMDL
MODEL 3
REMARK VINA RESULT:    -8.305      2.212      2.716
REMARK INTER + INTRA:         -11.537
REMARK INTER:                 -10.867
REMARK INTRA:                  -0.670
REMARK UNBOUND:                -0.804
REMARK  Name = 
REMARK  5 active torsions:
REMARK  status: ('A' for Active; 'I' for Inactive)
REMARK    1  A    between atoms: C_2  and  C_4
REMARK    2  A    between atoms: C_7  and  O_8
REMARK    3  A    between atoms: O_8  and  C_9
REMARK    4  A    between atoms: C_9  and  C_10
REMARK    5  A    between atoms: C_15  and  C_16
REMARK                            x       y       z     vdW  Elec       q    Type
REMARK                         _______ _______ _______ _____ _____    ______ ____
ROOT
ATOM      1  C   UNL     1      44.132   3.119  11.421  0.00  0.00    +0.000 C 
ENDROOT
BRANCH   1   2
ATOM      2  C   UNL     1      44.468   4.591  11.509  0.00  0.00    +0.000 A 
ATOM      3  C   UNL     1      43.482   5.546  11.240  0.00  0.00    +0.000 A 
ATOM      4  C   UNL     1      43.774   6.894  11.379  0.00  0.00    +0.000 A 
ATOM      5  F   UNL     1      42.824   7.805  11.124  0.00  0.00    +0.000 F 
ATOM      6  C   UNL     1      45.034   7.321  11.787  0.00  0.00    +0.000 A 
ATOM      7  C   UNL     1      46.047   6.394  12.086  0.00  0.00    +0.000 A 
ATOM      8  C   UNL     1      45.729   5.027  11.948  0.00  0.00    +0.000 A 
BRANCH   7   9
ATOM      9  C   UNL     1      47.385   6.826  12.540  0.00  0.00    +0.000 A 
ATOM     10  C   UNL     1      48.156   7.752  11.821  0.00  0.00    +0.000 A 
ATOM     11  C   UNL     1      49.411   8.148  12.286  0.00  0.00    +0.000 A 
ATOM     12  C   UNL     1      49.871   7.610  13.473  0.00  0.00    +0.000 A 
ATOM     13  N   UNL     1      49.179   6.717  14.204  0.00  0.00    +0.000 NA
ATOM     14  C   UNL     1      47.966   6.347  13.718  0.00  0.00    +0.000 A 
ENDBRANCH   7   9
ENDBRANCH   1   2
BRANCH   1  15
ATOM     15  O   UNL     1      43.613   2.785  10.127  0.00  0.00    +0.000 OA
BRANCH  15  19
ATOM     16  C   UNL     1      46.583   2.542   7.286  0.00  0.00    +0.000 A 
ATOM     17  C   UNL     1      45.896   3.746   7.459  0.00  0.00    +0.000 A 
ATOM     18  C   UNL     1      44.894   3.824   8.428  0.00  0.00    +0.000 A 
ATOM     19  C   UNL     1      44.618   2.693   9.185  0.00  0.00    +0.000 A 
ATOM     20  N   UNL     1      45.275   1.522   9.040  0.00  0.00    +0.000 NA
ATOM     21  C   UNL     1      46.232   1.467   8.086  0.00  0.00    +0.000 A 
BRANCH  16  23
ATOM     22  N   UNL     1      47.517   3.029   5.099  0.00  0.00    +0.000 N 
ATOM     23  C   UNL     1      47.638   2.342   6.273  0.00  0.00    +0.000 C 
ATOM     24  O   UNL     1      48.600   1.618   6.489  0.00  0.00    +0.000 OA
ATOM     25  H   UNL     1      48.302   2.964   4.462  0.00  0.00    +0.000 HD
ATOM     26  H   UNL     1      46.891   3.815   4.988  0.00  0.00    +0.000 HD
ENDBRANCH  16  23
ENDBRANCH  15  19
ENDBRANCH   1  15
TORSDOF 5
ENDMDL
MODEL 4
REMARK VINA RESULT:    -8.075      2.543      3.916
REMARK INTER + INTRA:         -11.239
REMARK INTER:                 -10.653
REMARK INTRA:                  -0.587
REMARK UNBOUND:                -0.804
REMARK  Name = 
REMARK  5 active torsions:
REMARK  status: ('A' for Active; 'I' for Inactive)
REMARK    1  A    between atoms: C_2  and  C_4
REMARK    2  A    between atoms: C_7  and  O_8
REMARK    3  A    between atoms: O_8  and  C_9
REMARK    4  A    between atoms: C_9  and  C_10
REMARK    5  A    between atoms: C_15  and  C_16
REMARK                            x       y       z     vdW  Elec       q    Type
REMARK                         _______ _______ _______ _____ _____    ______ ____
ROOT
ATOM      1  C   UNL     1      44.102   4.147  11.445  0.00  0.00    +0.000 C 
ENDROOT
BRANCH   1   2
ATOM      2  C   UNL     1      45.279   4.768  12.162  0.00  0.00    +0.000 A 
ATOM      3  C   UNL     1      45.855   5.941  11.664  0.00  0.00    +0.000 A 
ATOM      4  C   UNL     1      46.896   6.545  12.355  0.00  0.00    +0.000 A 
ATOM      5  F   UNL     1      47.441   7.670  11.875  0.00  0.00    +0.000 F 
ATOM      6  C   UNL     1      47.379   6.006  13.543  0.00  0.00    +0.000 A 
ATOM      7  C   UNL     1      46.816   4.840  14.088  0.00  0.00    +0.000 A 
ATOM      8  C   UNL     1      45.754   4.245  13.377  0.00  0.00    +0.000 A 
BRANCH   7   9
ATOM      9  C   UNL     1      47.303   4.263  15.359  0.00  0.00    +0.000 A 
ATOM     10  C   UNL     1      47.872   2.983  15.430  0.00  0.00    +0.000 A 
ATOM     11  C   UNL     1      48.334   2.474  16.646  0.00  0.00    +0.000 A 
ATOM     12  C   UNL     1      48.220   3.266  17.773  0.00  0.00    +0.000 A 
ATOM     13  N   UNL     1      47.680   4.498  17.767  0.00  0.00    +0.000 NA
ATOM     14  C   UNL     1      47.233   4.958  16.571  0.00  0.00    +0.000 A 
ENDBRANCH   7   9
ENDBRANCH   1   2
BRANCH   1  15
ATOM     15  O   UNL     1      44.005   4.630  10.099  0.00  0.00    +0.000 OA
BRANCH  15  19
ATOM     16  C   UNL     1      46.566   2.576   7.613  0.00  0.00    +0.000 A 
ATOM     17  C   UNL     1      45.778   1.868   8.524  0.00  0.00    +0.000 A 
ATOM     18  C   UNL     1      44.908   2.570   9.360  0.00  0.00    +0.000 A 
ATOM     19  C   UNL     1      44.860   3.953   9.252  0.00  0.00    +0.000 A 
ATOM     20  N   UNL     1      45.606   4.657   8.374  0.00  0.00    +0.000 NA
ATOM     21  C   UNL     1      46.452   3.957   7.584  0.00  0.00    +0.000 A 
BRANCH  16  23
ATOM     22  N   UNL     1      47.973   2.671   5.638  0.00  0.00    +0.000 N 
ATOM     23  C   UNL     1      47.539   1.939   6.705  0.00  0.00    +0.000 C 
ATOM     24  O   UNL     1      47.967   0.812   6.919  0.00  0.00    +0.000 OA
ATOM     25  H   UNL     1      48.719   2.260   5.089  0.00  0.00    +0.000 HD
ATOM     26  H   UNL     1      47.846   3.672   5.574  0.00  0.00    +0.000 HD
ENDBRANCH  16  23
ENDBRANCH  15  19
ENDBRANCH   1  15
TORSDOF 5
ENDMDL
MODEL 5
REMARK VINA RESULT:    -7.574      2.822      6.968
REMARK INTER + INTRA:         -10.592
REMARK INTER:                  -9.789
REMARK INTRA:                  -0.803
REMARK UNBOUND:                -0.804
REMARK  Name = 
REMARK  5 active torsions:
REMARK  status: ('A' for Active; 'I' for Inactive)
REMARK    1  A    between atoms: C_2  and  C_4
REMARK    2  A    between atoms: C_7  and  O_8
REMARK    3  A    between atoms: O_8  and  C_9
REMARK    4  A    between atoms: C_9  and  C_10
REMARK    5  A    between atoms: C_15  and  C_16
REMARK                            x       y       z     vdW  Elec       q    Type
REMARK                         _______ _______ _______ _____ _____    ______ ____
ROOT
ATOM      1  C   UNL     1      44.615   6.653  10.957  0.00  0.00    +0.000 C 
ENDROOT
BRANCH   1   2
ATOM      2  C   UNL     1      44.585   5.178  10.628  0.00  0.00    +0.000 A 
ATOM      3  C   UNL     1      43.773   4.316  11.373  0.00  0.00    +0.000 A 
ATOM      4  C   UNL     1      43.699   2.974  11.032  0.00  0.00    +0.000 A 
ATOM      5  F   UNL     1      42.916   2.154  11.746  0.00  0.00    +0.000 F 
ATOM      6  C   UNL     1      44.419   2.463   9.956  0.00  0.00    +0.000 A 
ATOM      7  C   UNL     1      45.231   3.297   9.171  0.00  0.00    +0.000 A 
ATOM      8  C   UNL     1      45.286   4.661   9.526  0.00  0.00    +0.000 A 
BRANCH   7   9
ATOM      9  C   UNL     1      45.987   2.778   8.012  0.00  0.00    +0.000 A 
ATOM     10  C   UNL     1      46.302   3.579   6.904  0.00  0.00    +0.000 A 
ATOM     11  C   UNL     1      47.029   3.059   5.832  0.00  0.00    +0.000 A 
ATOM     12  C   UNL     1      47.436   1.740   5.894  0.00  0.00    +0.000 A 
ATOM     13  N   UNL     1      47.161   0.922   6.927  0.00  0.00    +0.000 NA
ATOM     14  C   UNL     1      46.445   1.458   7.948  0.00  0.00    +0.000 A 
ENDBRANCH   7   9
ENDBRANCH   1   2
BRANCH   1  15
ATOM     15  O   UNL     1      44.707   6.864  12.372  0.00  0.00    +0.000 OA
BRANCH  15  19
ATOM     16  C   UNL     1      48.620   7.408  13.531  0.00  0.00    +0.000 A 
ATOM     17  C   UNL     1      47.982   8.400  12.783  0.00  0.00    +0.000 A 
ATOM     18  C   UNL     1      46.653   8.212  12.397  0.00  0.00    +0.000 A 
ATOM     19  C   UNL     1      46.015   7.038  12.776  0.00  0.00    +0.000 A 
ATOM     20  N   UNL     1      46.610   6.070  13.506  0.00  0.00    +0.000 NA
ATOM     21  C   UNL     1      47.901   6.268  13.855  0.00  0.00    +0.000 A 
BRANCH  16  23
ATOM     22  N   UNL     1      50.949   7.876  13.032  0.00  0.00    +0.000 N 
ATOM     23  C   UNL     1      50.029   7.490  13.965  0.00  0.00    +0.000 C 
ATOM     24  O   UNL     1      50.354   7.258  15.121  0.00  0.00    +0.000 OA
ATOM     25  H   UNL     1      51.890   8.031  13.374  0.00  0.00    +0.000 HD
ATOM     26  H   UNL     1      50.692   8.316  12.160  0.00  0.00    +0.000 HD
ENDBRANCH  16  23
ENDBRANCH  15  19
ENDBRANCH   1  15
TORSDOF 5
ENDMDL
MODEL 6
REMARK VINA RESULT:    -7.440      4.721      8.113
REMARK INTER + INTRA:         -10.419
REMARK INTER:                  -9.842
REMARK INTRA:                  -0.577
REMARK UNBOUND:                -0.804
REMARK  Name = 
REMARK  5 active torsions:
REMARK  status: ('A' for Active; 'I' for Inactive)
REMARK    1  A    between atoms: C_2  and  C_4
REMARK    2  A    between atoms: C_7  and  O_8
REMARK    3  A    between atoms: O_8  and  C_9
REMARK    4  A    between atoms: C_9  and  C_10
REMARK    5  A    between atoms: C_15  and  C_16
REMARK                            x       y       z     vdW  Elec       q    Type
REMARK                         _______ _______ _______ _____ _____    ______ ____
ROOT
ATOM      1  C   UNL     1      46.078   5.164  14.010  0.00  0.00    +0.000 C 
ENDROOT
BRANCH   1   2
ATOM      2  C   UNL     1      45.179   4.934  12.816  0.00  0.00    +0.000 A 
ATOM      3  C   UNL     1      43.860   5.400  12.839  0.00  0.00    +0.000 A 
ATOM      4  C   UNL     1      43.055   5.242  11.721  0.00  0.00    +0.000 A 
ATOM      5  F   UNL     1      41.794   5.694  11.748  0.00  0.00    +0.000 F 
ATOM      6  C   UNL     1      43.535   4.629  10.568  0.00  0.00    +0.000 A 
ATOM      7  C   UNL     1      44.858   4.164  10.496  0.00  0.00    +0.000 A 
ATOM      8  C   UNL     1      45.665   4.341  11.638  0.00  0.00    +0.000 A 
BRANCH   7   9
ATOM      9  C   UNL     1      45.392   3.528   9.274  0.00  0.00    +0.000 A 
ATOM     10  C   UNL     1      45.837   4.276   8.174  0.00  0.00    +0.000 A 
ATOM     11  C   UNL     1      46.348   3.643   7.040  0.00  0.00    +0.000 A 
ATOM     12  C   UNL     1      46.410   2.263   7.032  0.00  0.00    +0.000 A 
ATOM     13  N   UNL     1      45.996   1.491   8.054  0.00  0.00    +0.000 NA
ATOM     14  C   UNL     1      45.496   2.140   9.137  0.00  0.00    +0.000 A 
ENDBRANCH   7   9
ENDBRANCH   1   2
BRANCH   1  15
ATOM     15  O   UNL     1      46.503   3.921  14.583  0.00  0.00    +0.000 OA
BRANCH  15  19
ATOM     16  C   UNL     1      48.476   4.511  18.149  0.00  0.00    +0.000 A 
ATOM     17  C   UNL     1      48.616   5.449  17.123  0.00  0.00    +0.000 A 
ATOM     18  C   UNL     1      47.940   5.246  15.918  0.00  0.00    +0.000 A 
ATOM     19  C   UNL     1      47.150   4.112  15.787  0.00  0.00    +0.000 A 
ATOM     20  N   UNL     1      46.994   3.197  16.768  0.00  0.00    +0.000 NA
ATOM     21  C   UNL     1      47.669   3.408  17.920  0.00  0.00    +0.000 A 
BRANCH  16  23
ATOM     22  N   UNL     1      48.616   3.946  20.505  0.00  0.00    +0.000 N 
ATOM     23  C   UNL     1      49.167   4.613  19.449  0.00  0.00    +0.000 C 
ATOM     24  O   UNL     1      50.212   5.239  19.568  0.00  0.00    +0.000 OA
ATOM     25  H   UNL     1      49.160   3.937  21.359  0.00  0.00    +0.000 HD
ATOM     26  H   UNL     1      47.917   3.225  20.390  0.00  0.00    +0.000 HD
ENDBRANCH  16  23
ENDBRANCH  15  19
ENDBRANCH   1  15
TORSDOF 5
ENDMDL
MODEL 7
REMARK VINA RESULT:    -7.056      2.180      2.863
REMARK INTER + INTRA:          -9.923
REMARK INTER:                  -9.182
REMARK INTRA:                  -0.740
REMARK UNBOUND:                -0.804
REMARK  Name = 
REMARK  5 active torsions:
REMARK  status: ('A' for Active; 'I' for Inactive)
REMARK    1  A    between atoms: C_2  and  C_4
REMARK    2  A    between atoms: C_7  and  O_8
REMARK    3  A    between atoms: O_8  and  C_9
REMARK    4  A    between atoms: C_9  and  C_10
REMARK    5  A    between atoms: C_15  and  C_16
REMARK                            x       y       z     vdW  Elec       q    Type
REMARK                         _______ _______ _______ _____ _____    ______ ____
ROOT
ATOM      1  C   UNL     1      45.210   5.157  11.813  0.00  0.00    +0.000 C 
ENDROOT
BRANCH   1   2
ATOM      2  C   UNL     1      45.771   6.555  11.941  0.00  0.00    +0.000 A 
ATOM      3  C   UNL     1      44.904   7.637  12.124  0.00  0.00    +0.000 A 
ATOM      4  C   UNL     1      45.422   8.912  12.302  0.00  0.00    +0.000 A 
ATOM      5  F   UNL     1      44.587   9.944  12.481  0.00  0.00    +0.000 F 
ATOM      6  C   UNL     1      46.795   9.137  12.306  0.00  0.00    +0.000 A 
ATOM      7  C   UNL     1      47.701   8.076  12.145  0.00  0.00    +0.000 A 
ATOM      8  C   UNL     1      47.156   6.786  11.975  0.00  0.00    +0.000 A 
BRANCH   7   9
ATOM      9  C   UNL     1      49.163   8.292  12.166  0.00  0.00    +0.000 A 
ATOM     10  C   UNL     1      50.018   7.713  11.216  0.00  0.00    +0.000 A 
ATOM     11  C   UNL     1      51.393   7.949  11.258  0.00  0.00    +0.000 A 
ATOM     12  C   UNL     1      51.888   8.771  12.253  0.00  0.00    +0.000 A 
ATOM     13  N   UNL     1      51.117   9.351  13.192  0.00  0.00    +0.000 NA
ATOM     14  C   UNL     1      49.786   9.093  13.127  0.00  0.00    +0.000 A 
ENDBRANCH   7   9
ENDBRANCH   1   2
BRANCH   1  15
ATOM     15  O   UNL     1      44.379   5.039  10.651  0.00  0.00    +0.000 OA
BRANCH  15  19
ATOM     16  C   UNL     1      46.320   3.011   7.638  0.00  0.00    +0.000 A 
ATOM     17  C   UNL     1      45.556   2.297   8.565  0.00  0.00    +0.000 A 
ATOM     18  C   UNL     1      44.896   2.991   9.581  0.00  0.00    +0.000 A 
ATOM     19  C   UNL     1      45.026   4.372   9.630  0.00  0.00    +0.000 A 
ATOM     20  N   UNL     1      45.752   5.083   8.741  0.00  0.00    +0.000 NA
ATOM     21  C   UNL     1      46.394   4.388   7.774  0.00  0.00    +0.000 A 
BRANCH  16  23
ATOM     22  N   UNL     1      47.947   1.376   6.883  0.00  0.00    +0.000 N 
ATOM     23  C   UNL     1      47.081   2.376   6.545  0.00  0.00    +0.000 C 
ATOM     24  O   UNL     1      46.916   2.707   5.378  0.00  0.00    +0.000 OA
ATOM     25  H   UNL     1      48.378   0.880   6.111  0.00  0.00    +0.000 HD
ATOM     26  H   UNL     1      47.918   0.909   7.779  0.00  0.00    +0.000 HD
ENDBRANCH  16  23
ENDBRANCH  15  19
ENDBRANCH   1  15
TORSDOF 5
ENDMDL
MODEL 8
REMARK VINA RESULT:    -6.799      5.636      8.123
REMARK INTER + INTRA:          -9.591
REMARK INTER:                  -8.830
REMARK INTRA:                  -0.761
REMARK UNBOUND:                -0.804
REMARK  Name = 
REMARK  5 active torsions:
REMARK  status: ('A' for Active; 'I' for Inactive)
REMARK    1  A    between atoms: C_2  and  C_4
REMARK    2  A    between atoms: C_7  and  O_8
REMARK    3  A    between atoms: O_8  and  C_9
REMARK    4  A    between atoms: C_9  and  C_10
REMARK    5  A    between atoms: C_15  and  C_16
REMARK                            x       y       z     vdW  Elec       q    Type
REMARK                         _______ _______ _______ _____ _____    ______ ____
ROOT
ATOM      1  C   UNL     1      49.310   6.633  15.954  0.00  0.00    +0.000 C 
ENDROOT
BRANCH   1   2
ATOM      2  C   UNL     1      48.616   6.659  14.611  0.00  0.00    +0.000 A 
ATOM      3  C   UNL     1      49.174   7.388  13.556  0.00  0.00    +0.000 A 
ATOM      4  C   UNL     1      48.570   7.363  12.307  0.00  0.00    +0.000 A 
ATOM      5  F   UNL     1      49.110   8.060  11.299  0.00  0.00    +0.000 F 
ATOM      6  C   UNL     1      47.415   6.621  12.080  0.00  0.00    +0.000 A 
ATOM      7  C   UNL     1      46.833   5.860  13.108  0.00  0.00    +0.000 A 
ATOM      8  C   UNL     1      47.466   5.890  14.368  0.00  0.00    +0.000 A 
BRANCH   7   9
ATOM      9  C   UNL     1      45.618   5.049  12.882  0.00  0.00    +0.000 A 
ATOM     10  C   UNL     1      44.342   5.624  12.790  0.00  0.00    +0.000 A 
ATOM     11  C   UNL     1      43.217   4.829  12.563  0.00  0.00    +0.000 A 
ATOM     12  C   UNL     1      43.394   3.466  12.424  0.00  0.00    +0.000 A 
ATOM     13  N   UNL     1      44.592   2.857  12.506  0.00  0.00    +0.000 NA
ATOM     14  C   UNL     1      45.663   3.659  12.737  0.00  0.00    +0.000 A 
ENDBRANCH   7   9
ENDBRANCH   1   2
BRANCH   1  15
ATOM     15  O   UNL     1      48.720   5.656  16.821  0.00  0.00    +0.000 OA
BRANCH  15  19
ATOM     16  C   UNL     1      51.337   2.558  17.537  0.00  0.00    +0.000 A 
ATOM     17  C   UNL     1      51.774   3.876  17.693  0.00  0.00    +0.000 A 
ATOM     18  C   UNL     1      50.880   4.922  17.454  0.00  0.00    +0.000 A 
ATOM     19  C   UNL     1      49.584   4.608  17.068  0.00  0.00    +0.000 A 
ATOM     20  N   UNL     1      49.138   3.342  16.919  0.00  0.00    +0.000 NA
ATOM     21  C   UNL     1      50.026   2.346  17.142  0.00  0.00    +0.000 A 
BRANCH  16  23
ATOM     22  N   UNL     1      51.604   0.218  18.123  0.00  0.00    +0.000 N 
ATOM     23  C   UNL     1      52.205   1.381  17.735  0.00  0.00    +0.000 C 
ATOM     24  O   UNL     1      53.409   1.435  17.524  0.00  0.00    +0.000 OA
ATOM     25  H   UNL     1      52.197  -0.603  18.149  0.00  0.00    +0.000 HD
ATOM     26  H   UNL     1      50.606   0.071  18.057  0.00  0.00    +0.000 HD
ENDBRANCH  16  23
ENDBRANCH  15  19
ENDBRANCH   1  15
TORSDOF 5
ENDMDL
MODEL 9
REMARK VINA RESULT:    -6.683      4.807      8.218
REMARK INTER + INTRA:          -9.440
REMARK INTER:                  -8.749
REMARK INTRA:                  -0.692
REMARK UNBOUND:                -0.804
REMARK  Name = 
REMARK  5 active torsions:
REMARK  status: ('A' for Active; 'I' for Inactive)
REMARK    1  A    between atoms: C_2  and  C_4
REMARK    2  A    between atoms: C_7  and  O_8
REMARK    3  A    between atoms: O_8  and  C_9
REMARK    4  A    between atoms: C_9  and  C_10
REMARK    5  A    between atoms: C_15  and  C_16
REMARK                            x       y       z     vdW  Elec       q    Type
REMARK                         _______ _______ _______ _____ _____    ______ ____
ROOT
ATOM      1  C   UNL     1      48.155   7.230  14.138  0.00  0.00    +0.000 C 
ENDROOT
BRANCH   1   2
ATOM      2  C   UNL     1      46.956   7.321  13.221  0.00  0.00    +0.000 A 
ATOM      3  C   UNL     1      46.234   8.517  13.138  0.00  0.00    +0.000 A 
ATOM      4  C   UNL     1      45.172   8.619  12.252  0.00  0.00    +0.000 A 
ATOM      5  F   UNL     1      44.487   9.768  12.175  0.00  0.00    +0.000 F 
ATOM      6  C   UNL     1      44.809   7.552  11.436  0.00  0.00    +0.000 A 
ATOM      7  C   UNL     1      45.519   6.341  11.474  0.00  0.00    +0.000 A 
ATOM      8  C   UNL     1      46.602   6.258  12.373  0.00  0.00    +0.000 A 
BRANCH   7   9
ATOM      9  C   UNL     1      45.162   5.204  10.601  0.00  0.00    +0.000 A 
ATOM     10  C   UNL     1      45.654   5.081   9.293  0.00  0.00    +0.000 A 
ATOM     11  C   UNL     1      45.306   3.986   8.500  0.00  0.00    +0.000 A 
ATOM     12  C   UNL     1      44.471   3.025   9.038  0.00  0.00    +0.000 A 
ATOM     13  N   UNL     1      43.965   3.091  10.284  0.00  0.00    +0.000 NA
ATOM     14  C   UNL     1      44.316   4.173  11.024  0.00  0.00    +0.000 A 
ENDBRANCH   7   9
ENDBRANCH   1   2
BRANCH   1  15
ATOM     15  O   UNL     1      48.463   5.865  14.451  0.00  0.00    +0.000 OA
BRANCH  15  19
ATOM     16  C   UNL     1      48.301   5.167  18.506  0.00  0.00    +0.000 A 
ATOM     17  C   UNL     1      47.560   4.359  17.640  0.00  0.00    +0.000 A 
ATOM     18  C   UNL     1      47.623   4.597  16.265  0.00  0.00    +0.000 A 
ATOM     19  C   UNL     1      48.426   5.635  15.812  0.00  0.00    +0.000 A 
ATOM     20  N   UNL     1      49.157   6.423  16.629  0.00  0.00    +0.000 NA
ATOM     21  C   UNL     1      49.069   6.182  17.957  0.00  0.00    +0.000 A 
BRANCH  16  23
ATOM     22  N   UNL     1      48.567   3.787  20.485  0.00  0.00    +0.000 N 
ATOM     23  C   UNL     1      48.284   5.021  19.974  0.00  0.00    +0.000 C 
ATOM     24  O   UNL     1      48.062   5.976  20.707  0.00  0.00    +0.000 OA
ATOM     25  H   UNL     1      48.657   3.731  21.492  0.00  0.00    +0.000 HD
ATOM     26  H   UNL     1      48.999   3.056  19.937  0.00  0.00    +0.000 HD
ENDBRANCH  16  23
ENDBRANCH  15  19
ENDBRANCH   1  15
TORSDOF 5
ENDMDL
