MODEL 1
REMARK VINA RESULT:    -8.031      0.000      0.000
REMARK INTER + INTRA:          -9.834
REMARK INTER:                  -9.440
REMARK INTRA:                  -0.394
REMARK UNBOUND:                -0.394
REMARK  Name = 
REMARK  3 active torsions:
REMARK  status: ('A' for Active; 'I' for Inactive)
REMARK    1  A    between atoms: C_2  and  C_4
REMARK    2  A    between atoms: N_8  and  C_9
REMARK    3  A    between atoms: C_9  and  C_10
REMARK                            x       y       z     vdW  Elec       q    Type
REMARK                         _______ _______ _______ _____ _____    ______ ____
ROOT
ATOM      1  C   UNL     1      46.457   2.664   7.474  0.00  0.00    +0.000 A 
ATOM      2  C   UNL     1      45.900   1.731   8.315  0.00  0.00    +0.000 A 
ATOM      3  N   UNL     1      45.074   2.048   9.337  0.00  0.00    +0.000 NA
ATOM      4  C   UNL     1      44.826   3.354   9.550  0.00  0.00    +0.000 A 
ATOM      5  N   UNL     1      43.891   3.615  10.553  0.00  0.00    +0.000 N 
ATOM      6  N   UNL     1      45.367   4.335   8.815  0.00  0.00    +0.000 NA
ATOM      7  C   UNL     1      46.175   3.972   7.791  0.00  0.00    +0.000 A 
ATOM      8  H   UNL     1      43.768   2.743  11.054  0.00  0.00    +0.000 HD
ENDROOT
BRANCH   1  10
ATOM      9  N   UNL     1      47.315   3.201   5.266  0.00  0.00    +0.000 N 
ATOM     10  C   UNL     1      47.310   2.331   6.325  0.00  0.00    +0.000 C 
ATOM     11  O   UNL     1      48.024   1.338   6.336  0.00  0.00    +0.000 OA
ATOM     12  H   UNL     1      47.995   3.007   4.540  0.00  0.00    +0.000 HD
ATOM     13  H   UNL     1      46.942   4.139   5.309  0.00  0.00    +0.000 HD
ENDBRANCH   1  10
BRANCH   5  14
ATOM     14  C   UNL     1      43.912   4.847  11.350  0.00  0.00    +0.000 C 
ATOM     15  C   UNL     1      42.612   5.174  12.080  0.00  0.00    +0.000 C 
ATOM     16  C   UNL     1      43.097   6.076  10.995  0.00  0.00    +0.000 C 
BRANCH  14  17
ATOM     17  C   UNL     1      45.225   5.096  12.088  0.00  0.00    +0.000 A 
ATOM     18  C   UNL     1      46.035   6.199  11.767  0.00  0.00    +0.000 A 
ATOM     19  C   UNL     1      47.166   6.515  12.520  0.00  0.00    +0.000 A 
ATOM     20  C   UNL     1      47.522   5.721  13.607  0.00  0.00    +0.000 A 
ATOM     21  C   UNL     1      46.772   4.589  13.912  0.00  0.00    +0.000 A 
ATOM     22  C   UNL     1      45.645   4.274  13.149  0.00  0.00    +0.000 A 
ENDBRANCH  14  17
ENDBRANCH   5  14
TORSDOF 3
ENDMDL
MODEL 2
REMARK VINA RESULT:    -6.635      3.427      6.256
REMARK INTER + INTRA:          -8.193
REMARK INTER:                  -8.170
REMARK INTRA:                  -0.022
REMARK UNBOUND:                -0.394
REMARK  Name = 
REMARK  3 active torsions:
REMARK  status: ('A' for Active; 'I' for Inactive)
REMARK    1  A    between atoms: C_2  and  C_4
REMARK    2  A    between atoms: N_8  and  C_9
REMARK    3  A    between atoms: C_9  and  C_10
REMARK                            x       y       z     vdW  Elec       q    Type
REMARK                         _______ _______ _______ _____ _____    ______ ____
ROOT
ATOM      1  C   UNL     1      47.956   6.555  13.868  0.00  0.00    +0.000 A 
ATOM      2  C   UNL     1      47.814   7.229  12.679  0.00  0.00    +0.000 A 
ATOM      3  N   UNL     1      46.886   6.911  11.749  0.00  0.00    +0.000 NA
ATOM      4  C   UNL     1      46.094   5.852  12.001  0.00  0.00    +0.000 A 
ATOM      5  N   UNL     1      45.093   5.632  11.053  0.00  0.00    +0.000 N 
ATOM      6  N   UNL     1      46.197   5.104  13.108  0.00  0.00    +0.000 NA
ATOM      7  C   UNL     1      47.127   5.468  14.021  0.00  0.00    +0.000 A 
ATOM      8  H   UNL     1      45.332   6.209  10.256  0.00  0.00    +0.000 HD
ENDROOT
BRANCH   1  10
ATOM      9  N   UNL     1      48.436   7.126  16.180  0.00  0.00    +0.000 N 
ATOM     10  C   UNL     1      48.920   6.924  14.914  0.00  0.00    +0.000 C 
ATOM     11  O   UNL     1      50.116   7.001  14.669  0.00  0.00    +0.000 OA
ATOM     12  H   UNL     1      49.135   7.267  16.900  0.00  0.00    +0.000 HD
ATOM     13  H   UNL     1      47.515   6.840  16.480  0.00  0.00    +0.000 HD
ENDBRANCH   1  10
BRANCH   5  14
ATOM     14  C   UNL     1      44.549   4.297  10.775  0.00  0.00    +0.000 C 
ATOM     15  C   UNL     1      43.053   4.137  11.028  0.00  0.00    +0.000 C 
ATOM     16  C   UNL     1      44.028   3.373  11.859  0.00  0.00    +0.000 C 
BRANCH  14  17
ATOM     17  C   UNL     1      45.138   3.624   9.538  0.00  0.00    +0.000 A 
ATOM     18  C   UNL     1      45.678   4.390   8.489  0.00  0.00    +0.000 A 
ATOM     19  C   UNL     1      46.340   3.789   7.416  0.00  0.00    +0.000 A 
ATOM     20  C   UNL     1      46.462   2.403   7.363  0.00  0.00    +0.000 A 
ATOM     21  C   UNL     1      45.885   1.619   8.357  0.00  0.00    +0.000 A 
ATOM     22  C   UNL     1      45.218   2.225   9.424  0.00  0.00    +0.000 A 
ENDBRANCH  14  17
ENDBRANCH   5  14
TORSDOF 3
ENDMDL
MODEL 3
REMARK VINA RESULT:    -6.019      3.548      6.105
REMARK INTER + INTRA:          -7.469
REMARK INTER:                  -8.016
REMARK INTRA:                   0.547
REMARK UNBOUND:                -0.394
REMARK  Name = 
REMARK  3 active torsions:
REMARK  status: ('A' for Active; 'I' for Inactive)
REMARK    1  A    between atoms: C_2  and  C_4
REMARK    2  A    between atoms: N_8  and  C_9
REMARK    3  A    between atoms: C_9  and  C_10
REMARK                            x       y       z     vdW  Elec       q    Type
REMARK                         _______ _______ _______ _____ _____    ______ ____
ROOT
ATOM      1  C   UNL     1      47.602   6.210  14.060  0.00  0.00    +0.000 A 
ATOM      2  C   UNL     1      47.302   5.055  14.741  0.00  0.00    +0.000 A 
ATOM      3  N   UNL     1      46.609   4.029  14.199  0.00  0.00    +0.000 NA
ATOM      4  C   UNL     1      46.166   4.179  12.936  0.00  0.00    +0.000 A 
ATOM      5  N   UNL     1      45.545   3.052  12.396  0.00  0.00    +0.000 N 
ATOM      6  N   UNL     1      46.367   5.291  12.214  0.00  0.00    +0.000 NA
ATOM      7  C   UNL     1      47.079   6.286  12.790  0.00  0.00    +0.000 A 
ATOM      8  H   UNL     1      45.372   2.428  13.175  0.00  0.00    +0.000 HD
ENDROOT
BRANCH   1  10
ATOM      9  N   UNL     1      49.360   6.991  15.544  0.00  0.00    +0.000 N 
ATOM     10  C   UNL     1      48.403   7.309  14.616  0.00  0.00    +0.000 C 
ATOM     11  O   UNL     1      48.250   8.459  14.228  0.00  0.00    +0.000 OA
ATOM     12  H   UNL     1      49.971   7.750  15.824  0.00  0.00    +0.000 HD
ATOM     13  H   UNL     1      49.687   6.050  15.712  0.00  0.00    +0.000 HD
ENDBRANCH   1  10
BRANCH   5  14
ATOM     14  C   UNL     1      44.502   3.142  11.368  0.00  0.00    +0.000 C 
ATOM     15  C   UNL     1      43.308   4.023  11.725  0.00  0.00    +0.000 C 
ATOM     16  C   UNL     1      43.114   2.555  11.544  0.00  0.00    +0.000 C 
BRANCH  14  17
ATOM     17  C   UNL     1      45.033   3.207   9.938  0.00  0.00    +0.000 A 
ATOM     18  C   UNL     1      45.268   4.444   9.312  0.00  0.00    +0.000 A 
ATOM     19  C   UNL     1      45.878   4.521   8.059  0.00  0.00    +0.000 A 
ATOM     20  C   UNL     1      46.253   3.356   7.396  0.00  0.00    +0.000 A 
ATOM     21  C   UNL     1      45.979   2.117   7.966  0.00  0.00    +0.000 A 
ATOM     22  C   UNL     1      45.361   2.046   9.216  0.00  0.00    +0.000 A 
ENDBRANCH  14  17
ENDBRANCH   5  14
TORSDOF 3
ENDMDL
MODEL 4
REMARK VINA RESULT:    -5.531      5.101      7.575
REMARK INTER + INTRA:          -6.895
REMARK INTER:                  -7.354
REMARK INTRA:                   0.459
REMARK UNBOUND:                -0.394
REMARK  Name = 
REMARK  3 active torsions:
REMARK  status: ('A' for Active; 'I' for Inactive)
REMARK    1  A    between atoms: C_2  and  C_4
REMARK    2  A    between atoms: N_8  and  C_9
REMARK    3  A    between atoms: C_9  and  C_10
REMARK                            x       y       z     vdW  Elec       q    Type
REMARK                         _______ _______ _______ _____ _____    ______ ____
ROOT
ATOM      1  C   UNL     1      48.542   4.163  17.357  0.00  0.00    +0.000 A 
ATOM      2  C   UNL     1      47.983   3.154  16.612  0.00  0.00    +0.000 A 
ATOM      3  N   UNL     1      47.513   3.328  15.357  0.00  0.00    +0.000 NA
ATOM      4  C   UNL     1      47.569   4.570  14.840  0.00  0.00    +0.000 A 
ATOM      5  N   UNL     1      47.161   4.669  13.509  0.00  0.00    +0.000 N 
ATOM      6  N   UNL     1      48.048   5.625  15.514  0.00  0.00    +0.000 NA
ATOM      7  C   UNL     1      48.524   5.403  16.761  0.00  0.00    +0.000 A 
ATOM      8  H   UNL     1      46.699   3.794  13.293  0.00  0.00    +0.000 HD
ENDROOT
BRANCH   1  10
ATOM      9  N   UNL     1      48.379   3.250  19.602  0.00  0.00    +0.000 N 
ATOM     10  C   UNL     1      49.110   3.978  18.700  0.00  0.00    +0.000 C 
ATOM     11  O   UNL     1      50.214   4.420  18.984  0.00  0.00    +0.000 OA
ATOM     12  H   UNL     1      48.844   3.043  20.479  0.00  0.00    +0.000 HD
ATOM     13  H   UNL     1      47.594   2.668  19.348  0.00  0.00    +0.000 HD
ENDBRANCH   1  10
BRANCH   5  14
ATOM     14  C   UNL     1      46.572   5.893  12.953  0.00  0.00    +0.000 C 
ATOM     15  C   UNL     1      47.459   6.658  11.975  0.00  0.00    +0.000 C 
ATOM     16  C   UNL     1      47.089   7.282  13.278  0.00  0.00    +0.000 C 
BRANCH  14  17
ATOM     17  C   UNL     1      45.084   5.783  12.630  0.00  0.00    +0.000 A 
ATOM     18  C   UNL     1      44.474   6.676  11.731  0.00  0.00    +0.000 A 
ATOM     19  C   UNL     1      43.150   6.505  11.323  0.00  0.00    +0.000 A 
ATOM     20  C   UNL     1      42.401   5.442  11.820  0.00  0.00    +0.000 A 
ATOM     21  C   UNL     1      42.961   4.578  12.755  0.00  0.00    +0.000 A 
ATOM     22  C   UNL     1      44.284   4.758  13.166  0.00  0.00    +0.000 A 
ENDBRANCH  14  17
ENDBRANCH   5  14
TORSDOF 3
ENDMDL
MODEL 5
REMARK VINA RESULT:    -5.344      5.355      7.608
REMARK INTER + INTRA:          -6.675
REMARK INTER:                  -6.520
REMARK INTRA:                  -0.156
REMARK UNBOUND:                -0.394
REMARK  Name = 
REMARK  3 active torsions:
REMARK  status: ('A' for Active; 'I' for Inactive)
REMARK    1  A    between atoms: C_2  and  C_4
REMARK    2  A    between atoms: N_8  and  C_9
REMARK    3  A    between atoms: C_9  and  C_10
REMARK                            x       y       z     vdW  Elec       q    Type
REMARK                         _______ _______ _______ _____ _____    ______ ____
ROOT
ATOM      1  C   UNL     1      47.190   5.563  13.368  0.00  0.00    +0.000 A 
ATOM      2  C   UNL     1      46.819   4.304  13.776  0.00  0.00    +0.000 A 
ATOM      3  N   UNL     1      47.087   3.811  15.006  0.00  0.00    +0.000 NA
ATOM      4  C   UNL     1      47.787   4.594  15.849  0.00  0.00    +0.000 A 
ATOM      5  N   UNL     1      47.946   4.073  17.134  0.00  0.00    +0.000 N 
ATOM      6  N   UNL     1      48.235   5.813  15.518  0.00  0.00    +0.000 NA
ATOM      7  C   UNL     1      47.930   6.274  14.284  0.00  0.00    +0.000 A 
ATOM      8  H   UNL     1      47.675   3.099  17.076  0.00  0.00    +0.000 HD
ENDROOT
BRANCH   1  10
ATOM      9  N   UNL     1      45.739   5.660  11.423  0.00  0.00    +0.000 N 
ATOM     10  C   UNL     1      46.857   6.134  12.056  0.00  0.00    +0.000 C 
ATOM     11  O   UNL     1      47.531   7.033  11.571  0.00  0.00    +0.000 OA
ATOM     12  H   UNL     1      45.471   6.150  10.577  0.00  0.00    +0.000 HD
ATOM     13  H   UNL     1      45.027   5.108  11.881  0.00  0.00    +0.000 HD
ENDBRANCH   1  10
BRANCH   5  14
ATOM     14  C   UNL     1      49.102   4.397  17.978  0.00  0.00    +0.000 C 
ATOM     15  C   UNL     1      48.769   4.818  19.407  0.00  0.00    +0.000 C 
ATOM     16  C   UNL     1      49.397   5.800  18.476  0.00  0.00    +0.000 C 
BRANCH  14  17
ATOM     17  C   UNL     1      50.309   3.486  17.768  0.00  0.00    +0.000 A 
ATOM     18  C   UNL     1      51.607   3.924  18.085  0.00  0.00    +0.000 A 
ATOM     19  C   UNL     1      52.701   3.060  18.026  0.00  0.00    +0.000 A 
ATOM     20  C   UNL     1      52.521   1.736  17.631  0.00  0.00    +0.000 A 
ATOM     21  C   UNL     1      51.258   1.292  17.255  0.00  0.00    +0.000 A 
ATOM     22  C   UNL     1      50.168   2.164  17.309  0.00  0.00    +0.000 A 
ENDBRANCH  14  17
ENDBRANCH   5  14
TORSDOF 3
ENDMDL
MODEL 6
REMARK VINA RESULT:    -5.305      2.348      3.432
REMARK INTER + INTRA:          -6.630
REMARK INTER:                  -6.187
REMARK INTRA:                  -0.443
REMARK UNBOUND:                -0.394
REMARK  Name = 
REMARK  3 active torsions:
REMARK  status: ('A' for Active; 'I' for Inactive)
REMARK    1  A    between atoms: C_2  and  C_4
REMARK    2  A    between atoms: N_8  and  C_9
REMARK    3  A    between atoms: C_9  and  C_10
REMARK                            x       y       z     vdW  Elec       q    Type
REMARK                         _______ _______ _______ _____ _____    ______ ____
ROOT
ATOM      1  C   UNL     1      44.910   3.357  10.022  0.00  0.00    +0.000 A 
ATOM      2  C   UNL     1      44.549   3.337  11.348  0.00  0.00    +0.000 A 
ATOM      3  N   UNL     1      44.508   4.443  12.124  0.00  0.00    +0.000 NA
ATOM      4  C   UNL     1      44.878   5.609  11.563  0.00  0.00    +0.000 A 
ATOM      5  N   UNL     1      44.720   6.728  12.381  0.00  0.00    +0.000 N 
ATOM      6  N   UNL     1      45.294   5.714  10.293  0.00  0.00    +0.000 NA
ATOM      7  C   UNL     1      45.305   4.585   9.546  0.00  0.00    +0.000 A 
ATOM      8  H   UNL     1      44.559   6.371  13.315  0.00  0.00    +0.000 HD
ENDROOT
BRANCH   1  10
ATOM      9  N   UNL     1      46.014   1.954   8.374  0.00  0.00    +0.000 N 
ATOM     10  C   UNL     1      44.905   2.174   9.150  0.00  0.00    +0.000 C 
ATOM     11  O   UNL     1      43.965   1.392   9.152  0.00  0.00    +0.000 OA
ATOM     12  H   UNL     1      46.030   1.074   7.871  0.00  0.00    +0.000 HD
ATOM     13  H   UNL     1      46.898   2.421   8.515  0.00  0.00    +0.000 HD
ENDBRANCH   1  10
BRANCH   5  14
ATOM     14  C   UNL     1      45.565   7.922  12.258  0.00  0.00    +0.000 C 
ATOM     15  C   UNL     1      44.976   9.202  12.845  0.00  0.00    +0.000 C 
ATOM     16  C   UNL     1      45.207   9.102  11.374  0.00  0.00    +0.000 C 
BRANCH  14  17
ATOM     17  C   UNL     1      47.054   7.662  12.469  0.00  0.00    +0.000 A 
ATOM     18  C   UNL     1      48.000   8.065  11.509  0.00  0.00    +0.000 A 
ATOM     19  C   UNL     1      49.371   7.956  11.747  0.00  0.00    +0.000 A 
ATOM     20  C   UNL     1      49.827   7.424  12.950  0.00  0.00    +0.000 A 
ATOM     21  C   UNL     1      48.914   6.962  13.893  0.00  0.00    +0.000 A 
ATOM     22  C   UNL     1      47.543   7.066  13.645  0.00  0.00    +0.000 A 
ENDBRANCH  14  17
ENDBRANCH   5  14
TORSDOF 3
ENDMDL
MODEL 7
REMARK VINA RESULT:    -5.161      4.866      7.332
REMARK INTER + INTRA:          -6.460
REMARK INTER:                  -6.037
REMARK INTRA:                  -0.423
REMARK UNBOUND:                -0.394
REMARK  Name = 
REMARK  3 active torsions:
REMARK  status: ('A' for Active; 'I' for Inactive)
REMARK    1  A    between atoms: C_2  and  C_4
REMARK    2  A    between atoms: N_8  and  C_9
REMARK    3  A    between atoms: C_9  and  C_10
REMARK                            x       y       z     vdW  Elec       q    Type
REMARK                         _______ _______ _______ _____ _____    ______ ____
ROOT
ATOM      1  C   UNL     1      46.221   4.980  13.227  0.00  0.00    +0.000 A 
ATOM      2  C   UNL     1      46.657   6.222  12.835  0.00  0.00    +0.000 A 
ATOM      3  N   UNL     1      47.668   6.882  13.442  0.00  0.00    +0.000 NA
ATOM      4  C   UNL     1      48.241   6.293  14.509  0.00  0.00    +0.000 A 
ATOM      5  N   UNL     1      49.341   6.974  15.032  0.00  0.00    +0.000 N 
ATOM      6  N   UNL     1      47.846   5.108  14.994  0.00  0.00    +0.000 NA
ATOM      7  C   UNL     1      46.842   4.474  14.346  0.00  0.00    +0.000 A 
ATOM      8  H   UNL     1      49.326   7.895  14.610  0.00  0.00    +0.000 HD
ENDROOT
BRANCH   1  10
ATOM      9  N   UNL     1      45.276   2.859  12.514  0.00  0.00    +0.000 N 
ATOM     10  C   UNL     1      45.163   4.224  12.543  0.00  0.00    +0.000 C 
ATOM     11  O   UNL     1      44.195   4.793  12.057  0.00  0.00    +0.000 OA
ATOM     12  H   UNL     1      44.478   2.359  12.137  0.00  0.00    +0.000 HD
ATOM     13  H   UNL     1      45.912   2.336  13.100  0.00  0.00    +0.000 HD
ENDBRANCH   1  10
BRANCH   5  14
ATOM     14  C   UNL     1      49.718   6.894  16.448  0.00  0.00    +0.000 C 
ATOM     15  C   UNL     1      51.217   6.969  16.729  0.00  0.00    +0.000 C 
ATOM     16  C   UNL     1      50.470   5.715  17.039  0.00  0.00    +0.000 C 
BRANCH  14  17
ATOM     17  C   UNL     1      48.779   7.639  17.393  0.00  0.00    +0.000 A 
ATOM     18  C   UNL     1      48.228   6.997  18.516  0.00  0.00    +0.000 A 
ATOM     19  C   UNL     1      47.478   7.700  19.460  0.00  0.00    +0.000 A 
ATOM     20  C   UNL     1      47.248   9.063  19.291  0.00  0.00    +0.000 A 
ATOM     21  C   UNL     1      47.731   9.710  18.158  0.00  0.00    +0.000 A 
ATOM     22  C   UNL     1      48.474   9.000  17.213  0.00  0.00    +0.000 A 
ENDBRANCH  14  17
ENDBRANCH   5  14
TORSDOF 3
ENDMDL
MODEL 8
REMARK VINA RESULT:    -5.057      5.644      7.580
REMARK INTER + INTRA:          -6.338
REMARK INTER:                  -5.888
REMARK INTRA:                  -0.450
REMARK UNBOUND:                -0.394
REMARK  Name = 
REMARK  3 active torsions:
REMARK  status: ('A' for Active; 'I' for Inactive)
REMARK    1  A    between atoms: C_2  and  C_4
REMARK    2  A    between atoms: N_8  and  C_9
REMARK    3  A    between atoms: C_9  and  C_10
REMARK                            x       y       z     vdW  Elec       q    Type
REMARK                         _______ _______ _______ _____ _____    ______ ____
ROOT
ATOM      1  C   UNL     1      49.280   7.178  12.996  0.00  0.00    +0.000 A 
ATOM      2  C   UNL     1      48.274   6.242  12.959  0.00  0.00    +0.000 A 
ATOM      3  N   UNL     1      47.760   5.658  14.064  0.00  0.00    +0.000 NA
ATOM      4  C   UNL     1      48.299   5.995  15.251  0.00  0.00    +0.000 A 
ATOM      5  N   UNL     1      47.664   5.437  16.361  0.00  0.00    +0.000 N 
ATOM      6  N   UNL     1      49.317   6.857  15.378  0.00  0.00    +0.000 NA
ATOM      7  C   UNL     1      49.790   7.431  14.247  0.00  0.00    +0.000 A 
ATOM      8  H   UNL     1      47.056   4.712  16.000  0.00  0.00    +0.000 HD
ENDROOT
BRANCH   1  10
ATOM      9  N   UNL     1      50.941   7.350  11.232  0.00  0.00    +0.000 N 
ATOM     10  C   UNL     1      49.810   7.864  11.809  0.00  0.00    +0.000 C 
ATOM     11  O   UNL     1      49.234   8.830  11.330  0.00  0.00    +0.000 OA
ATOM     12  H   UNL     1      51.218   7.773  10.353  0.00  0.00    +0.000 HD
ATOM     13  H   UNL     1      51.307   6.430  11.436  0.00  0.00    +0.000 HD
ENDBRANCH   1  10
BRANCH   5  14
ATOM     14  C   UNL     1      48.372   5.152  17.615  0.00  0.00    +0.000 C 
ATOM     15  C   UNL     1      47.495   5.110  18.864  0.00  0.00    +0.000 C 
ATOM     16  C   UNL     1      48.532   6.174  18.726  0.00  0.00    +0.000 C 
BRANCH  14  17
ATOM     17  C   UNL     1      49.481   4.111  17.489  0.00  0.00    +0.000 A 
ATOM     18  C   UNL     1      50.810   4.430  17.819  0.00  0.00    +0.000 A 
ATOM     19  C   UNL     1      51.809   3.455  17.838  0.00  0.00    +0.000 A 
ATOM     20  C   UNL     1      51.501   2.138  17.509  0.00  0.00    +0.000 A 
ATOM     21  C   UNL     1      50.206   1.806  17.121  0.00  0.00    +0.000 A 
ATOM     22  C   UNL     1      49.213   2.787  17.097  0.00  0.00    +0.000 A 
ENDBRANCH  14  17
ENDBRANCH   5  14
TORSDOF 3
ENDMDL
MODEL 9
REMARK VINA RESULT:    -5.042      4.299      6.222
REMARK INTER + INTRA:          -6.321
REMARK INTER:                  -5.872
REMARK INTRA:                  -0.449
REMARK UNBOUND:                -0.394
REMARK  Name = 
REMARK  3 active torsions:
REMARK  status: ('A' for Active; 'I' for Inactive)
REMARK    1  A    between atoms: C_2  and  C_4
REMARK    2  A    between atoms: N_8  and  C_9
REMARK    3  A    between atoms: C_9  and  C_10
REMARK                            x       y       z     vdW  Elec       q    Type
REMARK                         _______ _______ _______ _____ _____    ______ ____
ROOT
ATOM      1  C   UNL     1      44.791   5.241  12.710  0.00  0.00    +0.000 A 
ATOM      2  C   UNL     1      44.446   6.561  12.547  0.00  0.00    +0.000 A 
ATOM      3  N   UNL     1      45.346   7.544  12.326  0.00  0.00    +0.000 NA
ATOM      4  C   UNL     1      46.648   7.199  12.303  0.00  0.00    +0.000 A 
ATOM      5  N   UNL     1      47.522   8.235  11.973  0.00  0.00    +0.000 N 
ATOM      6  N   UNL     1      47.079   5.946  12.505  0.00  0.00    +0.000 NA
ATOM      7  C   UNL     1      46.143   4.990  12.707  0.00  0.00    +0.000 A 
ATOM      8  H   UNL     1      46.980   9.089  12.036  0.00  0.00    +0.000 HD
ENDROOT
BRANCH   1  10
ATOM      9  N   UNL     1      44.241   2.876  12.628  0.00  0.00    +0.000 N 
ATOM     10  C   UNL     1      43.821   4.153  12.894  0.00  0.00    +0.000 C 
ATOM     11  O   UNL     1      42.694   4.377  13.314  0.00  0.00    +0.000 OA
ATOM     12  H   UNL     1      43.590   2.138  12.872  0.00  0.00    +0.000 HD
ATOM     13  H   UNL     1      45.212   2.617  12.519  0.00  0.00    +0.000 HD
ENDBRANCH   1  10
BRANCH   5  14
ATOM     14  C   UNL     1      48.907   8.285  12.457  0.00  0.00    +0.000 C 
ATOM     15  C   UNL     1      49.849   9.174  11.650  0.00  0.00    +0.000 C 
ATOM     16  C   UNL     1      50.075   7.700  11.684  0.00  0.00    +0.000 C 
BRANCH  14  17
ATOM     17  C   UNL     1      49.041   8.300  13.977  0.00  0.00    +0.000 A 
ATOM     18  C   UNL     1      48.352   9.249  14.752  0.00  0.00    +0.000 A 
ATOM     19  C   UNL     1      48.357   9.192  16.147  0.00  0.00    +0.000 A 
ATOM     20  C   UNL     1      49.069   8.189  16.799  0.00  0.00    +0.000 A 
ATOM     21  C   UNL     1      49.808   7.272  16.058  0.00  0.00    +0.000 A 
ATOM     22  C   UNL     1      49.805   7.339  14.663  0.00  0.00    +0.000 A 
ENDBRANCH  14  17
ENDBRANCH   5  14
TORSDOF 3
ENDMDL
