MODEL 1
REMARK VINA RESULT:    -7.800      0.000      0.000
REMARK INTER + INTRA:         -12.013
REMARK INTER:                 -10.764
REMARK INTRA:                  -1.249
REMARK UNBOUND:                -1.249
REMARK  Name = 
REMARK  8 active torsions:
REMARK  status: ('A' for Active; 'I' for Inactive)
REMARK    1  A    between atoms: C_1  and  N_2
REMARK    2  A    between atoms: N_2  and  C_3
REMARK    3  A    between atoms: C_3  and  C_4
REMARK    4  A    between atoms: C_7  and  C_8
REMARK    5  A    between atoms: C_8  and  O_9
REMARK    6  A    between atoms: C_8  and  C_10
REMARK    7  A    between atoms: C_10  and  C_11
REMARK    8  A    between atoms: C_18  and  C_20
REMARK                            x       y       z     vdW  Elec       q    Type
REMARK                         _______ _______ _______ _____ _____    ______ ____
ROOT
ATOM      1  C   UNL     1      47.502   6.529  12.354  0.00  0.00    +0.000 C 
ENDROOT
BRANCH   1   2
ATOM      2  C   UNL     1      47.472   5.768  13.652  0.00  0.00    +0.000 A 
ATOM      3  C   UNL     1      48.155   6.255  14.777  0.00  0.00    +0.000 A 
ATOM      4  C   UNL     1      48.253   5.480  15.930  0.00  0.00    +0.000 A 
ATOM      5  C   UNL     1      47.671   4.205  15.983  0.00  0.00    +0.000 A 
ATOM      6  C   UNL     1      46.921   3.760  14.884  0.00  0.00    +0.000 A 
ATOM      7  C   UNL     1      46.824   4.531  13.728  0.00  0.00    +0.000 A 
BRANCH   5   8
ATOM      8  C   UNL     1      47.943   3.309  17.178  0.00  0.00    +0.000 C 
BRANCH   8   9
ATOM      9  O   UNL     1      46.707   2.825  17.714  0.00  0.00    +0.000 OA
ATOM     10  H   UNL     1      46.910   2.276  18.487  0.00  0.00    +0.000 HD
ENDBRANCH   8   9
BRANCH   8  11
ATOM     11  C   UNL     1      48.822   2.108  16.824  0.00  0.00    +0.000 C 
BRANCH  11  12
ATOM     12  C   UNL     1      50.222   2.245  17.359  0.00  0.00    +0.000 C 
ATOM     13  N   UNL     1      51.161   1.381  17.066  0.00  0.00    +0.000 NA
ATOM     14  C   UNL     1      52.369   1.921  17.760  0.00  0.00    +0.000 C 
ATOM     15  C   UNL     1      52.038   3.371  18.124  0.00  0.00    +0.000 C 
ATOM     16  N   UNL     1      50.596   3.320  18.126  0.00  0.00    +0.000 N 
ATOM     17  H   UNL     1      50.084   4.188  18.034  0.00  0.00    +0.000 HD
ENDBRANCH  11  12
ENDBRANCH   8  11
ENDBRANCH   5   8
ENDBRANCH   1   2
BRANCH   1  19
ATOM     18  C   UNL     1      46.501   8.796  12.915  0.00  0.00    +0.000 C 
ATOM     19  N   UNL     1      46.460   7.547  12.155  0.00  0.00    +0.000 N 
ATOM     20  C   UNL     1      45.254   7.307  11.466  0.00  0.00    +0.000 C 
ATOM     21  O   UNL     1      44.353   8.146  11.462  0.00  0.00    +0.000 OA
BRANCH  20  22
ATOM     22  C   UNL     1      45.044   6.032  10.761  0.00  0.00    +0.000 A 
ATOM     23  C   UNL     1      45.620   5.685   9.549  0.00  0.00    +0.000 A 
ATOM     24  S   UNL     1      45.212   4.116   9.013  0.00  0.00    +0.000 S 
ATOM     25  C   UNL     1      44.401   3.778  10.467  0.00  0.00    +0.000 A 
ATOM     26  N   UNL     1      43.905   2.537  10.714  0.00  0.00    +0.000 NA
ATOM     27  C   UNL     1      43.385   2.402  11.890  0.00  0.00    +0.000 A 
ATOM     28  N   UNL     1      43.288   3.402  12.820  0.00  0.00    +0.000 N 
ATOM     29  C   UNL     1      43.654   4.708  12.562  0.00  0.00    +0.000 A 
ATOM     30  O   UNL     1      43.339   5.610  13.327  0.00  0.00    +0.000 OA
ATOM     31  C   UNL     1      44.352   4.880  11.300  0.00  0.00    +0.000 A 
ATOM     32  H   UNL     1      42.816   3.244  13.698  0.00  0.00    +0.000 HD
ENDBRANCH  20  22
ENDBRANCH   1  19
TORSDOF 7
ENDMDL
MODEL 2
REMARK VINA RESULT:    -7.607      1.469      2.220
REMARK INTER + INTRA:         -11.747
REMARK INTER:                 -10.644
REMARK INTRA:                  -1.103
REMARK UNBOUND:                -1.249
REMARK  Name = 
REMARK  8 active torsions:
REMARK  status: ('A' for Active; 'I' for Inactive)
REMARK    1  A    between atoms: C_1  and  N_2
REMARK    2  A    between atoms: N_2  and  C_3
REMARK    3  A    between atoms: C_3  and  C_4
REMARK    4  A    between atoms: C_7  and  C_8
REMARK    5  A    between atoms: C_8  and  O_9
REMARK    6  A    between atoms: C_8  and  C_10
REMARK    7  A    between atoms: C_10  and  C_11
REMARK    8  A    between atoms: C_18  and  C_20
REMARK                            x       y       z     vdW  Elec       q    Type
REMARK                         _______ _______ _______ _____ _____    ______ ____
ROOT
ATOM      1  C   UNL     1      47.299   6.247  12.162  0.00  0.00    +0.000 C 
ENDROOT
BRANCH   1   2
ATOM      2  C   UNL     1      47.442   5.869  13.613  0.00  0.00    +0.000 A 
ATOM      3  C   UNL     1      48.285   6.604  14.458  0.00  0.00    +0.000 A 
ATOM      4  C   UNL     1      48.535   6.167  15.757  0.00  0.00    +0.000 A 
ATOM      5  C   UNL     1      47.946   4.988  16.237  0.00  0.00    +0.000 A 
ATOM      6  C   UNL     1      47.040   4.303  15.413  0.00  0.00    +0.000 A 
ATOM      7  C   UNL     1      46.793   4.736  14.111  0.00  0.00    +0.000 A 
BRANCH   5   8
ATOM      8  C   UNL     1      48.371   4.436  17.585  0.00  0.00    +0.000 C 
BRANCH   8   9
ATOM      9  O   UNL     1      47.339   4.664  18.551  0.00  0.00    +0.000 OA
ATOM     10  H   UNL     1      46.487   4.461  18.132  0.00  0.00    +0.000 HD
ENDBRANCH   8   9
BRANCH   8  11
ATOM     11  C   UNL     1      48.671   2.936  17.539  0.00  0.00    +0.000 C 
BRANCH  11  12
ATOM     12  C   UNL     1      50.147   2.647  17.511  0.00  0.00    +0.000 C 
ATOM     13  N   UNL     1      51.022   3.473  18.026  0.00  0.00    +0.000 NA
ATOM     14  C   UNL     1      52.330   2.780  17.819  0.00  0.00    +0.000 C 
ATOM     15  C   UNL     1      51.990   1.323  17.487  0.00  0.00    +0.000 C 
ATOM     16  N   UNL     1      50.640   1.471  17.003  0.00  0.00    +0.000 N 
ATOM     17  H   UNL     1      50.041   0.655  16.991  0.00  0.00    +0.000 HD
ENDBRANCH  11  12
ENDBRANCH   8  11
ENDBRANCH   5   8
ENDBRANCH   1   2
BRANCH   1  19
ATOM     18  C   UNL     1      46.374   8.609  12.019  0.00  0.00    +0.000 C 
ATOM     19  N   UNL     1      46.207   7.169  11.820  0.00  0.00    +0.000 N 
ATOM     20  C   UNL     1      44.888   6.753  11.550  0.00  0.00    +0.000 C 
ATOM     21  O   UNL     1      43.982   7.577  11.420  0.00  0.00    +0.000 OA
BRANCH  20  22
ATOM     22  C   UNL     1      44.568   5.320  11.446  0.00  0.00    +0.000 A 
ATOM     23  C   UNL     1      43.793   4.607  12.346  0.00  0.00    +0.000 A 
ATOM     24  S   UNL     1      43.570   2.968  11.923  0.00  0.00    +0.000 S 
ATOM     25  C   UNL     1      44.347   3.199  10.430  0.00  0.00    +0.000 A 
ATOM     26  N   UNL     1      44.399   2.199   9.510  0.00  0.00    +0.000 NA
ATOM     27  C   UNL     1      44.949   2.540   8.391  0.00  0.00    +0.000 A 
ATOM     28  N   UNL     1      45.480   3.774   8.127  0.00  0.00    +0.000 N 
ATOM     29  C   UNL     1      45.573   4.773   9.075  0.00  0.00    +0.000 A 
ATOM     30  O   UNL     1      46.257   5.767   8.873  0.00  0.00    +0.000 OA
ATOM     31  C   UNL     1      44.861   4.476  10.306  0.00  0.00    +0.000 A 
ATOM     32  H   UNL     1      45.949   3.954   7.252  0.00  0.00    +0.000 HD
ENDBRANCH  20  22
ENDBRANCH   1  19
TORSDOF 7
ENDMDL
MODEL 3
REMARK VINA RESULT:    -7.446      2.744      7.723
REMARK INTER + INTRA:         -11.524
REMARK INTER:                 -10.336
REMARK INTRA:                  -1.188
REMARK UNBOUND:                -1.249
REMARK  Name = 
REMARK  8 active torsions:
REMARK  status: ('A' for Active; 'I' for Inactive)
REMARK    1  A    between atoms: C_1  and  N_2
REMARK    2  A    between atoms: N_2  and  C_3
REMARK    3  A    between atoms: C_3  and  C_4
REMARK    4  A    between atoms: C_7  and  C_8
REMARK    5  A    between atoms: C_8  and  O_9
REMARK    6  A    between atoms: C_8  and  C_10
REMARK    7  A    between atoms: C_10  and  C_11
REMARK    8  A    between atoms: C_18  and  C_20
REMARK                            x       y       z     vdW  Elec       q    Type
REMARK                         _______ _______ _______ _____ _____    ______ ____
ROOT
ATOM      1  C   UNL     1      48.783   6.622  14.455  0.00  0.00    +0.000 C 
ENDROOT
BRANCH   1   2
ATOM      2  C   UNL     1      47.504   6.166  13.804  0.00  0.00    +0.000 A 
ATOM      3  C   UNL     1      46.607   7.103  13.269  0.00  0.00    +0.000 A 
ATOM      4  C   UNL     1      45.359   6.696  12.803  0.00  0.00    +0.000 A 
ATOM      5  C   UNL     1      44.982   5.346  12.863  0.00  0.00    +0.000 A 
ATOM      6  C   UNL     1      45.916   4.405  13.324  0.00  0.00    +0.000 A 
ATOM      7  C   UNL     1      47.164   4.811  13.794  0.00  0.00    +0.000 A 
BRANCH   5   8
ATOM      8  C   UNL     1      43.558   4.952  12.520  0.00  0.00    +0.000 C 
BRANCH   8   9
ATOM      9  O   UNL     1      42.639   5.706  13.319  0.00  0.00    +0.000 OA
ATOM     10  H   UNL     1      42.071   6.217  12.721  0.00  0.00    +0.000 HD
ENDBRANCH   8   9
BRANCH   8  11
ATOM     11  C   UNL     1      43.222   5.186  11.045  0.00  0.00    +0.000 C 
BRANCH  11  12
ATOM     12  C   UNL     1      43.950   4.235  10.134  0.00  0.00    +0.000 C 
ATOM     13  N   UNL     1      43.876   2.937  10.289  0.00  0.00    +0.000 NA
ATOM     14  C   UNL     1      44.698   2.397   9.164  0.00  0.00    +0.000 C 
ATOM     15  C   UNL     1      44.885   3.557   8.181  0.00  0.00    +0.000 C 
ATOM     16  N   UNL     1      44.673   4.683   9.057  0.00  0.00    +0.000 N 
ATOM     17  H   UNL     1      44.433   5.575   8.644  0.00  0.00    +0.000 HD
ENDBRANCH  11  12
ENDBRANCH   8  11
ENDBRANCH   5   8
ENDBRANCH   1   2
BRANCH   1  19
ATOM     18  C   UNL     1      48.833   8.927  15.522  0.00  0.00    +0.000 C 
ATOM     19  N   UNL     1      48.656   7.480  15.641  0.00  0.00    +0.000 N 
ATOM     20  C   UNL     1      48.632   6.989  16.962  0.00  0.00    +0.000 C 
ATOM     21  O   UNL     1      48.679   7.759  17.922  0.00  0.00    +0.000 OA
BRANCH  20  22
ATOM     22  C   UNL     1      48.577   5.539  17.214  0.00  0.00    +0.000 A 
ATOM     23  C   UNL     1      47.431   4.762  17.155  0.00  0.00    +0.000 A 
ATOM     24  S   UNL     1      47.704   3.103  17.456  0.00  0.00    +0.000 S 
ATOM     25  C   UNL     1      49.387   3.338  17.494  0.00  0.00    +0.000 A 
ATOM     26  N   UNL     1      50.234   2.281  17.600  0.00  0.00    +0.000 NA
ATOM     27  C   UNL     1      51.485   2.600  17.536  0.00  0.00    +0.000 A 
ATOM     28  N   UNL     1      51.959   3.878  17.411  0.00  0.00    +0.000 N 
ATOM     29  C   UNL     1      51.141   4.991  17.436  0.00  0.00    +0.000 A 
ATOM     30  O   UNL     1      51.614   6.113  17.556  0.00  0.00    +0.000 OA
ATOM     31  C   UNL     1      49.724   4.674  17.386  0.00  0.00    +0.000 A 
ATOM     32  H   UNL     1      52.951   4.063  17.427  0.00  0.00    +0.000 HD
ENDBRANCH  20  22
ENDBRANCH   1  19
TORSDOF 7
ENDMDL
MODEL 4
REMARK VINA RESULT:    -7.209      3.591      7.589
REMARK INTER + INTRA:         -11.197
REMARK INTER:                  -9.930
REMARK INTRA:                  -1.268
REMARK UNBOUND:                -1.249
REMARK  Name = 
REMARK  8 active torsions:
REMARK  status: ('A' for Active; 'I' for Inactive)
REMARK    1  A    between atoms: C_1  and  N_2
REMARK    2  A    between atoms: N_2  and  C_3
REMARK    3  A    between atoms: C_3  and  C_4
REMARK    4  A    between atoms: C_7  and  C_8
REMARK    5  A    between atoms: C_8  and  O_9
REMARK    6  A    between atoms: C_8  and  C_10
REMARK    7  A    between atoms: C_10  and  C_11
REMARK    8  A    between atoms: C_18  and  C_20
REMARK                            x       y       z     vdW  Elec       q    Type
REMARK                         _______ _______ _______ _____ _____    ______ ____
ROOT
ATOM      1  C   UNL     1      47.446   7.984  13.632  0.00  0.00    +0.000 C 
ENDROOT
BRANCH   1   2
ATOM      2  C   UNL     1      46.662   6.774  13.197  0.00  0.00    +0.000 A 
ATOM      3  C   UNL     1      46.906   5.523  13.782  0.00  0.00    +0.000 A 
ATOM      4  C   UNL     1      46.292   4.378  13.278  0.00  0.00    +0.000 A 
ATOM      5  C   UNL     1      45.422   4.462  12.181  0.00  0.00    +0.000 A 
ATOM      6  C   UNL     1      45.120   5.727  11.655  0.00  0.00    +0.000 A 
ATOM      7  C   UNL     1      45.737   6.873  12.154  0.00  0.00    +0.000 A 
BRANCH   5   8
ATOM      8  C   UNL     1      44.907   3.188  11.537  0.00  0.00    +0.000 C 
BRANCH   8   9
ATOM      9  O   UNL     1      44.032   2.506  12.442  0.00  0.00    +0.000 OA
ATOM     10  H   UNL     1      43.401   1.988  11.916  0.00  0.00    +0.000 HD
ENDBRANCH   8   9
BRANCH   8  11
ATOM     11  C   UNL     1      44.149   3.451  10.235  0.00  0.00    +0.000 C 
BRANCH  11  12
ATOM     12  C   UNL     1      44.967   3.116   9.018  0.00  0.00    +0.000 C 
ATOM     13  N   UNL     1      45.316   4.028   8.146  0.00  0.00    +0.000 NA
ATOM     14  C   UNL     1      46.136   3.274   7.151  0.00  0.00    +0.000 C 
ATOM     15  C   UNL     1      46.496   1.943   7.818  0.00  0.00    +0.000 C 
ATOM     16  N   UNL     1      45.442   1.846   8.799  0.00  0.00    +0.000 N 
ATOM     17  H   UNL     1      45.578   1.232   9.591  0.00  0.00    +0.000 HD
ENDBRANCH  11  12
ENDBRANCH   8  11
ENDBRANCH   5   8
ENDBRANCH   1   2
BRANCH   1  19
ATOM     18  C   UNL     1      49.582   7.388  12.393  0.00  0.00    +0.000 C 
ATOM     19  N   UNL     1      48.911   7.875  13.598  0.00  0.00    +0.000 N 
ATOM     20  C   UNL     1      49.727   7.958  14.744  0.00  0.00    +0.000 C 
ATOM     21  O   UNL     1      50.931   7.707  14.679  0.00  0.00    +0.000 OA
BRANCH  20  22
ATOM     22  C   UNL     1      49.145   8.322  16.046  0.00  0.00    +0.000 A 
ATOM     23  C   UNL     1      48.804   9.607  16.437  0.00  0.00    +0.000 A 
ATOM     24  S   UNL     1      48.107   9.695  17.993  0.00  0.00    +0.000 S 
ATOM     25  C   UNL     1      48.068   8.001  18.124  0.00  0.00    +0.000 A 
ATOM     26  N   UNL     1      47.473   7.399  19.188  0.00  0.00    +0.000 NA
ATOM     27  C   UNL     1      47.447   6.109  19.116  0.00  0.00    +0.000 A 
ATOM     28  N   UNL     1      47.990   5.373  18.097  0.00  0.00    +0.000 N 
ATOM     29  C   UNL     1      48.721   5.934  17.069  0.00  0.00    +0.000 A 
ATOM     30  O   UNL     1      49.382   5.233  16.314  0.00  0.00    +0.000 OA
ATOM     31  C   UNL     1      48.674   7.386  17.045  0.00  0.00    +0.000 A 
ATOM     32  H   UNL     1      47.987   4.364  18.133  0.00  0.00    +0.000 HD
ENDBRANCH  20  22
ENDBRANCH   1  19
TORSDOF 7
ENDMDL
MODEL 5
REMARK VINA RESULT:    -6.823      3.971      7.869
REMARK INTER + INTRA:         -10.665
REMARK INTER:                  -9.452
REMARK INTRA:                  -1.213
REMARK UNBOUND:                -1.249
REMARK  Name = 
REMARK  8 active torsions:
REMARK  status: ('A' for Active; 'I' for Inactive)
REMARK    1  A    between atoms: C_1  and  N_2
REMARK    2  A    between atoms: N_2  and  C_3
REMARK    3  A    between atoms: C_3  and  C_4
REMARK    4  A    between atoms: C_7  and  C_8
REMARK    5  A    between atoms: C_8  and  O_9
REMARK    6  A    between atoms: C_8  and  C_10
REMARK    7  A    between atoms: C_10  and  C_11
REMARK    8  A    between atoms: C_18  and  C_20
REMARK                            x       y       z     vdW  Elec       q    Type
REMARK                         _______ _______ _______ _____ _____    ______ ____
ROOT
ATOM      1  C   UNL     1      46.865   7.574  13.423  0.00  0.00    +0.000 C 
ENDROOT
BRANCH   1   2
ATOM      2  C   UNL     1      46.156   6.404  12.794  0.00  0.00    +0.000 A 
ATOM      3  C   UNL     1      46.275   5.121  13.349  0.00  0.00    +0.000 A 
ATOM      4  C   UNL     1      45.746   4.016  12.686  0.00  0.00    +0.000 A 
ATOM      5  C   UNL     1      45.088   4.171  11.457  0.00  0.00    +0.000 A 
ATOM      6  C   UNL     1      44.903   5.466  10.950  0.00  0.00    +0.000 A 
ATOM      7  C   UNL     1      45.435   6.573  11.610  0.00  0.00    +0.000 A 
BRANCH   5   8
ATOM      8  C   UNL     1      44.681   2.941  10.668  0.00  0.00    +0.000 C 
BRANCH   8   9
ATOM      9  O   UNL     1      43.446   2.424  11.176  0.00  0.00    +0.000 OA
ATOM     10  H   UNL     1      42.924   3.170  11.510  0.00  0.00    +0.000 HD
ENDBRANCH   8   9
BRANCH   8  11
ATOM     11  C   UNL     1      44.508   3.230   9.175  0.00  0.00    +0.000 C 
BRANCH  11  12
ATOM     12  C   UNL     1      45.614   2.638   8.345  0.00  0.00    +0.000 C 
ATOM     13  N   UNL     1      45.989   1.391   8.481  0.00  0.00    +0.000 NA
ATOM     14  C   UNL     1      47.060   1.227   7.451  0.00  0.00    +0.000 C 
ATOM     15  C   UNL     1      46.925   2.423   6.504  0.00  0.00    +0.000 C 
ATOM     16  N   UNL     1      46.239   3.361   7.359  0.00  0.00    +0.000 N 
ATOM     17  H   UNL     1      45.743   4.131   6.928  0.00  0.00    +0.000 HD
ENDBRANCH  11  12
ENDBRANCH   8  11
ENDBRANCH   5   8
ENDBRANCH   1   2
BRANCH   1  19
ATOM     18  C   UNL     1      48.828   7.757  11.821  0.00  0.00    +0.000 C 
ATOM     19  N   UNL     1      48.312   7.681  13.187  0.00  0.00    +0.000 N 
ATOM     20  C   UNL     1      49.285   7.452  14.181  0.00  0.00    +0.000 C 
ATOM     21  O   UNL     1      50.481   7.404  13.892  0.00  0.00    +0.000 OA
BRANCH  20  22
ATOM     22  C   UNL     1      48.881   7.239  15.581  0.00  0.00    +0.000 A 
ATOM     23  C   UNL     1      48.797   6.007  16.209  0.00  0.00    +0.000 A 
ATOM     24  S   UNL     1      48.340   6.097  17.851  0.00  0.00    +0.000 S 
ATOM     25  C   UNL     1      48.418   7.794  17.830  0.00  0.00    +0.000 A 
ATOM     26  N   UNL     1      48.247   8.513  18.970  0.00  0.00    +0.000 NA
ATOM     27  C   UNL     1      48.411   9.787  18.820  0.00  0.00    +0.000 A 
ATOM     28  N   UNL     1      48.694  10.402  17.630  0.00  0.00    +0.000 N 
ATOM     29  C   UNL     1      48.741   9.728  16.426  0.00  0.00    +0.000 A 
ATOM     30  O   UNL     1      48.764  10.339  15.366  0.00  0.00    +0.000 OA
ATOM     31  C   UNL     1      48.681   8.283  16.564  0.00  0.00    +0.000 A 
ATOM     32  H   UNL     1      48.751  11.408  17.572  0.00  0.00    +0.000 HD
ENDBRANCH  20  22
ENDBRANCH   1  19
TORSDOF 7
ENDMDL
MODEL 6
REMARK VINA RESULT:    -6.683      3.846      7.852
REMARK INTER + INTRA:         -10.472
REMARK INTER:                  -9.134
REMARK INTRA:                  -1.338
REMARK UNBOUND:                -1.249
REMARK  Name = 
REMARK  8 active torsions:
REMARK  status: ('A' for Active; 'I' for Inactive)
REMARK    1  A    between atoms: C_1  and  N_2
REMARK    2  A    between atoms: N_2  and  C_3
REMARK    3  A    between atoms: C_3  and  C_4
REMARK    4  A    between atoms: C_7  and  C_8
REMARK    5  A    between atoms: C_8  and  O_9
REMARK    6  A    between atoms: C_8  and  C_10
REMARK    7  A    between atoms: C_10  and  C_11
REMARK    8  A    between atoms: C_18  and  C_20
REMARK                            x       y       z     vdW  Elec       q    Type
REMARK                         _______ _______ _______ _____ _____    ______ ____
ROOT
ATOM      1  C   UNL     1      49.001   6.938  13.095  0.00  0.00    +0.000 C 
ENDROOT
BRANCH   1   2
ATOM      2  C   UNL     1      47.566   6.485  13.149  0.00  0.00    +0.000 A 
ATOM      3  C   UNL     1      47.245   5.200  13.611  0.00  0.00    +0.000 A 
ATOM      4  C   UNL     1      45.937   4.727  13.520  0.00  0.00    +0.000 A 
ATOM      5  C   UNL     1      44.927   5.527  12.967  0.00  0.00    +0.000 A 
ATOM      6  C   UNL     1      45.241   6.839  12.583  0.00  0.00    +0.000 A 
ATOM      7  C   UNL     1      46.549   7.314  12.668  0.00  0.00    +0.000 A 
BRANCH   5   8
ATOM      8  C   UNL     1      43.556   4.929  12.713  0.00  0.00    +0.000 C 
BRANCH   8   9
ATOM      9  O   UNL     1      42.588   5.553  13.563  0.00  0.00    +0.000 OA
ATOM     10  H   UNL     1      42.323   4.910  14.239  0.00  0.00    +0.000 HD
ENDBRANCH   8   9
BRANCH   8  11
ATOM     11  C   UNL     1      43.103   5.091  11.260  0.00  0.00    +0.000 C 
BRANCH  11  12
ATOM     12  C   UNL     1      43.856   4.188  10.321  0.00  0.00    +0.000 C 
ATOM     13  N   UNL     1      43.801   2.884  10.423  0.00  0.00    +0.000 NA
ATOM     14  C   UNL     1      44.644   2.403   9.288  0.00  0.00    +0.000 C 
ATOM     15  C   UNL     1      44.824   3.603   8.353  0.00  0.00    +0.000 C 
ATOM     16  N   UNL     1      44.584   4.690   9.271  0.00  0.00    +0.000 N 
ATOM     17  H   UNL     1      44.335   5.594   8.891  0.00  0.00    +0.000 HD
ENDBRANCH  11  12
ENDBRANCH   8  11
ENDBRANCH   5   8
ENDBRANCH   1   2
BRANCH   1  19
ATOM     18  C   UNL     1      49.683   7.109  15.536  0.00  0.00    +0.000 C 
ATOM     19  N   UNL     1      49.490   7.735  14.228  0.00  0.00    +0.000 N 
ATOM     20  C   UNL     1      49.546   9.144  14.227  0.00  0.00    +0.000 C 
ATOM     21  O   UNL     1      49.818   9.764  15.255  0.00  0.00    +0.000 OA
BRANCH  20  22
ATOM     22  C   UNL     1      49.252   9.897  12.996  0.00  0.00    +0.000 A 
ATOM     23  C   UNL     1      48.081  10.595  12.748  0.00  0.00    +0.000 A 
ATOM     24  S   UNL     1      48.062  11.402  11.244  0.00  0.00    +0.000 S 
ATOM     25  C   UNL     1      49.687  11.001  10.954  0.00  0.00    +0.000 A 
ATOM     26  N   UNL     1      50.342  11.491   9.868  0.00  0.00    +0.000 NA
ATOM     27  C   UNL     1      51.592  11.169   9.817  0.00  0.00    +0.000 A 
ATOM     28  N   UNL     1      52.232  10.375  10.732  0.00  0.00    +0.000 N 
ATOM     29  C   UNL     1      51.577   9.746  11.771  0.00  0.00    +0.000 A 
ATOM     30  O   UNL     1      52.130   8.869  12.421  0.00  0.00    +0.000 OA
ATOM     31  C   UNL     1      50.199  10.175  11.937  0.00  0.00    +0.000 A 
ATOM     32  H   UNL     1      53.197  10.114  10.599  0.00  0.00    +0.000 HD
ENDBRANCH  20  22
ENDBRANCH   1  19
TORSDOF 7
ENDMDL
MODEL 7
REMARK VINA RESULT:    -6.596      3.232      7.822
REMARK INTER + INTRA:         -10.352
REMARK INTER:                  -8.492
REMARK INTRA:                  -1.859
REMARK UNBOUND:                -1.249
REMARK  Name = 
REMARK  8 active torsions:
REMARK  status: ('A' for Active; 'I' for Inactive)
REMARK    1  A    between atoms: C_1  and  N_2
REMARK    2  A    between atoms: N_2  and  C_3
REMARK    3  A    between atoms: C_3  and  C_4
REMARK    4  A    between atoms: C_7  and  C_8
REMARK    5  A    between atoms: C_8  and  O_9
REMARK    6  A    between atoms: C_8  and  C_10
REMARK    7  A    between atoms: C_10  and  C_11
REMARK    8  A    between atoms: C_18  and  C_20
REMARK                            x       y       z     vdW  Elec       q    Type
REMARK                         _______ _______ _______ _____ _____    ______ ____
ROOT
ATOM      1  C   UNL     1      49.324   8.132  17.168  0.00  0.00    +0.000 C 
ENDROOT
BRANCH   1   2
ATOM      2  C   UNL     1      48.769   8.000  15.775  0.00  0.00    +0.000 A 
ATOM      3  C   UNL     1      48.162   9.097  15.146  0.00  0.00    +0.000 A 
ATOM      4  C   UNL     1      47.516   8.938  13.922  0.00  0.00    +0.000 A 
ATOM      5  C   UNL     1      47.464   7.680  13.303  0.00  0.00    +0.000 A 
ATOM      6  C   UNL     1      48.144   6.607  13.899  0.00  0.00    +0.000 A 
ATOM      7  C   UNL     1      48.787   6.763  15.125  0.00  0.00    +0.000 A 
BRANCH   5   8
ATOM      8  C   UNL     1      46.606   7.492  12.066  0.00  0.00    +0.000 C 
BRANCH   8   9
ATOM      9  O   UNL     1      46.668   6.129  11.634  0.00  0.00    +0.000 OA
ATOM     10  H   UNL     1      46.757   6.125  10.667  0.00  0.00    +0.000 HD
ENDBRANCH   8   9
BRANCH   8  11
ATOM     11  C   UNL     1      45.139   7.858  12.307  0.00  0.00    +0.000 C 
BRANCH  11  12
ATOM     12  C   UNL     1      44.236   6.655  12.276  0.00  0.00    +0.000 C 
ATOM     13  N   UNL     1      44.249   5.756  13.228  0.00  0.00    +0.000 NA
ATOM     14  C   UNL     1      43.188   4.788  12.817  0.00  0.00    +0.000 C 
ATOM     15  C   UNL     1      42.357   5.498  11.744  0.00  0.00    +0.000 C 
ATOM     16  N   UNL     1      43.309   6.478  11.279  0.00  0.00    +0.000 N 
ATOM     17  H   UNL     1      42.960   7.290  10.786  0.00  0.00    +0.000 HD
ENDBRANCH  11  12
ENDBRANCH   8  11
ENDBRANCH   5   8
ENDBRANCH   1   2
BRANCH   1  19
ATOM     18  C   UNL     1      47.507   8.649  18.867  0.00  0.00    +0.000 C 
ATOM     19  N   UNL     1      48.455   7.706  18.274  0.00  0.00    +0.000 N 
ATOM     20  C   UNL     1      48.641   6.512  19.000  0.00  0.00    +0.000 C 
ATOM     21  O   UNL     1      47.979   6.280  20.012  0.00  0.00    +0.000 OA
BRANCH  20  22
ATOM     22  C   UNL     1      49.654   5.534  18.571  0.00  0.00    +0.000 A 
ATOM     23  C   UNL     1      50.974   5.513  18.993  0.00  0.00    +0.000 A 
ATOM     24  S   UNL     1      51.887   4.224  18.348  0.00  0.00    +0.000 S 
ATOM     25  C   UNL     1      50.507   3.543  17.629  0.00  0.00    +0.000 A 
ATOM     26  N   UNL     1      50.572   2.337  17.003  0.00  0.00    +0.000 NA
ATOM     27  C   UNL     1      49.431   1.905  16.574  0.00  0.00    +0.000 A 
ATOM     28  N   UNL     1      48.248   2.585  16.683  0.00  0.00    +0.000 N 
ATOM     29  C   UNL     1      48.159   3.868  17.186  0.00  0.00    +0.000 A 
ATOM     30  O   UNL     1      47.135   4.524  17.054  0.00  0.00    +0.000 OA
ATOM     31  C   UNL     1      49.393   4.343  17.789  0.00  0.00    +0.000 A 
ATOM     32  H   UNL     1      47.403   2.216  16.272  0.00  0.00    +0.000 HD
ENDBRANCH  20  22
ENDBRANCH   1  19
TORSDOF 7
ENDMDL
MODEL 8
REMARK VINA RESULT:    -6.569      3.573      7.771
REMARK INTER + INTRA:         -10.315
REMARK INTER:                  -9.396
REMARK INTRA:                  -0.919
REMARK UNBOUND:                -1.249
REMARK  Name = 
REMARK  8 active torsions:
REMARK  status: ('A' for Active; 'I' for Inactive)
REMARK    1  A    between atoms: C_1  and  N_2
REMARK    2  A    between atoms: N_2  and  C_3
REMARK    3  A    between atoms: C_3  and  C_4
REMARK    4  A    between atoms: C_7  and  C_8
REMARK    5  A    between atoms: C_8  and  O_9
REMARK    6  A    between atoms: C_8  and  C_10
REMARK    7  A    between atoms: C_10  and  C_11
REMARK    8  A    between atoms: C_18  and  C_20
REMARK                            x       y       z     vdW  Elec       q    Type
REMARK                         _______ _______ _______ _____ _____    ______ ____
ROOT
ATOM      1  C   UNL     1      49.058   7.045  13.384  0.00  0.00    +0.000 C 
ENDROOT
BRANCH   1   2
ATOM      2  C   UNL     1      47.619   6.604  13.339  0.00  0.00    +0.000 A 
ATOM      3  C   UNL     1      47.247   5.345  13.834  0.00  0.00    +0.000 A 
ATOM      4  C   UNL     1      45.947   4.875  13.656  0.00  0.00    +0.000 A 
ATOM      5  C   UNL     1      44.995   5.653  12.982  0.00  0.00    +0.000 A 
ATOM      6  C   UNL     1      45.353   6.944  12.563  0.00  0.00    +0.000 A 
ATOM      7  C   UNL     1      46.653   7.414  12.735  0.00  0.00    +0.000 A 
BRANCH   5   8
ATOM      8  C   UNL     1      43.644   5.051  12.643  0.00  0.00    +0.000 C 
BRANCH   8   9
ATOM      9  O   UNL     1      42.632   5.625  13.478  0.00  0.00    +0.000 OA
ATOM     10  H   UNL     1      41.873   5.021  13.486  0.00  0.00    +0.000 HD
ENDBRANCH   8   9
BRANCH   8  11
ATOM     11  C   UNL     1      43.251   5.274  11.181  0.00  0.00    +0.000 C 
BRANCH  11  12
ATOM     12  C   UNL     1      43.933   4.309  10.250  0.00  0.00    +0.000 C 
ATOM     13  N   UNL     1      43.797   3.013  10.378  0.00  0.00    +0.000 NA
ATOM     14  C   UNL     1      44.593   2.458   9.242  0.00  0.00    +0.000 C 
ATOM     15  C   UNL     1      44.836   3.628   8.282  0.00  0.00    +0.000 C 
ATOM     16  N   UNL     1      44.677   4.744   9.182  0.00  0.00    +0.000 N 
ATOM     17  H   UNL     1      44.480   5.655   8.787  0.00  0.00    +0.000 HD
ENDBRANCH  11  12
ENDBRANCH   8  11
ENDBRANCH   5   8
ENDBRANCH   1   2
BRANCH   1  19
ATOM     18  C   UNL     1      49.352   9.520  12.893  0.00  0.00    +0.000 C 
ATOM     19  N   UNL     1      49.319   8.414  13.850  0.00  0.00    +0.000 N 
ATOM     20  C   UNL     1      49.807   8.723  15.136  0.00  0.00    +0.000 C 
ATOM     21  O   UNL     1      50.153   9.870  15.419  0.00  0.00    +0.000 OA
BRANCH  20  22
ATOM     22  C   UNL     1      49.936   7.667  16.154  0.00  0.00    +0.000 A 
ATOM     23  C   UNL     1      50.880   6.654  16.139  0.00  0.00    +0.000 A 
ATOM     24  S   UNL     1      50.796   5.610  17.487  0.00  0.00    +0.000 S 
ATOM     25  C   UNL     1      49.618   6.583  18.228  0.00  0.00    +0.000 A 
ATOM     26  N   UNL     1      49.183   6.312  19.487  0.00  0.00    +0.000 NA
ATOM     27  C   UNL     1      48.347   7.180  19.954  0.00  0.00    +0.000 A 
ATOM     28  N   UNL     1      47.883   8.267  19.263  0.00  0.00    +0.000 N 
ATOM     29  C   UNL     1      48.191   8.505  17.938  0.00  0.00    +0.000 A 
ATOM     30  O   UNL     1      47.579   9.346  17.294  0.00  0.00    +0.000 OA
ATOM     31  C   UNL     1      49.220   7.624  17.412  0.00  0.00    +0.000 A 
ATOM     32  H   UNL     1      47.184   8.872  19.667  0.00  0.00    +0.000 HD
ENDBRANCH  20  22
ENDBRANCH   1  19
TORSDOF 7
ENDMDL
MODEL 9
REMARK VINA RESULT:    -6.430      2.685      3.644
REMARK INTER + INTRA:         -10.122
REMARK INTER:                  -9.033
REMARK INTRA:                  -1.089
REMARK UNBOUND:                -1.249
REMARK  Name = 
REMARK  8 active torsions:
REMARK  status: ('A' for Active; 'I' for Inactive)
REMARK    1  A    between atoms: C_1  and  N_2
REMARK    2  A    between atoms: N_2  and  C_3
REMARK    3  A    between atoms: C_3  and  C_4
REMARK    4  A    between atoms: C_7  and  C_8
REMARK    5  A    between atoms: C_8  and  O_9
REMARK    6  A    between atoms: C_8  and  C_10
REMARK    7  A    between atoms: C_10  and  C_11
REMARK    8  A    between atoms: C_18  and  C_20
REMARK                            x       y       z     vdW  Elec       q    Type
REMARK                         _______ _______ _______ _____ _____    ______ ____
ROOT
ATOM      1  C   UNL     1      47.317   5.927  12.503  0.00  0.00    +0.000 C 
ENDROOT
BRANCH   1   2
ATOM      2  C   UNL     1      47.583   5.775  13.977  0.00  0.00    +0.000 A 
ATOM      3  C   UNL     1      48.423   6.680  14.644  0.00  0.00    +0.000 A 
ATOM      4  C   UNL     1      48.789   6.455  15.969  0.00  0.00    +0.000 A 
ATOM      5  C   UNL     1      48.325   5.322  16.653  0.00  0.00    +0.000 A 
ATOM      6  C   UNL     1      47.421   4.466  16.005  0.00  0.00    +0.000 A 
ATOM      7  C   UNL     1      47.056   4.687  14.679  0.00  0.00    +0.000 A 
BRANCH   5   8
ATOM      8  C   UNL     1      48.878   5.003  18.030  0.00  0.00    +0.000 C 
BRANCH   8   9
ATOM      9  O   UNL     1      49.668   3.810  17.972  0.00  0.00    +0.000 OA
ATOM     10  H   UNL     1      49.600   3.363  18.830  0.00  0.00    +0.000 HD
ENDBRANCH   8   9
BRANCH   8  11
ATOM     11  C   UNL     1      49.745   6.132  18.592  0.00  0.00    +0.000 C 
BRANCH  11  12
ATOM     12  C   UNL     1      49.002   6.984  19.584  0.00  0.00    +0.000 C 
ATOM     13  N   UNL     1      48.924   8.285  19.457  0.00  0.00    +0.000 NA
ATOM     14  C   UNL     1      48.077   8.706  20.613  0.00  0.00    +0.000 C 
ATOM     15  C   UNL     1      47.402   7.431  21.131  0.00  0.00    +0.000 C 
ATOM     16  N   UNL     1      48.314   6.430  20.636  0.00  0.00    +0.000 N 
ATOM     17  H   UNL     1      47.984   5.476  20.555  0.00  0.00    +0.000 HD
ENDBRANCH  11  12
ENDBRANCH   8  11
ENDBRANCH   5   8
ENDBRANCH   1   2
BRANCH   1  19
ATOM     18  C   UNL     1      46.584   8.354  12.351  0.00  0.00    +0.000 C 
ATOM     19  N   UNL     1      46.325   6.936  12.106  0.00  0.00    +0.000 N 
ATOM     20  C   UNL     1      45.001   6.626  11.735  0.00  0.00    +0.000 C 
ATOM     21  O   UNL     1      44.171   7.519  11.561  0.00  0.00    +0.000 OA
BRANCH  20  22
ATOM     22  C   UNL     1      44.584   5.223  11.574  0.00  0.00    +0.000 A 
ATOM     23  C   UNL     1      43.800   4.516  12.471  0.00  0.00    +0.000 A 
ATOM     24  S   UNL     1      43.453   2.919  11.977  0.00  0.00    +0.000 S 
ATOM     25  C   UNL     1      44.182   3.177  10.465  0.00  0.00    +0.000 A 
ATOM     26  N   UNL     1      44.130   2.225   9.496  0.00  0.00    +0.000 NA
ATOM     27  C   UNL     1      44.655   2.588   8.372  0.00  0.00    +0.000 A 
ATOM     28  N   UNL     1      45.256   3.798   8.145  0.00  0.00    +0.000 N 
ATOM     29  C   UNL     1      45.453   4.738   9.137  0.00  0.00    +0.000 A 
ATOM     30  O   UNL     1      46.192   5.696   8.954  0.00  0.00    +0.000 OA
ATOM     31  C   UNL     1      44.773   4.423  10.382  0.00  0.00    +0.000 A 
ATOM     32  H   UNL     1      45.700   3.993   7.261  0.00  0.00    +0.000 HD
ENDBRANCH  20  22
ENDBRANCH   1  19
TORSDOF 7
ENDMDL
