MODEL 1
REMARK VINA RESULT:    -6.813      0.000      0.000
REMARK INTER + INTRA:         -12.823
REMARK INTER:                 -10.795
REMARK INTRA:                  -2.027
REMARK UNBOUND:                -2.027
REMARK  Name = 
REMARK  11 active torsions:
REMARK  status: ('A' for Active; 'I' for Inactive)
REMARK    1  A    between atoms: C_1  and  C_2
REMARK    2  A    between atoms: C_2  and  C_3
REMARK    3  A    between atoms: C_3  and  C_4
REMARK    4  A    between atoms: C_4  and  N_5
REMARK    5  A    between atoms: C_4  and  C_21
REMARK    6  A    between atoms: N_5  and  C_6
REMARK    7  A    between atoms: C_6  and  C_7
REMARK    8  A    between atoms: C_10  and  C_11
REMARK    9  A    between atoms: C_11  and  N_12
REMARK   10  A    between atoms: N_12  and  C_13
REMARK   11  A    between atoms: C_13  and  C_14
REMARK                            x       y       z     vdW  Elec       q    Type
REMARK                         _______ _______ _______ _____ _____    ______ ____
ROOT
ATOM      1  C   UNL     1      47.988   7.989  12.106  0.00  0.00    +0.000 C 
ENDROOT
BRANCH   1   2
ATOM      2  C   UNL     1      48.373   7.811  13.542  0.00  0.00    +0.000 A 
ATOM      3  C   UNL     1      48.353   8.867  14.452  0.00  0.00    +0.000 A 
ATOM      4  C   UNL     1      48.497   8.601  15.812  0.00  0.00    +0.000 A 
ATOM      5  C   UNL     1      48.695   7.285  16.224  0.00  0.00    +0.000 A 
ATOM      6  N   UNL     1      48.777   6.258  15.340  0.00  0.00    +0.000 NA
ATOM      7  C   UNL     1      48.622   6.537  14.034  0.00  0.00    +0.000 A 
BRANCH   5   8
ATOM      8  C   UNL     1      48.773   6.941  17.702  0.00  0.00    +0.000 C 
BRANCH   8   9
ATOM      9  N   UNL     1      47.921   5.796  18.025  0.00  0.00    +0.000 NA
ATOM     10  H   UNL     1      47.407   5.518  17.193  0.00  0.00    +0.000 HD
BRANCH   9  11
ATOM     11  C   UNL     1      48.648   4.685  18.631  0.00  0.00    +0.000 C 
BRANCH  11  12
ATOM     12  C   UNL     1      48.020   3.332  18.219  0.00  0.00    +0.000 C 
ATOM     13  C   UNL     1      48.811   2.566  17.162  0.00  0.00    +0.000 C 
ATOM     14  C   UNL     1      48.115   2.870  15.849  0.00  0.00    +0.000 C 
ATOM     15  N   UNL     1      47.020   3.776  16.191  0.00  0.00    +0.000 NA
ATOM     16  N   UNL     1      46.707   3.533  17.581  0.00  0.00    +0.000 NA
ATOM     17  H   UNL     1      46.224   3.658  15.561  0.00  0.00    +0.000 HD
ATOM     18  H   UNL     1      46.168   2.668  17.688  0.00  0.00    +0.000 HD
ENDBRANCH  11  12
ENDBRANCH   9  11
ENDBRANCH   8   9
ENDBRANCH   5   8
ENDBRANCH   1   2
BRANCH   1  19
ATOM     19  N   UNL     1      47.155   6.923  11.568  0.00  0.00    +0.000 NA
ATOM     20  H   UNL     1      47.484   6.658  10.641  0.00  0.00    +0.000 HD
BRANCH  19  21
ATOM     21  C   UNL     1      45.723   7.277  11.501  0.00  0.00    +0.000 C 
BRANCH  21  22
ATOM     22  C   UNL     1      44.901   6.004  11.722  0.00  0.00    +0.000 A 
ATOM     23  C   UNL     1      44.171   5.738  12.875  0.00  0.00    +0.000 A 
ATOM     24  S   UNL     1      43.422   4.209  12.885  0.00  0.00    +0.000 S 
ATOM     25  C   UNL     1      44.028   3.851  11.339  0.00  0.00    +0.000 A 
ATOM     26  N   UNL     1      43.742   2.663  10.747  0.00  0.00    +0.000 NA
ATOM     27  C   UNL     1      44.286   2.507   9.590  0.00  0.00    +0.000 A 
ATOM     28  N   UNL     1      45.094   3.431   8.967  0.00  0.00    +0.000 N 
ATOM     29  C   UNL     1      45.392   4.662   9.517  0.00  0.00    +0.000 A 
ATOM     30  O   UNL     1      46.085   5.472   8.911  0.00  0.00    +0.000 OA
ATOM     31  C   UNL     1      44.806   4.875  10.827  0.00  0.00    +0.000 A 
ATOM     32  H   UNL     1      45.490   3.241   8.054  0.00  0.00    +0.000 HD
ENDBRANCH  21  22
BRANCH  21  33
ATOM     33  C   UNL     1      45.282   8.407  12.471  0.00  0.00    +0.000 C 
BRANCH  33  35
ATOM     34  C   UNL     1      43.760   9.562  10.861  0.00  0.00    +0.000 C 
ATOM     35  C   UNL     1      44.912   9.751  11.846  0.00  0.00    +0.000 C 
ENDBRANCH  33  35
ENDBRANCH  21  33
ENDBRANCH  19  21
ENDBRANCH   1  19
TORSDOF 10
ENDMDL
MODEL 2
REMARK VINA RESULT:    -6.675      3.427      8.223
REMARK INTER + INTRA:         -12.604
REMARK INTER:                 -11.446
REMARK INTRA:                  -1.158
REMARK UNBOUND:                -2.027
REMARK  Name = 
REMARK  11 active torsions:
REMARK  status: ('A' for Active; 'I' for Inactive)
REMARK    1  A    between atoms: C_1  and  C_2
REMARK    2  A    between atoms: C_2  and  C_3
REMARK    3  A    between atoms: C_3  and  C_4
REMARK    4  A    between atoms: C_4  and  N_5
REMARK    5  A    between atoms: C_4  and  C_21
REMARK    6  A    between atoms: N_5  and  C_6
REMARK    7  A    between atoms: C_6  and  C_7
REMARK    8  A    between atoms: C_10  and  C_11
REMARK    9  A    between atoms: C_11  and  N_12
REMARK   10  A    between atoms: N_12  and  C_13
REMARK   11  A    between atoms: C_13  and  C_14
REMARK                            x       y       z     vdW  Elec       q    Type
REMARK                         _______ _______ _______ _____ _____    ______ ____
ROOT
ATOM      1  C   UNL     1      48.501   6.164  14.798  0.00  0.00    +0.000 C 
ENDROOT
BRANCH   1   2
ATOM      2  C   UNL     1      47.212   5.859  14.099  0.00  0.00    +0.000 A 
ATOM      3  C   UNL     1      46.571   6.791  13.285  0.00  0.00    +0.000 A 
ATOM      4  C   UNL     1      45.507   6.384  12.484  0.00  0.00    +0.000 A 
ATOM      5  C   UNL     1      45.088   5.056  12.545  0.00  0.00    +0.000 A 
ATOM      6  N   UNL     1      45.668   4.155  13.378  0.00  0.00    +0.000 NA
ATOM      7  C   UNL     1      46.701   4.569  14.133  0.00  0.00    +0.000 A 
BRANCH   5   8
ATOM      8  C   UNL     1      43.988   4.551  11.626  0.00  0.00    +0.000 C 
BRANCH   8   9
ATOM      9  N   UNL     1      44.529   4.136  10.331  0.00  0.00    +0.000 NA
ATOM     10  H   UNL     1      45.335   4.714  10.106  0.00  0.00    +0.000 HD
BRANCH   9  11
ATOM     11  C   UNL     1      44.825   2.709  10.256  0.00  0.00    +0.000 C 
BRANCH  11  12
ATOM     12  C   UNL     1      44.763   2.215   8.791  0.00  0.00    +0.000 C 
ATOM     13  C   UNL     1      46.089   1.694   8.245  0.00  0.00    +0.000 C 
ATOM     14  C   UNL     1      46.669   2.845   7.445  0.00  0.00    +0.000 C 
ATOM     15  N   UNL     1      45.704   3.936   7.581  0.00  0.00    +0.000 NA
ATOM     16  N   UNL     1      44.430   3.321   7.874  0.00  0.00    +0.000 NA
ATOM     17  H   UNL     1      45.694   4.534   6.752  0.00  0.00    +0.000 HD
ATOM     18  H   UNL     1      44.016   2.917   7.029  0.00  0.00    +0.000 HD
ENDBRANCH  11  12
ENDBRANCH   9  11
ENDBRANCH   8   9
ENDBRANCH   5   8
ENDBRANCH   1   2
BRANCH   1  19
ATOM     19  N   UNL     1      48.403   6.208  16.251  0.00  0.00    +0.000 NA
ATOM     20  H   UNL     1      49.158   6.774  16.634  0.00  0.00    +0.000 HD
BRANCH  19  21
ATOM     21  C   UNL     1      48.421   4.872  16.879  0.00  0.00    +0.000 C 
BRANCH  21  22
ATOM     22  C   UNL     1      49.809   4.640  17.482  0.00  0.00    +0.000 A 
ATOM     23  C   UNL     1      50.564   5.628  18.104  0.00  0.00    +0.000 A 
ATOM     24  S   UNL     1      52.106   5.111  18.605  0.00  0.00    +0.000 S 
ATOM     25  C   UNL     1      51.818   3.540  18.027  0.00  0.00    +0.000 A 
ATOM     26  N   UNL     1      52.766   2.576  18.154  0.00  0.00    +0.000 NA
ATOM     27  C   UNL     1      52.432   1.440  17.649  0.00  0.00    +0.000 A 
ATOM     28  N   UNL     1      51.234   1.175  17.026  0.00  0.00    +0.000 N 
ATOM     29  C   UNL     1      50.229   2.114  16.896  0.00  0.00    +0.000 A 
ATOM     30  O   UNL     1      49.161   1.824  16.368  0.00  0.00    +0.000 OA
ATOM     31  C   UNL     1      50.569   3.413  17.443  0.00  0.00    +0.000 A 
ATOM     32  H   UNL     1      51.038   0.255  16.650  0.00  0.00    +0.000 HD
ENDBRANCH  21  22
BRANCH  21  33
ATOM     33  C   UNL     1      47.303   4.629  17.931  0.00  0.00    +0.000 C 
BRANCH  33  35
ATOM     34  C   UNL     1      47.538   5.733  20.160  0.00  0.00    +0.000 C 
ATOM     35  C   UNL     1      46.884   5.826  18.783  0.00  0.00    +0.000 C 
ENDBRANCH  33  35
ENDBRANCH  21  33
ENDBRANCH  19  21
ENDBRANCH   1  19
TORSDOF 10
ENDMDL
MODEL 3
REMARK VINA RESULT:    -6.495      2.137      3.189
REMARK INTER + INTRA:         -12.319
REMARK INTER:                  -9.546
REMARK INTRA:                  -2.773
REMARK UNBOUND:                -2.027
REMARK  Name = 
REMARK  11 active torsions:
REMARK  status: ('A' for Active; 'I' for Inactive)
REMARK    1  A    between atoms: C_1  and  C_2
REMARK    2  A    between atoms: C_2  and  C_3
REMARK    3  A    between atoms: C_3  and  C_4
REMARK    4  A    between atoms: C_4  and  N_5
REMARK    5  A    between atoms: C_4  and  C_21
REMARK    6  A    between atoms: N_5  and  C_6
REMARK    7  A    between atoms: C_6  and  C_7
REMARK    8  A    between atoms: C_10  and  C_11
REMARK    9  A    between atoms: C_11  and  N_12
REMARK   10  A    between atoms: N_12  and  C_13
REMARK   11  A    between atoms: C_13  and  C_14
REMARK                            x       y       z     vdW  Elec       q    Type
REMARK                         _______ _______ _______ _____ _____    ______ ____
ROOT
ATOM      1  C   UNL     1      48.282   9.153  15.244  0.00  0.00    +0.000 C 
ENDROOT
BRANCH   1   2
ATOM      2  C   UNL     1      49.008   8.048  15.946  0.00  0.00    +0.000 A 
ATOM      3  C   UNL     1      50.187   7.498  15.444  0.00  0.00    +0.000 A 
ATOM      4  C   UNL     1      50.937   6.640  16.245  0.00  0.00    +0.000 A 
ATOM      5  C   UNL     1      50.467   6.325  17.519  0.00  0.00    +0.000 A 
ATOM      6  N   UNL     1      49.292   6.808  17.993  0.00  0.00    +0.000 NA
ATOM      7  C   UNL     1      48.590   7.644  17.207  0.00  0.00    +0.000 A 
BRANCH   5   8
ATOM      8  C   UNL     1      51.297   5.462  18.456  0.00  0.00    +0.000 C 
BRANCH   8   9
ATOM      9  N   UNL     1      50.578   4.241  18.825  0.00  0.00    +0.000 NA
ATOM     10  H   UNL     1      49.695   4.494  19.262  0.00  0.00    +0.000 HD
BRANCH   9  11
ATOM     11  C   UNL     1      50.407   3.310  17.715  0.00  0.00    +0.000 C 
BRANCH  11  12
ATOM     12  C   UNL     1      49.029   2.611  17.796  0.00  0.00    +0.000 C 
ATOM     13  C   UNL     1      48.089   2.937  16.638  0.00  0.00    +0.000 C 
ATOM     14  C   UNL     1      47.163   4.014  17.171  0.00  0.00    +0.000 C 
ATOM     15  N   UNL     1      47.608   4.266  18.540  0.00  0.00    +0.000 NA
ATOM     16  N   UNL     1      48.277   3.063  18.981  0.00  0.00    +0.000 NA
ATOM     17  H   UNL     1      46.832   4.551  19.141  0.00  0.00    +0.000 HD
ATOM     18  H   UNL     1      47.599   2.334  19.221  0.00  0.00    +0.000 HD
ENDBRANCH  11  12
ENDBRANCH   9  11
ENDBRANCH   8   9
ENDBRANCH   5   8
ENDBRANCH   1   2
BRANCH   1  19
ATOM     19  N   UNL     1      47.141   8.717  14.451  0.00  0.00    +0.000 NA
ATOM     20  H   UNL     1      46.617   8.005  14.956  0.00  0.00    +0.000 HD
BRANCH  19  21
ATOM     21  C   UNL     1      47.516   8.201  13.119  0.00  0.00    +0.000 C 
BRANCH  21  22
ATOM     22  C   UNL     1      46.318   7.444  12.539  0.00  0.00    +0.000 A 
ATOM     23  C   UNL     1      45.276   8.049  11.844  0.00  0.00    +0.000 A 
ATOM     24  S   UNL     1      44.034   6.980  11.388  0.00  0.00    +0.000 S 
ATOM     25  C   UNL     1      44.849   5.662  12.085  0.00  0.00    +0.000 A 
ATOM     26  N   UNL     1      44.311   4.416  12.034  0.00  0.00    +0.000 NA
ATOM     27  C   UNL     1      45.016   3.514  12.625  0.00  0.00    +0.000 A 
ATOM     28  N   UNL     1      46.213   3.742  13.263  0.00  0.00    +0.000 N 
ATOM     29  C   UNL     1      46.813   4.985  13.319  0.00  0.00    +0.000 A 
ATOM     30  O   UNL     1      47.900   5.136  13.864  0.00  0.00    +0.000 OA
ATOM     31  C   UNL     1      46.045   6.033  12.674  0.00  0.00    +0.000 A 
ATOM     32  H   UNL     1      46.716   2.983  13.708  0.00  0.00    +0.000 HD
ENDBRANCH  21  22
BRANCH  21  33
ATOM     33  C   UNL     1      48.039   9.275  12.125  0.00  0.00    +0.000 C 
BRANCH  33  35
ATOM     34  C   UNL     1      49.949   7.707  11.753  0.00  0.00    +0.000 C 
ATOM     35  C   UNL     1      49.501   9.166  11.695  0.00  0.00    +0.000 C 
ENDBRANCH  33  35
ENDBRANCH  21  33
ENDBRANCH  19  21
ENDBRANCH   1  19
TORSDOF 10
ENDMDL
MODEL 4
REMARK VINA RESULT:    -6.449      3.405      7.767
REMARK INTER + INTRA:         -12.246
REMARK INTER:                 -10.696
REMARK INTRA:                  -1.549
REMARK UNBOUND:                -2.027
REMARK  Name = 
REMARK  11 active torsions:
REMARK  status: ('A' for Active; 'I' for Inactive)
REMARK    1  A    between atoms: C_1  and  C_2
REMARK    2  A    between atoms: C_2  and  C_3
REMARK    3  A    between atoms: C_3  and  C_4
REMARK    4  A    between atoms: C_4  and  N_5
REMARK    5  A    between atoms: C_4  and  C_21
REMARK    6  A    between atoms: N_5  and  C_6
REMARK    7  A    between atoms: C_6  and  C_7
REMARK    8  A    between atoms: C_10  and  C_11
REMARK    9  A    between atoms: C_11  and  N_12
REMARK   10  A    between atoms: N_12  and  C_13
REMARK   11  A    between atoms: C_13  and  C_14
REMARK                            x       y       z     vdW  Elec       q    Type
REMARK                         _______ _______ _______ _____ _____    ______ ____
ROOT
ATOM      1  C   UNL     1      48.841   7.072  15.370  0.00  0.00    +0.000 C 
ENDROOT
BRANCH   1   2
ATOM      2  C   UNL     1      47.967   6.932  14.161  0.00  0.00    +0.000 A 
ATOM      3  C   UNL     1      47.857   7.940  13.205  0.00  0.00    +0.000 A 
ATOM      4  C   UNL     1      47.216   7.671  11.997  0.00  0.00    +0.000 A 
ATOM      5  C   UNL     1      46.670   6.405  11.792  0.00  0.00    +0.000 A 
ATOM      6  N   UNL     1      46.720   5.437  12.741  0.00  0.00    +0.000 NA
ATOM      7  C   UNL     1      47.354   5.715  13.894  0.00  0.00    +0.000 A 
BRANCH   5   8
ATOM      8  C   UNL     1      46.039   6.044  10.458  0.00  0.00    +0.000 C 
BRANCH   8   9
ATOM      9  N   UNL     1      44.581   5.975  10.563  0.00  0.00    +0.000 NA
ATOM     10  H   UNL     1      44.171   6.726  10.014  0.00  0.00    +0.000 HD
BRANCH   9  11
ATOM     11  C   UNL     1      44.035   4.667  10.216  0.00  0.00    +0.000 C 
BRANCH  11  12
ATOM     12  C   UNL     1      42.905   4.269  11.195  0.00  0.00    +0.000 C 
ATOM     13  C   UNL     1      42.998   4.930  12.567  0.00  0.00    +0.000 C 
ATOM     14  C   UNL     1      43.641   3.892  13.466  0.00  0.00    +0.000 C 
ATOM     15  N   UNL     1      43.900   2.740  12.603  0.00  0.00    +0.000 NA
ATOM     16  N   UNL     1      42.961   2.829  11.508  0.00  0.00    +0.000 NA
ATOM     17  H   UNL     1      43.847   1.861  13.123  0.00  0.00    +0.000 HD
ATOM     18  H   UNL     1      42.026   2.533  11.803  0.00  0.00    +0.000 HD
ENDBRANCH  11  12
ENDBRANCH   9  11
ENDBRANCH   8   9
ENDBRANCH   5   8
ENDBRANCH   1   2
BRANCH   1  19
ATOM     19  N   UNL     1      49.393   5.818  15.863  0.00  0.00    +0.000 NA
ATOM     20  H   UNL     1      48.958   5.033  15.383  0.00  0.00    +0.000 HD
BRANCH  19  21
ATOM     21  C   UNL     1      49.246   5.648  17.323  0.00  0.00    +0.000 C 
BRANCH  21  22
ATOM     22  C   UNL     1      50.498   4.945  17.855  0.00  0.00    +0.000 A 
ATOM     23  C   UNL     1      51.508   5.584  18.566  0.00  0.00    +0.000 A 
ATOM     24  S   UNL     1      52.823   4.578  18.960  0.00  0.00    +0.000 S 
ATOM     25  C   UNL     1      52.085   3.243  18.213  0.00  0.00    +0.000 A 
ATOM     26  N   UNL     1      52.703   2.034  18.200  0.00  0.00    +0.000 NA
ATOM     27  C   UNL     1      52.050   1.116  17.577  0.00  0.00    +0.000 A 
ATOM     28  N   UNL     1      50.832   1.293  16.962  0.00  0.00    +0.000 N 
ATOM     29  C   UNL     1      50.153   2.496  16.969  0.00  0.00    +0.000 A 
ATOM     30  O   UNL     1      49.051   2.601  16.442  0.00  0.00    +0.000 OA
ATOM     31  C   UNL     1      50.860   3.562  17.653  0.00  0.00    +0.000 A 
ATOM     32  H   UNL     1      50.374   0.524  16.488  0.00  0.00    +0.000 HD
ENDBRANCH  21  22
BRANCH  21  33
ATOM     33  C   UNL     1      48.958   6.957  18.108  0.00  0.00    +0.000 C 
BRANCH  33  35
ATOM     34  C   UNL     1      46.949   5.687  18.877  0.00  0.00    +0.000 C 
ATOM     35  C   UNL     1      47.820   6.916  19.126  0.00  0.00    +0.000 C 
ENDBRANCH  33  35
ENDBRANCH  21  33
ENDBRANCH  19  21
ENDBRANCH   1  19
TORSDOF 10
ENDMDL
MODEL 5
REMARK VINA RESULT:    -6.396      3.559      7.692
REMARK INTER + INTRA:         -12.163
REMARK INTER:                 -10.635
REMARK INTRA:                  -1.528
REMARK UNBOUND:                -2.027
REMARK  Name = 
REMARK  11 active torsions:
REMARK  status: ('A' for Active; 'I' for Inactive)
REMARK    1  A    between atoms: C_1  and  C_2
REMARK    2  A    between atoms: C_2  and  C_3
REMARK    3  A    between atoms: C_3  and  C_4
REMARK    4  A    between atoms: C_4  and  N_5
REMARK    5  A    between atoms: C_4  and  C_21
REMARK    6  A    between atoms: N_5  and  C_6
REMARK    7  A    between atoms: C_6  and  C_7
REMARK    8  A    between atoms: C_10  and  C_11
REMARK    9  A    between atoms: C_11  and  N_12
REMARK   10  A    between atoms: N_12  and  C_13
REMARK   11  A    between atoms: C_13  and  C_14
REMARK                            x       y       z     vdW  Elec       q    Type
REMARK                         _______ _______ _______ _____ _____    ______ ____
ROOT
ATOM      1  C   UNL     1      50.080   7.012  15.422  0.00  0.00    +0.000 C 
ENDROOT
BRANCH   1   2
ATOM      2  C   UNL     1      49.066   7.332  14.367  0.00  0.00    +0.000 A 
ATOM      3  C   UNL     1      49.008   6.640  13.159  0.00  0.00    +0.000 A 
ATOM      4  C   UNL     1      47.913   6.823  12.317  0.00  0.00    +0.000 A 
ATOM      5  C   UNL     1      46.918   7.724  12.693  0.00  0.00    +0.000 A 
ATOM      6  N   UNL     1      46.996   8.446  13.838  0.00  0.00    +0.000 NA
ATOM      7  C   UNL     1      48.056   8.245  14.641  0.00  0.00    +0.000 A 
BRANCH   5   8
ATOM      8  C   UNL     1      45.667   7.889  11.846  0.00  0.00    +0.000 C 
BRANCH   8   9
ATOM      9  N   UNL     1      44.475   7.446  12.570  0.00  0.00    +0.000 NA
ATOM     10  H   UNL     1      43.646   7.727  12.052  0.00  0.00    +0.000 HD
BRANCH   9  11
ATOM     11  C   UNL     1      44.483   6.022  12.884  0.00  0.00    +0.000 C 
BRANCH  11  12
ATOM     12  C   UNL     1      43.209   5.335  12.336  0.00  0.00    +0.000 C 
ATOM     13  C   UNL     1      43.401   3.872  11.944  0.00  0.00    +0.000 C 
ATOM     14  C   UNL     1      43.595   3.888  10.440  0.00  0.00    +0.000 C 
ATOM     15  N   UNL     1      43.534   5.297  10.055  0.00  0.00    +0.000 NA
ATOM     16  N   UNL     1      42.767   5.968  11.080  0.00  0.00    +0.000 NA
ATOM     17  H   UNL     1      43.155   5.413   9.112  0.00  0.00    +0.000 HD
ATOM     18  H   UNL     1      41.766   5.783  10.968  0.00  0.00    +0.000 HD
ENDBRANCH  11  12
ENDBRANCH   9  11
ENDBRANCH   8   9
ENDBRANCH   5   8
ENDBRANCH   1   2
BRANCH   1  19
ATOM     19  N   UNL     1      49.514   6.649  16.713  0.00  0.00    +0.000 NA
ATOM     20  H   UNL     1      50.100   7.009  17.464  0.00  0.00    +0.000 HD
BRANCH  19  21
ATOM     21  C   UNL     1      49.330   5.194  16.885  0.00  0.00    +0.000 C 
BRANCH  21  22
ATOM     22  C   UNL     1      50.550   4.637  17.623  0.00  0.00    +0.000 A 
ATOM     23  C   UNL     1      51.401   5.404  18.412  0.00  0.00    +0.000 A 
ATOM     24  S   UNL     1      52.727   4.543  19.043  0.00  0.00    +0.000 S 
ATOM     25  C   UNL     1      52.205   3.106  18.301  0.00  0.00    +0.000 A 
ATOM     26  N   UNL     1      52.913   1.958  18.454  0.00  0.00    +0.000 NA
ATOM     27  C   UNL     1      52.426   0.950  17.817  0.00  0.00    +0.000 A 
ATOM     28  N   UNL     1      51.292   0.983  17.038  0.00  0.00    +0.000 N 
ATOM     29  C   UNL     1      50.524   2.120  16.873  0.00  0.00    +0.000 A 
ATOM     30  O   UNL     1      49.499   2.096  16.202  0.00  0.00    +0.000 OA
ATOM     31  C   UNL     1      51.045   3.282  17.567  0.00  0.00    +0.000 A 
ATOM     32  H   UNL     1      50.964   0.150  16.564  0.00  0.00    +0.000 HD
ENDBRANCH  21  22
BRANCH  21  33
ATOM     33  C   UNL     1      48.009   4.780  17.589  0.00  0.00    +0.000 C 
BRANCH  33  35
ATOM     34  C   UNL     1      47.097   4.387  15.296  0.00  0.00    +0.000 C 
ATOM     35  C   UNL     1      47.008   3.973  16.764  0.00  0.00    +0.000 C 
ENDBRANCH  33  35
ENDBRANCH  21  33
ENDBRANCH  19  21
ENDBRANCH   1  19
TORSDOF 10
ENDMDL
MODEL 6
REMARK VINA RESULT:    -6.258      3.077      7.957
REMARK INTER + INTRA:         -11.943
REMARK INTER:                 -10.651
REMARK INTRA:                  -1.293
REMARK UNBOUND:                -2.027
REMARK  Name = 
REMARK  11 active torsions:
REMARK  status: ('A' for Active; 'I' for Inactive)
REMARK    1  A    between atoms: C_1  and  C_2
REMARK    2  A    between atoms: C_2  and  C_3
REMARK    3  A    between atoms: C_3  and  C_4
REMARK    4  A    between atoms: C_4  and  N_5
REMARK    5  A    between atoms: C_4  and  C_21
REMARK    6  A    between atoms: N_5  and  C_6
REMARK    7  A    between atoms: C_6  and  C_7
REMARK    8  A    between atoms: C_10  and  C_11
REMARK    9  A    between atoms: C_11  and  N_12
REMARK   10  A    between atoms: N_12  and  C_13
REMARK   11  A    between atoms: C_13  and  C_14
REMARK                            x       y       z     vdW  Elec       q    Type
REMARK                         _______ _______ _______ _____ _____    ______ ____
ROOT
ATOM      1  C   UNL     1      48.091   6.600  13.894  0.00  0.00    +0.000 C 
ENDROOT
BRANCH   1   2
ATOM      2  C   UNL     1      46.765   5.986  13.570  0.00  0.00    +0.000 A 
ATOM      3  C   UNL     1      45.815   6.641  12.788  0.00  0.00    +0.000 A 
ATOM      4  C   UNL     1      44.702   5.938  12.331  0.00  0.00    +0.000 A 
ATOM      5  C   UNL     1      44.551   4.603  12.700  0.00  0.00    +0.000 A 
ATOM      6  N   UNL     1      45.440   3.974  13.510  0.00  0.00    +0.000 NA
ATOM      7  C   UNL     1      46.512   4.669  13.929  0.00  0.00    +0.000 A 
BRANCH   5   8
ATOM      8  C   UNL     1      43.397   3.777  12.155  0.00  0.00    +0.000 C 
BRANCH   8   9
ATOM      9  N   UNL     1      43.508   3.606  10.705  0.00  0.00    +0.000 NA
ATOM     10  H   UNL     1      43.666   4.513  10.274  0.00  0.00    +0.000 HD
BRANCH   9  11
ATOM     11  C   UNL     1      44.506   2.618  10.312  0.00  0.00    +0.000 C 
BRANCH  11  12
ATOM     12  C   UNL     1      44.563   2.481   8.772  0.00  0.00    +0.000 C 
ATOM     13  C   UNL     1      45.961   2.230   8.213  0.00  0.00    +0.000 C 
ATOM     14  C   UNL     1      46.450   3.587   7.743  0.00  0.00    +0.000 C 
ATOM     15  N   UNL     1      45.370   4.520   8.061  0.00  0.00    +0.000 NA
ATOM     16  N   UNL     1      44.156   3.737   8.116  0.00  0.00    +0.000 NA
ATOM     17  H   UNL     1      45.333   5.294   7.395  0.00  0.00    +0.000 HD
ATOM     18  H   UNL     1      43.825   3.508   7.174  0.00  0.00    +0.000 HD
ENDBRANCH  11  12
ENDBRANCH   9  11
ENDBRANCH   8   9
ENDBRANCH   5   8
ENDBRANCH   1   2
BRANCH   1  19
ATOM     19  N   UNL     1      48.701   6.108  15.121  0.00  0.00    +0.000 NA
ATOM     20  H   UNL     1      47.992   5.687  15.719  0.00  0.00    +0.000 HD
BRANCH  19  21
ATOM     21  C   UNL     1      49.426   7.150  15.875  0.00  0.00    +0.000 C 
BRANCH  21  22
ATOM     22  C   UNL     1      48.919   7.143  17.319  0.00  0.00    +0.000 A 
ATOM     23  C   UNL     1      48.434   8.266  17.981  0.00  0.00    +0.000 A 
ATOM     24  S   UNL     1      48.019   7.988  19.607  0.00  0.00    +0.000 S 
ATOM     25  C   UNL     1      48.452   6.350  19.486  0.00  0.00    +0.000 A 
ATOM     26  N   UNL     1      48.328   5.525  20.557  0.00  0.00    +0.000 NA
ATOM     27  C   UNL     1      48.718   4.317  20.340  0.00  0.00    +0.000 A 
ATOM     28  N   UNL     1      49.223   3.855  19.146  0.00  0.00    +0.000 N 
ATOM     29  C   UNL     1      49.344   4.648  18.022  0.00  0.00    +0.000 A 
ATOM     30  O   UNL     1      49.763   4.186  16.966  0.00  0.00    +0.000 OA
ATOM     31  C   UNL     1      48.925   6.021  18.227  0.00  0.00    +0.000 A 
ATOM     32  H   UNL     1      49.512   2.889  19.045  0.00  0.00    +0.000 HD
ENDBRANCH  21  22
BRANCH  21  33
ATOM     33  C   UNL     1      50.975   7.038  15.821  0.00  0.00    +0.000 C 
BRANCH  33  35
ATOM     34  C   UNL     1      50.744   9.153  14.513  0.00  0.00    +0.000 C 
ATOM     35  C   UNL     1      51.714   8.064  14.965  0.00  0.00    +0.000 C 
ENDBRANCH  33  35
ENDBRANCH  21  33
ENDBRANCH  19  21
ENDBRANCH   1  19
TORSDOF 10
ENDMDL
MODEL 7
REMARK VINA RESULT:    -6.234      3.144      8.714
REMARK INTER + INTRA:         -11.905
REMARK INTER:                 -10.884
REMARK INTRA:                  -1.021
REMARK UNBOUND:                -2.027
REMARK  Name = 
REMARK  11 active torsions:
REMARK  status: ('A' for Active; 'I' for Inactive)
REMARK    1  A    between atoms: C_1  and  C_2
REMARK    2  A    between atoms: C_2  and  C_3
REMARK    3  A    between atoms: C_3  and  C_4
REMARK    4  A    between atoms: C_4  and  N_5
REMARK    5  A    between atoms: C_4  and  C_21
REMARK    6  A    between atoms: N_5  and  C_6
REMARK    7  A    between atoms: C_6  and  C_7
REMARK    8  A    between atoms: C_10  and  C_11
REMARK    9  A    between atoms: C_11  and  N_12
REMARK   10  A    between atoms: N_12  and  C_13
REMARK   11  A    between atoms: C_13  and  C_14
REMARK                            x       y       z     vdW  Elec       q    Type
REMARK                         _______ _______ _______ _____ _____    ______ ____
ROOT
ATOM      1  C   UNL     1      47.697   5.345  14.645  0.00  0.00    +0.000 C 
ENDROOT
BRANCH   1   2
ATOM      2  C   UNL     1      46.593   5.020  13.687  0.00  0.00    +0.000 A 
ATOM      3  C   UNL     1      45.860   6.011  13.036  0.00  0.00    +0.000 A 
ATOM      4  C   UNL     1      45.006   5.657  11.993  0.00  0.00    +0.000 A 
ATOM      5  C   UNL     1      44.881   4.312  11.653  0.00  0.00    +0.000 A 
ATOM      6  N   UNL     1      45.545   3.335  12.321  0.00  0.00    +0.000 NA
ATOM      7  C   UNL     1      46.372   3.701  13.315  0.00  0.00    +0.000 A 
BRANCH   5   8
ATOM      8  C   UNL     1      44.027   3.892  10.467  0.00  0.00    +0.000 C 
BRANCH   8   9
ATOM      9  N   UNL     1      44.361   4.668   9.273  0.00  0.00    +0.000 NA
ATOM     10  H   UNL     1      44.209   5.655   9.464  0.00  0.00    +0.000 HD
BRANCH   9  11
ATOM     11  C   UNL     1      45.700   4.397   8.760  0.00  0.00    +0.000 C 
BRANCH  11  12
ATOM     12  C   UNL     1      45.630   3.530   7.480  0.00  0.00    +0.000 C 
ATOM     13  C   UNL     1      46.032   2.072   7.684  0.00  0.00    +0.000 C 
ATOM     14  C   UNL     1      47.473   1.989   7.219  0.00  0.00    +0.000 C 
ATOM     15  N   UNL     1      47.827   3.348   6.810  0.00  0.00    +0.000 NA
ATOM     16  N   UNL     1      46.588   4.008   6.467  0.00  0.00    +0.000 NA
ATOM     17  H   UNL     1      48.517   3.345   6.056  0.00  0.00    +0.000 HD
ATOM     18  H   UNL     1      46.254   3.703   5.548  0.00  0.00    +0.000 HD
ENDBRANCH  11  12
ENDBRANCH   9  11
ENDBRANCH   8   9
ENDBRANCH   5   8
ENDBRANCH   1   2
BRANCH   1  19
ATOM     19  N   UNL     1      47.359   5.146  16.047  0.00  0.00    +0.000 NA
ATOM     20  H   UNL     1      46.764   5.906  16.373  0.00  0.00    +0.000 HD
BRANCH  19  21
ATOM     21  C   UNL     1      48.541   5.033  16.925  0.00  0.00    +0.000 C 
BRANCH  21  22
ATOM     22  C   UNL     1      48.255   5.794  18.221  0.00  0.00    +0.000 A 
ATOM     23  C   UNL     1      47.950   5.184  19.433  0.00  0.00    +0.000 A 
ATOM     24  S   UNL     1      47.592   6.275  20.690  0.00  0.00    +0.000 S 
ATOM     25  C   UNL     1      47.849   7.608  19.667  0.00  0.00    +0.000 A 
ATOM     26  N   UNL     1      47.707   8.873  20.139  0.00  0.00    +0.000 NA
ATOM     27  C   UNL     1      47.901   9.789  19.255  0.00  0.00    +0.000 A 
ATOM     28  N   UNL     1      48.226   9.558  17.938  0.00  0.00    +0.000 N 
ATOM     29  C   UNL     1      48.406   8.291  17.418  0.00  0.00    +0.000 A 
ATOM     30  O   UNL     1      48.733   8.131  16.247  0.00  0.00    +0.000 OA
ATOM     31  C   UNL     1      48.186   7.228  18.380  0.00  0.00    +0.000 A 
ATOM     32  H   UNL     1      48.364  10.329  17.295  0.00  0.00    +0.000 HD
ENDBRANCH  21  22
BRANCH  21  33
ATOM     33  C   UNL     1      49.001   3.578  17.216  0.00  0.00    +0.000 C 
BRANCH  33  35
ATOM     34  C   UNL     1      50.804   1.852  17.336  0.00  0.00    +0.000 C 
ATOM     35  C   UNL     1      50.502   3.348  17.386  0.00  0.00    +0.000 C 
ENDBRANCH  33  35
ENDBRANCH  21  33
ENDBRANCH  19  21
ENDBRANCH   1  19
TORSDOF 10
ENDMDL
MODEL 8
REMARK VINA RESULT:    -6.224      2.581      6.621
REMARK INTER + INTRA:         -11.889
REMARK INTER:                  -9.971
REMARK INTRA:                  -1.918
REMARK UNBOUND:                -2.027
REMARK  Name = 
REMARK  11 active torsions:
REMARK  status: ('A' for Active; 'I' for Inactive)
REMARK    1  A    between atoms: C_1  and  C_2
REMARK    2  A    between atoms: C_2  and  C_3
REMARK    3  A    between atoms: C_3  and  C_4
REMARK    4  A    between atoms: C_4  and  N_5
REMARK    5  A    between atoms: C_4  and  C_21
REMARK    6  A    between atoms: N_5  and  C_6
REMARK    7  A    between atoms: C_6  and  C_7
REMARK    8  A    between atoms: C_10  and  C_11
REMARK    9  A    between atoms: C_11  and  N_12
REMARK   10  A    between atoms: N_12  and  C_13
REMARK   11  A    between atoms: C_13  and  C_14
REMARK                            x       y       z     vdW  Elec       q    Type
REMARK                         _______ _______ _______ _____ _____    ______ ____
ROOT
ATOM      1  C   UNL     1      49.777   7.932  13.693  0.00  0.00    +0.000 C 
ENDROOT
BRANCH   1   2
ATOM      2  C   UNL     1      48.491   7.850  12.931  0.00  0.00    +0.000 A 
ATOM      3  C   UNL     1      48.170   6.754  12.131  0.00  0.00    +0.000 A 
ATOM      4  C   UNL     1      46.876   6.627  11.631  0.00  0.00    +0.000 A 
ATOM      5  C   UNL     1      45.943   7.621  11.917  0.00  0.00    +0.000 A 
ATOM      6  N   UNL     1      46.262   8.721  12.644  0.00  0.00    +0.000 NA
ATOM      7  C   UNL     1      47.514   8.817  13.126  0.00  0.00    +0.000 A 
BRANCH   5   8
ATOM      8  C   UNL     1      44.499   7.479  11.463  0.00  0.00    +0.000 C 
BRANCH   8   9
ATOM      9  N   UNL     1      44.229   6.125  10.977  0.00  0.00    +0.000 NA
ATOM     10  H   UNL     1      44.974   5.505  11.284  0.00  0.00    +0.000 HD
BRANCH   9  11
ATOM     11  C   UNL     1      42.905   5.632  11.341  0.00  0.00    +0.000 C 
BRANCH  11  12
ATOM     12  C   UNL     1      43.018   4.379  12.244  0.00  0.00    +0.000 C 
ATOM     13  C   UNL     1      44.333   4.272  13.011  0.00  0.00    +0.000 C 
ATOM     14  C   UNL     1      45.187   3.314  12.202  0.00  0.00    +0.000 C 
ATOM     15  N   UNL     1      44.370   2.949  11.045  0.00  0.00    +0.000 NA
ATOM     16  N   UNL     1      42.993   3.145  11.438  0.00  0.00    +0.000 NA
ATOM     17  H   UNL     1      44.578   2.001  10.723  0.00  0.00    +0.000 HD
ATOM     18  H   UNL     1      42.673   2.381  12.040  0.00  0.00    +0.000 HD
ENDBRANCH  11  12
ENDBRANCH   9  11
ENDBRANCH   8   9
ENDBRANCH   5   8
ENDBRANCH   1   2
BRANCH   1  19
ATOM     19  N   UNL     1      49.849   7.051  14.851  0.00  0.00    +0.000 NA
ATOM     20  H   UNL     1      49.582   6.105  14.587  0.00  0.00    +0.000 HD
BRANCH  19  21
ATOM     21  C   UNL     1      49.015   7.503  15.983  0.00  0.00    +0.000 C 
BRANCH  21  22
ATOM     22  C   UNL     1      49.084   6.444  17.086  0.00  0.00    +0.000 A 
ATOM     23  C   UNL     1      49.828   6.581  18.253  0.00  0.00    +0.000 A 
ATOM     24  S   UNL     1      49.791   5.213  19.265  0.00  0.00    +0.000 S 
ATOM     25  C   UNL     1      48.764   4.390  18.191  0.00  0.00    +0.000 A 
ATOM     26  N   UNL     1      48.338   3.133  18.476  0.00  0.00    +0.000 NA
ATOM     27  C   UNL     1      47.588   2.612  17.566  0.00  0.00    +0.000 A 
ATOM     28  N   UNL     1      47.224   3.234  16.394  0.00  0.00    +0.000 N 
ATOM     29  C   UNL     1      47.610   4.520  16.072  0.00  0.00    +0.000 A 
ATOM     30  O   UNL     1      47.231   5.051  15.034  0.00  0.00    +0.000 OA
ATOM     31  C   UNL     1      48.466   5.140  17.067  0.00  0.00    +0.000 A 
ATOM     32  H   UNL     1      46.630   2.764  15.721  0.00  0.00    +0.000 HD
ENDBRANCH  21  22
BRANCH  21  33
ATOM     33  C   UNL     1      49.367   8.913  16.533  0.00  0.00    +0.000 C 
BRANCH  33  35
ATOM     34  C   UNL     1      47.753   9.670  18.283  0.00  0.00    +0.000 C 
ATOM     35  C   UNL     1      48.198   9.849  16.834  0.00  0.00    +0.000 C 
ENDBRANCH  33  35
ENDBRANCH  21  33
ENDBRANCH  19  21
ENDBRANCH   1  19
TORSDOF 10
ENDMDL
MODEL 9
REMARK VINA RESULT:    -6.090      1.908      2.723
REMARK INTER + INTRA:         -11.677
REMARK INTER:                 -10.174
REMARK INTRA:                  -1.503
REMARK UNBOUND:                -2.027
REMARK  Name = 
REMARK  11 active torsions:
REMARK  status: ('A' for Active; 'I' for Inactive)
REMARK    1  A    between atoms: C_1  and  C_2
REMARK    2  A    between atoms: C_2  and  C_3
REMARK    3  A    between atoms: C_3  and  C_4
REMARK    4  A    between atoms: C_4  and  N_5
REMARK    5  A    between atoms: C_4  and  C_21
REMARK    6  A    between atoms: N_5  and  C_6
REMARK    7  A    between atoms: C_6  and  C_7
REMARK    8  A    between atoms: C_10  and  C_11
REMARK    9  A    between atoms: C_11  and  N_12
REMARK   10  A    between atoms: N_12  and  C_13
REMARK   11  A    between atoms: C_13  and  C_14
REMARK                            x       y       z     vdW  Elec       q    Type
REMARK                         _______ _______ _______ _____ _____    ______ ____
ROOT
ATOM      1  C   UNL     1      47.178   6.206  12.577  0.00  0.00    +0.000 C 
ENDROOT
BRANCH   1   2
ATOM      2  C   UNL     1      47.485   5.398  13.800  0.00  0.00    +0.000 A 
ATOM      3  C   UNL     1      47.955   5.981  14.976  0.00  0.00    +0.000 A 
ATOM      4  C   UNL     1      48.006   5.222  16.143  0.00  0.00    +0.000 A 
ATOM      5  C   UNL     1      47.616   3.885  16.094  0.00  0.00    +0.000 A 
ATOM      6  N   UNL     1      47.214   3.293  14.942  0.00  0.00    +0.000 NA
ATOM      7  C   UNL     1      47.162   4.048  13.830  0.00  0.00    +0.000 A 
BRANCH   5   8
ATOM      8  C   UNL     1      47.576   3.046  17.362  0.00  0.00    +0.000 C 
BRANCH   8   9
ATOM      9  N   UNL     1      48.784   3.241  18.164  0.00  0.00    +0.000 NA
ATOM     10  H   UNL     1      48.625   2.875  19.100  0.00  0.00    +0.000 HD
BRANCH   9  11
ATOM     11  C   UNL     1      49.986   2.693  17.546  0.00  0.00    +0.000 C 
BRANCH  11  12
ATOM     12  C   UNL     1      51.110   3.756  17.500  0.00  0.00    +0.000 C 
ATOM     13  C   UNL     1      52.468   3.258  17.987  0.00  0.00    +0.000 C 
ATOM     14  C   UNL     1      52.576   3.739  19.421  0.00  0.00    +0.000 C 
ATOM     15  N   UNL     1      51.321   4.439  19.691  0.00  0.00    +0.000 NA
ATOM     16  N   UNL     1      50.814   4.877  18.411  0.00  0.00    +0.000 NA
ATOM     17  H   UNL     1      51.451   5.196  20.365  0.00  0.00    +0.000 HD
ATOM     18  H   UNL     1      51.325   5.699  18.076  0.00  0.00    +0.000 HD
ENDBRANCH  11  12
ENDBRANCH   9  11
ENDBRANCH   8   9
ENDBRANCH   5   8
ENDBRANCH   1   2
BRANCH   1  19
ATOM     19  N   UNL     1      45.953   6.990  12.663  0.00  0.00    +0.000 NA
ATOM     20  H   UNL     1      45.426   6.722  13.492  0.00  0.00    +0.000 HD
BRANCH  19  21
ATOM     21  C   UNL     1      45.093   6.864  11.469  0.00  0.00    +0.000 C 
BRANCH  21  22
ATOM     22  C   UNL     1      44.571   5.427  11.399  0.00  0.00    +0.000 A 
ATOM     23  C   UNL     1      43.808   4.825  12.394  0.00  0.00    +0.000 A 
ATOM     24  S   UNL     1      43.438   3.191  12.092  0.00  0.00    +0.000 S 
ATOM     25  C   UNL     1      44.267   3.230  10.610  0.00  0.00    +0.000 A 
ATOM     26  N   UNL     1      44.328   2.122   9.828  0.00  0.00    +0.000 NA
ATOM     27  C   UNL     1      45.010   2.277   8.746  0.00  0.00    +0.000 A 
ATOM     28  N   UNL     1      45.641   3.442   8.373  0.00  0.00    +0.000 N 
ATOM     29  C   UNL     1      45.586   4.601   9.121  0.00  0.00    +0.000 A 
ATOM     30  O   UNL     1      46.130   5.629   8.732  0.00  0.00    +0.000 OA
ATOM     31  C   UNL     1      44.835   4.466  10.355  0.00  0.00    +0.000 A 
ATOM     32  H   UNL     1      46.162   3.493   7.506  0.00  0.00    +0.000 HD
ENDBRANCH  21  22
BRANCH  21  33
ATOM     33  C   UNL     1      43.929   7.890  11.392  0.00  0.00    +0.000 C 
BRANCH  33  35
ATOM     34  C   UNL     1      44.561  10.251  11.911  0.00  0.00    +0.000 C 
ATOM     35  C   UNL     1      44.251   9.258  10.793  0.00  0.00    +0.000 C 
ENDBRANCH  33  35
ENDBRANCH  21  33
ENDBRANCH  19  21
ENDBRANCH   1  19
TORSDOF 10
ENDMDL
