MODEL 1
REMARK VINA RESULT:    -8.797      0.000      0.000
REMARK INTER + INTRA:         -11.537
REMARK INTER:                 -10.855
REMARK INTRA:                  -0.682
REMARK UNBOUND:                -0.682
REMARK  Name = 
REMARK  4 active torsions:
REMARK  status: ('A' for Active; 'I' for Inactive)
REMARK    1  A    between atoms: C_2  and  C_4
REMARK    2  A    between atoms: N_8  and  C_9
REMARK    3  A    between atoms: C_9  and  C_10
REMARK    4  A    between atoms: C_14  and  C_15
REMARK                            x       y       z     vdW  Elec       q    Type
REMARK                         _______ _______ _______ _____ _____    ______ ____
ROOT
ATOM      1  C   UNL     1      46.711   2.545   7.180  0.00  0.00    +0.000 A 
ATOM      2  C   UNL     1      46.293   3.803   7.594  0.00  0.00    +0.000 A 
ATOM      3  C   UNL     1      45.514   3.914   8.746  0.00  0.00    +0.000 A 
ATOM      4  C   UNL     1      45.177   2.777   9.471  0.00  0.00    +0.000 A 
ATOM      5  N   UNL     1      44.466   2.806  10.633  0.00  0.00    +0.000 N 
ATOM      6  N   UNL     1      45.560   1.548   9.062  0.00  0.00    +0.000 NA
ATOM      7  C   UNL     1      46.304   1.451   7.929  0.00  0.00    +0.000 A 
ATOM      8  H   UNL     1      44.278   1.891  11.021  0.00  0.00    +0.000 HD
ENDROOT
BRANCH   1  10
ATOM      9  N   UNL     1      47.385   3.233   4.955  0.00  0.00    +0.000 N 
ATOM     10  C   UNL     1      47.550   2.344   5.983  0.00  0.00    +0.000 C 
ATOM     11  O   UNL     1      48.380   1.448   5.921  0.00  0.00    +0.000 OA
ATOM     12  H   UNL     1      48.021   3.146   4.173  0.00  0.00    +0.000 HD
ATOM     13  H   UNL     1      46.896   4.110   5.067  0.00  0.00    +0.000 HD
ENDBRANCH   1  10
BRANCH   5  14
ATOM     14  C   UNL     1      44.016   3.982  11.335  0.00  0.00    +0.000 C 
BRANCH  14  15
ATOM     15  C   UNL     1      45.144   4.665  12.071  0.00  0.00    +0.000 A 
ATOM     16  C   UNL     1      45.524   5.968  11.720  0.00  0.00    +0.000 A 
ATOM     17  C   UNL     1      46.509   6.634  12.441  0.00  0.00    +0.000 A 
ATOM     18  C   UNL     1      47.105   6.017  13.541  0.00  0.00    +0.000 A 
ATOM     19  C   UNL     1      46.729   4.725  13.953  0.00  0.00    +0.000 A 
ATOM     20  C   UNL     1      45.770   4.049  13.172  0.00  0.00    +0.000 A 
BRANCH  19  21
ATOM     21  C   UNL     1      47.256   4.135  15.202  0.00  0.00    +0.000 A 
ATOM     22  C   UNL     1      47.103   4.779  16.436  0.00  0.00    +0.000 A 
ATOM     23  C   UNL     1      47.570   4.170  17.597  0.00  0.00    +0.000 A 
ATOM     24  C   UNL     1      48.180   2.929  17.508  0.00  0.00    +0.000 A 
ATOM     25  C   UNL     1      48.295   2.349  16.256  0.00  0.00    +0.000 A 
ATOM     26  N   UNL     1      47.843   2.914  15.110  0.00  0.00    +0.000 NA
ENDBRANCH  19  21
ENDBRANCH  14  15
ENDBRANCH   5  14
TORSDOF 4
ENDMDL
MODEL 2
REMARK VINA RESULT:    -8.666      2.196      4.173
REMARK INTER + INTRA:         -11.375
REMARK INTER:                 -10.635
REMARK INTRA:                  -0.739
REMARK UNBOUND:                -0.682
REMARK  Name = 
REMARK  4 active torsions:
REMARK  status: ('A' for Active; 'I' for Inactive)
REMARK    1  A    between atoms: C_2  and  C_4
REMARK    2  A    between atoms: N_8  and  C_9
REMARK    3  A    between atoms: C_9  and  C_10
REMARK    4  A    between atoms: C_14  and  C_15
REMARK                            x       y       z     vdW  Elec       q    Type
REMARK                         _______ _______ _______ _____ _____    ______ ____
ROOT
ATOM      1  C   UNL     1      46.638   2.479   7.251  0.00  0.00    +0.000 A 
ATOM      2  C   UNL     1      46.097   3.706   7.609  0.00  0.00    +0.000 A 
ATOM      3  C   UNL     1      45.213   3.771   8.686  0.00  0.00    +0.000 A 
ATOM      4  C   UNL     1      44.893   2.619   9.395  0.00  0.00    +0.000 A 
ATOM      5  N   UNL     1      44.082   2.607  10.489  0.00  0.00    +0.000 N 
ATOM      6  N   UNL     1      45.397   1.417   9.040  0.00  0.00    +0.000 NA
ATOM      7  C   UNL     1      46.244   1.365   7.977  0.00  0.00    +0.000 A 
ATOM      8  H   UNL     1      43.925   1.684  10.872  0.00  0.00    +0.000 HD
ENDROOT
BRANCH   1  10
ATOM      9  N   UNL     1      47.518   3.252   5.129  0.00  0.00    +0.000 N 
ATOM     10  C   UNL     1      47.592   2.328   6.136  0.00  0.00    +0.000 C 
ATOM     11  O   UNL     1      48.434   1.442   6.125  0.00  0.00    +0.000 OA
ATOM     12  H   UNL     1      48.228   3.199   4.411  0.00  0.00    +0.000 HD
ATOM     13  H   UNL     1      47.010   4.121   5.224  0.00  0.00    +0.000 HD
ENDBRANCH   1  10
BRANCH   5  14
ATOM     14  C   UNL     1      43.489   3.754  11.131  0.00  0.00    +0.000 C 
BRANCH  14  15
ATOM     15  C   UNL     1      44.500   4.530  11.941  0.00  0.00    +0.000 A 
ATOM     16  C   UNL     1      45.422   3.851  12.748  0.00  0.00    +0.000 A 
ATOM     17  C   UNL     1      46.406   4.551  13.438  0.00  0.00    +0.000 A 
ATOM     18  C   UNL     1      46.499   5.937  13.304  0.00  0.00    +0.000 A 
ATOM     19  C   UNL     1      45.619   6.656  12.474  0.00  0.00    +0.000 A 
ATOM     20  C   UNL     1      44.595   5.931  11.832  0.00  0.00    +0.000 A 
BRANCH  19  21
ATOM     21  C   UNL     1      45.813   8.100  12.221  0.00  0.00    +0.000 A 
ATOM     22  C   UNL     1      47.065   8.708  12.374  0.00  0.00    +0.000 A 
ATOM     23  C   UNL     1      47.219  10.058  12.080  0.00  0.00    +0.000 A 
ATOM     24  C   UNL     1      46.122  10.781  11.638  0.00  0.00    +0.000 A 
ATOM     25  C   UNL     1      44.915  10.116  11.507  0.00  0.00    +0.000 A 
ATOM     26  N   UNL     1      44.737   8.800  11.778  0.00  0.00    +0.000 NA
ENDBRANCH  19  21
ENDBRANCH  14  15
ENDBRANCH   5  14
TORSDOF 4
ENDMDL
MODEL 3
REMARK VINA RESULT:    -7.769      3.411      7.286
REMARK INTER + INTRA:         -10.268
REMARK INTER:                  -9.841
REMARK INTRA:                  -0.427
REMARK UNBOUND:                -0.682
REMARK  Name = 
REMARK  4 active torsions:
REMARK  status: ('A' for Active; 'I' for Inactive)
REMARK    1  A    between atoms: C_2  and  C_4
REMARK    2  A    between atoms: N_8  and  C_9
REMARK    3  A    between atoms: C_9  and  C_10
REMARK    4  A    between atoms: C_14  and  C_15
REMARK                            x       y       z     vdW  Elec       q    Type
REMARK                         _______ _______ _______ _____ _____    ______ ____
ROOT
ATOM      1  C   UNL     1      47.890   6.898  13.473  0.00  0.00    +0.000 A 
ATOM      2  C   UNL     1      46.832   6.033  13.722  0.00  0.00    +0.000 A 
ATOM      3  C   UNL     1      45.672   6.141  12.955  0.00  0.00    +0.000 A 
ATOM      4  C   UNL     1      45.589   7.095  11.948  0.00  0.00    +0.000 A 
ATOM      5  N   UNL     1      44.515   7.229  11.122  0.00  0.00    +0.000 N 
ATOM      6  N   UNL     1      46.604   7.955  11.715  0.00  0.00    +0.000 NA
ATOM      7  C   UNL     1      47.723   7.852  12.481  0.00  0.00    +0.000 A 
ATOM      8  H   UNL     1      44.598   7.990  10.461  0.00  0.00    +0.000 HD
ENDROOT
BRANCH   1  10
ATOM      9  N   UNL     1      50.246   7.437  13.656  0.00  0.00    +0.000 N 
ATOM     10  C   UNL     1      49.156   6.838  14.229  0.00  0.00    +0.000 C 
ATOM     11  O   UNL     1      49.225   6.312  15.330  0.00  0.00    +0.000 OA
ATOM     12  H   UNL     1      51.089   7.471  14.213  0.00  0.00    +0.000 HD
ATOM     13  H   UNL     1      50.170   8.079  12.880  0.00  0.00    +0.000 HD
ENDBRANCH   1  10
BRANCH   5  14
ATOM     14  C   UNL     1      43.343   6.389  11.093  0.00  0.00    +0.000 C 
BRANCH  14  15
ATOM     15  C   UNL     1      43.700   4.931  10.922  0.00  0.00    +0.000 A 
ATOM     16  C   UNL     1      43.075   3.958  11.713  0.00  0.00    +0.000 A 
ATOM     17  C   UNL     1      43.339   2.608  11.510  0.00  0.00    +0.000 A 
ATOM     18  C   UNL     1      44.208   2.212  10.493  0.00  0.00    +0.000 A 
ATOM     19  C   UNL     1      44.829   3.152   9.650  0.00  0.00    +0.000 A 
ATOM     20  C   UNL     1      44.590   4.516   9.912  0.00  0.00    +0.000 A 
BRANCH  19  21
ATOM     21  C   UNL     1      45.632   2.723   8.484  0.00  0.00    +0.000 A 
ATOM     22  C   UNL     1      45.946   3.610   7.447  0.00  0.00    +0.000 A 
ATOM     23  C   UNL     1      46.744   3.184   6.391  0.00  0.00    +0.000 A 
ATOM     24  C   UNL     1      47.216   1.881   6.386  0.00  0.00    +0.000 A 
ATOM     25  C   UNL     1      46.868   1.059   7.445  0.00  0.00    +0.000 A 
ATOM     26  N   UNL     1      46.100   1.449   8.491  0.00  0.00    +0.000 NA
ENDBRANCH  19  21
ENDBRANCH  14  15
ENDBRANCH   5  14
TORSDOF 4
ENDMDL
MODEL 4
REMARK VINA RESULT:    -7.254      3.441      8.426
REMARK INTER + INTRA:          -9.632
REMARK INTER:                  -9.138
REMARK INTRA:                  -0.494
REMARK UNBOUND:                -0.682
REMARK  Name = 
REMARK  4 active torsions:
REMARK  status: ('A' for Active; 'I' for Inactive)
REMARK    1  A    between atoms: C_2  and  C_4
REMARK    2  A    between atoms: N_8  and  C_9
REMARK    3  A    between atoms: C_9  and  C_10
REMARK    4  A    between atoms: C_14  and  C_15
REMARK                            x       y       z     vdW  Elec       q    Type
REMARK                         _______ _______ _______ _____ _____    ______ ____
ROOT
ATOM      1  C   UNL     1      49.095   4.358  17.815  0.00  0.00    +0.000 A 
ATOM      2  C   UNL     1      49.019   5.499  17.027  0.00  0.00    +0.000 A 
ATOM      3  C   UNL     1      48.121   5.529  15.961  0.00  0.00    +0.000 A 
ATOM      4  C   UNL     1      47.308   4.431  15.704  0.00  0.00    +0.000 A 
ATOM      5  N   UNL     1      46.370   4.401  14.716  0.00  0.00    +0.000 N 
ATOM      6  N   UNL     1      47.393   3.308  16.450  0.00  0.00    +0.000 NA
ATOM      7  C   UNL     1      48.284   3.285  17.476  0.00  0.00    +0.000 A 
ATOM      8  H   UNL     1      45.883   3.518  14.640  0.00  0.00    +0.000 HD
ENDROOT
BRANCH   1  10
ATOM      9  N   UNL     1      51.194   3.604  18.765  0.00  0.00    +0.000 N 
ATOM     10  C   UNL     1      50.006   4.252  18.971  0.00  0.00    +0.000 C 
ATOM     11  O   UNL     1      49.733   4.750  20.053  0.00  0.00    +0.000 OA
ATOM     12  H   UNL     1      51.853   3.609  19.532  0.00  0.00    +0.000 HD
ATOM     13  H   UNL     1      51.551   3.401  17.842  0.00  0.00    +0.000 HD
ENDBRANCH   1  10
BRANCH   5  14
ATOM     14  C   UNL     1      46.012   5.488  13.838  0.00  0.00    +0.000 C 
BRANCH  14  15
ATOM     15  C   UNL     1      45.084   5.037  12.735  0.00  0.00    +0.000 A 
ATOM     16  C   UNL     1      43.729   5.395  12.769  0.00  0.00    +0.000 A 
ATOM     17  C   UNL     1      42.882   5.051  11.720  0.00  0.00    +0.000 A 
ATOM     18  C   UNL     1      43.387   4.372  10.611  0.00  0.00    +0.000 A 
ATOM     19  C   UNL     1      44.748   4.027  10.516  0.00  0.00    +0.000 A 
ATOM     20  C   UNL     1      45.573   4.335  11.617  0.00  0.00    +0.000 A 
BRANCH  19  21
ATOM     21  C   UNL     1      45.306   3.441   9.279  0.00  0.00    +0.000 A 
ATOM     22  C   UNL     1      45.705   4.245   8.204  0.00  0.00    +0.000 A 
ATOM     23  C   UNL     1      46.270   3.660   7.076  0.00  0.00    +0.000 A 
ATOM     24  C   UNL     1      46.428   2.284   7.037  0.00  0.00    +0.000 A 
ATOM     25  C   UNL     1      46.014   1.551   8.136  0.00  0.00    +0.000 A 
ATOM     26  N   UNL     1      45.469   2.093   9.252  0.00  0.00    +0.000 NA
ENDBRANCH  19  21
ENDBRANCH  14  15
ENDBRANCH   5  14
TORSDOF 4
ENDMDL
MODEL 5
REMARK VINA RESULT:    -6.655      3.405      4.858
REMARK INTER + INTRA:          -8.894
REMARK INTER:                  -8.168
REMARK INTRA:                  -0.726
REMARK UNBOUND:                -0.682
REMARK  Name = 
REMARK  4 active torsions:
REMARK  status: ('A' for Active; 'I' for Inactive)
REMARK    1  A    between atoms: C_2  and  C_4
REMARK    2  A    between atoms: N_8  and  C_9
REMARK    3  A    between atoms: C_9  and  C_10
REMARK    4  A    between atoms: C_14  and  C_15
REMARK                            x       y       z     vdW  Elec       q    Type
REMARK                         _______ _______ _______ _____ _____    ______ ____
ROOT
ATOM      1  C   UNL     1      44.209   4.172  11.453  0.00  0.00    +0.000 A 
ATOM      2  C   UNL     1      44.949   5.045  10.667  0.00  0.00    +0.000 A 
ATOM      3  C   UNL     1      45.291   6.297  11.179  0.00  0.00    +0.000 A 
ATOM      4  C   UNL     1      44.903   6.652  12.465  0.00  0.00    +0.000 A 
ATOM      5  N   UNL     1      45.242   7.832  13.057  0.00  0.00    +0.000 N 
ATOM      6  N   UNL     1      44.163   5.818  13.228  0.00  0.00    +0.000 NA
ATOM      7  C   UNL     1      43.821   4.609  12.711  0.00  0.00    +0.000 A 
ATOM      8  H   UNL     1      44.856   7.950  13.984  0.00  0.00    +0.000 HD
ENDROOT
BRANCH   1  10
ATOM      9  N   UNL     1      44.499   2.321   9.915  0.00  0.00    +0.000 N 
ATOM     10  C   UNL     1      43.821   2.825  10.991  0.00  0.00    +0.000 C 
ATOM     11  O   UNL     1      42.959   2.173  11.562  0.00  0.00    +0.000 OA
ATOM     12  H   UNL     1      44.293   1.366   9.655  0.00  0.00    +0.000 HD
ATOM     13  H   UNL     1      45.364   2.722   9.580  0.00  0.00    +0.000 HD
ENDBRANCH   1  10
BRANCH   5  14
ATOM     14  C   UNL     1      46.094   8.856  12.505  0.00  0.00    +0.000 C 
BRANCH  14  15
ATOM     15  C   UNL     1      47.557   8.532  12.696  0.00  0.00    +0.000 A 
ATOM     16  C   UNL     1      48.518   9.103  11.850  0.00  0.00    +0.000 A 
ATOM     17  C   UNL     1      49.873   8.873  12.064  0.00  0.00    +0.000 A 
ATOM     18  C   UNL     1      50.285   8.095  13.146  0.00  0.00    +0.000 A 
ATOM     19  C   UNL     1      49.358   7.534  14.044  0.00  0.00    +0.000 A 
ATOM     20  C   UNL     1      47.989   7.734  13.772  0.00  0.00    +0.000 A 
BRANCH  19  21
ATOM     21  C   UNL     1      49.804   6.835  15.269  0.00  0.00    +0.000 A 
ATOM     22  C   UNL     1      51.062   7.079  15.832  0.00  0.00    +0.000 A 
ATOM     23  C   UNL     1      51.428   6.439  17.012  0.00  0.00    +0.000 A 
ATOM     24  C   UNL     1      50.532   5.568  17.611  0.00  0.00    +0.000 A 
ATOM     25  C   UNL     1      49.303   5.377  17.001  0.00  0.00    +0.000 A 
ATOM     26  N   UNL     1      48.917   5.992  15.857  0.00  0.00    +0.000 NA
ENDBRANCH  19  21
ENDBRANCH  14  15
ENDBRANCH   5  14
TORSDOF 4
ENDMDL
MODEL 6
REMARK VINA RESULT:    -6.604      3.158      4.881
REMARK INTER + INTRA:          -8.830
REMARK INTER:                  -8.088
REMARK INTRA:                  -0.742
REMARK UNBOUND:                -0.682
REMARK  Name = 
REMARK  4 active torsions:
REMARK  status: ('A' for Active; 'I' for Inactive)
REMARK    1  A    between atoms: C_2  and  C_4
REMARK    2  A    between atoms: N_8  and  C_9
REMARK    3  A    between atoms: C_9  and  C_10
REMARK    4  A    between atoms: C_14  and  C_15
REMARK                            x       y       z     vdW  Elec       q    Type
REMARK                         _______ _______ _______ _____ _____    ______ ____
ROOT
ATOM      1  C   UNL     1      44.656   5.315  10.921  0.00  0.00    +0.000 A 
ATOM      2  C   UNL     1      45.958   5.742  10.697  0.00  0.00    +0.000 A 
ATOM      3  C   UNL     1      46.503   6.723  11.526  0.00  0.00    +0.000 A 
ATOM      4  C   UNL     1      45.750   7.250  12.568  0.00  0.00    +0.000 A 
ATOM      5  N   UNL     1      46.227   8.170  13.453  0.00  0.00    +0.000 N 
ATOM      6  N   UNL     1      44.475   6.858  12.779  0.00  0.00    +0.000 NA
ATOM      7  C   UNL     1      43.950   5.914  11.954  0.00  0.00    +0.000 A 
ATOM      8  H   UNL     1      45.544   8.475  14.134  0.00  0.00    +0.000 HD
ENDROOT
BRANCH   1  10
ATOM      9  N   UNL     1      44.128   4.394   8.742  0.00  0.00    +0.000 N 
ATOM     10  C   UNL     1      44.012   4.271  10.101  0.00  0.00    +0.000 C 
ATOM     11  O   UNL     1      43.432   3.321  10.606  0.00  0.00    +0.000 OA
ATOM     12  H   UNL     1      43.762   3.633   8.185  0.00  0.00    +0.000 HD
ATOM     13  H   UNL     1      44.793   5.017   8.306  0.00  0.00    +0.000 HD
ENDBRANCH   1  10
BRANCH   5  14
ATOM     14  C   UNL     1      47.571   8.689  13.513  0.00  0.00    +0.000 C 
BRANCH  14  15
ATOM     15  C   UNL     1      48.266   8.305  14.798  0.00  0.00    +0.000 A 
ATOM     16  C   UNL     1      48.588   9.290  15.741  0.00  0.00    +0.000 A 
ATOM     17  C   UNL     1      49.158   8.939  16.961  0.00  0.00    +0.000 A 
ATOM     18  C   UNL     1      49.383   7.596  17.264  0.00  0.00    +0.000 A 
ATOM     19  C   UNL     1      49.039   6.571  16.363  0.00  0.00    +0.000 A 
ATOM     20  C   UNL     1      48.517   6.956  15.112  0.00  0.00    +0.000 A 
BRANCH  19  21
ATOM     21  C   UNL     1      49.143   5.146  16.747  0.00  0.00    +0.000 A 
ATOM     22  C   UNL     1      48.032   4.296  16.707  0.00  0.00    +0.000 A 
ATOM     23  C   UNL     1      48.178   2.951  17.029  0.00  0.00    +0.000 A 
ATOM     24  C   UNL     1      49.431   2.476  17.384  0.00  0.00    +0.000 A 
ATOM     25  C   UNL     1      50.486   3.372  17.399  0.00  0.00    +0.000 A 
ATOM     26  N   UNL     1      50.375   4.685  17.083  0.00  0.00    +0.000 NA
ENDBRANCH  19  21
ENDBRANCH  14  15
ENDBRANCH   5  14
TORSDOF 4
ENDMDL
MODEL 7
REMARK VINA RESULT:    -6.399      4.506      6.595
REMARK INTER + INTRA:          -8.577
REMARK INTER:                  -7.840
REMARK INTRA:                  -0.737
REMARK UNBOUND:                -0.682
REMARK  Name = 
REMARK  4 active torsions:
REMARK  status: ('A' for Active; 'I' for Inactive)
REMARK    1  A    between atoms: C_2  and  C_4
REMARK    2  A    between atoms: N_8  and  C_9
REMARK    3  A    between atoms: C_9  and  C_10
REMARK    4  A    between atoms: C_14  and  C_15
REMARK                            x       y       z     vdW  Elec       q    Type
REMARK                         _______ _______ _______ _____ _____    ______ ____
ROOT
ATOM      1  C   UNL     1      44.263   4.188  11.457  0.00  0.00    +0.000 A 
ATOM      2  C   UNL     1      45.029   5.043  10.675  0.00  0.00    +0.000 A 
ATOM      3  C   UNL     1      45.372   6.298  11.178  0.00  0.00    +0.000 A 
ATOM      4  C   UNL     1      44.961   6.674  12.451  0.00  0.00    +0.000 A 
ATOM      5  N   UNL     1      45.299   7.858  13.034  0.00  0.00    +0.000 N 
ATOM      6  N   UNL     1      44.197   5.858  13.209  0.00  0.00    +0.000 NA
ATOM      7  C   UNL     1      43.854   4.645  12.701  0.00  0.00    +0.000 A 
ATOM      8  H   UNL     1      44.895   7.993  13.952  0.00  0.00    +0.000 HD
ENDROOT
BRANCH   1  10
ATOM      9  N   UNL     1      44.573   2.310   9.955  0.00  0.00    +0.000 N 
ATOM     10  C   UNL     1      43.871   2.839  11.005  0.00  0.00    +0.000 C 
ATOM     11  O   UNL     1      42.987   2.205  11.562  0.00  0.00    +0.000 OA
ATOM     12  H   UNL     1      44.362   1.354   9.704  0.00  0.00    +0.000 HD
ATOM     13  H   UNL     1      45.452   2.696   9.638  0.00  0.00    +0.000 HD
ENDBRANCH   1  10
BRANCH   5  14
ATOM     14  C   UNL     1      46.173   8.866  12.487  0.00  0.00    +0.000 C 
BRANCH  14  15
ATOM     15  C   UNL     1      47.615   8.628  12.870  0.00  0.00    +0.000 A 
ATOM     16  C   UNL     1      47.929   8.118  14.137  0.00  0.00    +0.000 A 
ATOM     17  C   UNL     1      49.246   7.822  14.472  0.00  0.00    +0.000 A 
ATOM     18  C   UNL     1      50.262   8.004  13.532  0.00  0.00    +0.000 A 
ATOM     19  C   UNL     1      49.988   8.476  12.235  0.00  0.00    +0.000 A 
ATOM     20  C   UNL     1      48.654   8.823  11.940  0.00  0.00    +0.000 A 
BRANCH  19  21
ATOM     21  C   UNL     1      51.042   8.527  11.200  0.00  0.00    +0.000 A 
ATOM     22  C   UNL     1      51.521   7.363  10.586  0.00  0.00    +0.000 A 
ATOM     23  C   UNL     1      52.479   7.454   9.582  0.00  0.00    +0.000 A 
ATOM     24  C   UNL     1      52.943   8.704   9.205  0.00  0.00    +0.000 A 
ATOM     25  C   UNL     1      52.423   9.813   9.851  0.00  0.00    +0.000 A 
ATOM     26  N   UNL     1      51.484   9.755  10.827  0.00  0.00    +0.000 NA
ENDBRANCH  19  21
ENDBRANCH  14  15
ENDBRANCH   5  14
TORSDOF 4
ENDMDL
MODEL 8
REMARK VINA RESULT:    -6.379      4.152      8.895
REMARK INTER + INTRA:          -8.553
REMARK INTER:                  -7.861
REMARK INTRA:                  -0.693
REMARK UNBOUND:                -0.682
REMARK  Name = 
REMARK  4 active torsions:
REMARK  status: ('A' for Active; 'I' for Inactive)
REMARK    1  A    between atoms: C_2  and  C_4
REMARK    2  A    between atoms: N_8  and  C_9
REMARK    3  A    between atoms: C_9  and  C_10
REMARK    4  A    between atoms: C_14  and  C_15
REMARK                            x       y       z     vdW  Elec       q    Type
REMARK                         _______ _______ _______ _____ _____    ______ ____
ROOT
ATOM      1  C   UNL     1      48.293   5.736  18.671  0.00  0.00    +0.000 A 
ATOM      2  C   UNL     1      48.111   4.987  17.517  0.00  0.00    +0.000 A 
ATOM      3  C   UNL     1      48.273   5.602  16.276  0.00  0.00    +0.000 A 
ATOM      4  C   UNL     1      48.626   6.944  16.204  0.00  0.00    +0.000 A 
ATOM      5  N   UNL     1      48.855   7.603  15.034  0.00  0.00    +0.000 N 
ATOM      6  N   UNL     1      48.783   7.686  17.322  0.00  0.00    +0.000 NA
ATOM      7  C   UNL     1      48.605   7.079  18.525  0.00  0.00    +0.000 A 
ATOM      8  H   UNL     1      49.073   8.584  15.153  0.00  0.00    +0.000 HD
ENDROOT
BRANCH   1  10
ATOM      9  N   UNL     1      48.638   3.888  20.202  0.00  0.00    +0.000 N 
ATOM     10  C   UNL     1      48.157   5.157  20.022  0.00  0.00    +0.000 C 
ATOM     11  O   UNL     1      47.670   5.789  20.948  0.00  0.00    +0.000 OA
ATOM     12  H   UNL     1      48.623   3.527  21.147  0.00  0.00    +0.000 HD
ATOM     13  H   UNL     1      49.254   3.439  19.538  0.00  0.00    +0.000 HD
ENDBRANCH   1  10
BRANCH   5  14
ATOM     14  C   UNL     1      48.846   7.031  13.710  0.00  0.00    +0.000 C 
BRANCH  14  15
ATOM     15  C   UNL     1      47.479   7.111  13.073  0.00  0.00    +0.000 A 
ATOM     16  C   UNL     1      46.735   8.295  13.154  0.00  0.00    +0.000 A 
ATOM     17  C   UNL     1      45.509   8.405  12.506  0.00  0.00    +0.000 A 
ATOM     18  C   UNL     1      45.027   7.342  11.742  0.00  0.00    +0.000 A 
ATOM     19  C   UNL     1      45.758   6.147  11.600  0.00  0.00    +0.000 A 
ATOM     20  C   UNL     1      46.969   6.040  12.314  0.00  0.00    +0.000 A 
BRANCH  19  21
ATOM     21  C   UNL     1      45.315   5.083  10.674  0.00  0.00    +0.000 A 
ATOM     22  C   UNL     1      45.641   5.116   9.313  0.00  0.00    +0.000 A 
ATOM     23  C   UNL     1      45.248   4.072   8.482  0.00  0.00    +0.000 A 
ATOM     24  C   UNL     1      44.536   3.013   9.022  0.00  0.00    +0.000 A 
ATOM     25  C   UNL     1      44.251   3.044  10.377  0.00  0.00    +0.000 A 
ATOM     26  N   UNL     1      44.628   4.043  11.212  0.00  0.00    +0.000 NA
ENDBRANCH  19  21
ENDBRANCH  14  15
ENDBRANCH   5  14
TORSDOF 4
ENDMDL
MODEL 9
REMARK VINA RESULT:    -6.042      4.281      8.743
REMARK INTER + INTRA:          -8.137
REMARK INTER:                  -7.418
REMARK INTRA:                  -0.720
REMARK UNBOUND:                -0.682
REMARK  Name = 
REMARK  4 active torsions:
REMARK  status: ('A' for Active; 'I' for Inactive)
REMARK    1  A    between atoms: C_2  and  C_4
REMARK    2  A    between atoms: N_8  and  C_9
REMARK    3  A    between atoms: C_9  and  C_10
REMARK    4  A    between atoms: C_14  and  C_15
REMARK                            x       y       z     vdW  Elec       q    Type
REMARK                         _______ _______ _______ _____ _____    ______ ____
ROOT
ATOM      1  C   UNL     1      49.100   7.453  17.597  0.00  0.00    +0.000 A 
ATOM      2  C   UNL     1      48.657   8.521  16.828  0.00  0.00    +0.000 A 
ATOM      3  C   UNL     1      48.759   8.446  15.439  0.00  0.00    +0.000 A 
ATOM      4  C   UNL     1      49.288   7.310  14.840  0.00  0.00    +0.000 A 
ATOM      5  N   UNL     1      49.373   7.137  13.491  0.00  0.00    +0.000 N 
ATOM      6  N   UNL     1      49.743   6.275  15.581  0.00  0.00    +0.000 NA
ATOM      7  C   UNL     1      49.653   6.367  16.934  0.00  0.00    +0.000 A 
ATOM      8  H   UNL     1      49.809   6.267  13.216  0.00  0.00    +0.000 HD
ENDROOT
BRANCH   1  10
ATOM      9  N   UNL     1      48.309   8.466  19.652  0.00  0.00    +0.000 N 
ATOM     10  C   UNL     1      49.012   7.446  19.070  0.00  0.00    +0.000 C 
ATOM     11  O   UNL     1      49.510   6.554  19.741  0.00  0.00    +0.000 OA
ATOM     12  H   UNL     1      48.175   8.412  20.653  0.00  0.00    +0.000 HD
ATOM     13  H   UNL     1      47.690   9.070  19.128  0.00  0.00    +0.000 HD
ENDBRANCH   1  10
BRANCH   5  14
ATOM     14  C   UNL     1      48.881   8.038  12.478  0.00  0.00    +0.000 C 
BRANCH  14  15
ATOM     15  C   UNL     1      47.438   7.760  12.131  0.00  0.00    +0.000 A 
ATOM     16  C   UNL     1      46.465   8.749  12.332  0.00  0.00    +0.000 A 
ATOM     17  C   UNL     1      45.147   8.532  11.945  0.00  0.00    +0.000 A 
ATOM     18  C   UNL     1      44.792   7.334  11.324  0.00  0.00    +0.000 A 
ATOM     19  C   UNL     1      45.742   6.328  11.067  0.00  0.00    +0.000 A 
ATOM     20  C   UNL     1      47.058   6.549  11.520  0.00  0.00    +0.000 A 
BRANCH  19  21
ATOM     21  C   UNL     1      45.392   5.127  10.279  0.00  0.00    +0.000 A 
ATOM     22  C   UNL     1      44.700   4.053  10.852  0.00  0.00    +0.000 A 
ATOM     23  C   UNL     1      44.346   2.961  10.067  0.00  0.00    +0.000 A 
ATOM     24  C   UNL     1      44.687   2.957   8.724  0.00  0.00    +0.000 A 
ATOM     25  C   UNL     1      45.369   4.054   8.223  0.00  0.00    +0.000 A 
ATOM     26  N   UNL     1      45.719   5.134   8.962  0.00  0.00    +0.000 NA
ENDBRANCH  19  21
ENDBRANCH  14  15
ENDBRANCH   5  14
TORSDOF 4
ENDMDL
