MODEL 1
REMARK VINA RESULT:    -6.005      0.000      0.000
REMARK INTER + INTRA:          -7.943
REMARK INTER:                  -7.585
REMARK INTRA:                  -0.358
REMARK UNBOUND:                -0.358
REMARK  Name = 
REMARK  5 active torsions:
REMARK  status: ('A' for Active; 'I' for Inactive)
REMARK    1  A    between atoms: N_1  and  C_2
REMARK    2  A    between atoms: C_2  and  C_3
REMARK    3  A    between atoms: C_7  and  C_8
REMARK    4  A    between atoms: C_9  and  C_10
REMARK    5  A    between atoms: C_13  and  C_14
REMARK                            x       y       z     vdW  Elec       q    Type
REMARK                         _______ _______ _______ _____ _____    ______ ____
ROOT
ATOM      1  C   UNL     1      46.373   5.186  13.850  0.00  0.00    +0.000 C 
ATOM      2  C   UNL     1      47.165   4.293  14.468  0.00  0.00    +0.000 C 
ENDROOT
BRANCH   1   7
ATOM      3  C   UNL     1      44.727   3.788  10.893  0.00  0.00    +0.000 A 
ATOM      4  C   UNL     1      44.993   4.719   9.894  0.00  0.00    +0.000 A 
ATOM      5  C   UNL     1      45.754   5.840  10.207  0.00  0.00    +0.000 A 
ATOM      6  C   UNL     1      46.224   6.004  11.508  0.00  0.00    +0.000 A 
ATOM      7  C   UNL     1      45.919   5.035  12.458  0.00  0.00    +0.000 A 
ATOM      8  N   UNL     1      45.183   3.935  12.162  0.00  0.00    +0.000 NA
BRANCH   3   9
ATOM      9  C   UNL     1      43.891   2.562  10.597  0.00  0.00    +0.000 C 
BRANCH   9  10
ATOM     10  N   UNL     1      43.055   2.150  11.729  0.00  0.00    +0.000 NA
ATOM     11  H   UNL     1      42.185   1.766  11.365  0.00  0.00    +0.000 HD
ATOM     12  H   UNL     1      42.795   2.993  12.244  0.00  0.00    +0.000 HD
ENDBRANCH   9  10
ENDBRANCH   3   9
ENDBRANCH   1   7
BRANCH   2  13
ATOM     13  C   UNL     1      47.637   4.368  15.859  0.00  0.00    +0.000 A 
ATOM     14  C   UNL     1      47.534   3.299  16.757  0.00  0.00    +0.000 A 
ATOM     15  C   UNL     1      48.042   3.408  18.057  0.00  0.00    +0.000 A 
ATOM     16  C   UNL     1      48.683   4.580  18.472  0.00  0.00    +0.000 A 
ATOM     17  C   UNL     1      48.799   5.652  17.581  0.00  0.00    +0.000 A 
ATOM     18  C   UNL     1      48.282   5.539  16.285  0.00  0.00    +0.000 A 
BRANCH  16  19
ATOM     19  C   UNL     1      49.194   4.650  19.867  0.00  0.00    +0.000 C 
ATOM     20  N   UNL     1      48.473   4.014  20.840  0.00  0.00    +0.000 N 
ATOM     21  O   UNL     1      50.206   5.279  20.149  0.00  0.00    +0.000 OA
ATOM     22  H   UNL     1      47.535   3.670  20.696  0.00  0.00    +0.000 HD
ATOM     23  H   UNL     1      48.785   4.153  21.793  0.00  0.00    +0.000 HD
ENDBRANCH  16  19
ENDBRANCH   2  13
TORSDOF 5
ENDMDL
MODEL 2
REMARK VINA RESULT:    -5.702      1.591      2.278
REMARK INTER + INTRA:          -7.560
REMARK INTER:                  -7.210
REMARK INTRA:                  -0.350
REMARK UNBOUND:                -0.358
REMARK  Name = 
REMARK  5 active torsions:
REMARK  status: ('A' for Active; 'I' for Inactive)
REMARK    1  A    between atoms: N_1  and  C_2
REMARK    2  A    between atoms: C_2  and  C_3
REMARK    3  A    between atoms: C_7  and  C_8
REMARK    4  A    between atoms: C_9  and  C_10
REMARK    5  A    between atoms: C_13  and  C_14
REMARK                            x       y       z     vdW  Elec       q    Type
REMARK                         _______ _______ _______ _____ _____    ______ ____
ROOT
ATOM      1  C   UNL     1      46.356   5.207  13.660  0.00  0.00    +0.000 C 
ATOM      2  C   UNL     1      46.496   4.360  14.694  0.00  0.00    +0.000 C 
ENDROOT
BRANCH   1   7
ATOM      3  C   UNL     1      44.594   4.642  10.501  0.00  0.00    +0.000 A 
ATOM      4  C   UNL     1      43.258   4.866  10.821  0.00  0.00    +0.000 A 
ATOM      5  C   UNL     1      42.933   5.228  12.124  0.00  0.00    +0.000 A 
ATOM      6  C   UNL     1      43.947   5.353  13.071  0.00  0.00    +0.000 A 
ATOM      7  C   UNL     1      45.260   5.113  12.682  0.00  0.00    +0.000 A 
ATOM      8  N   UNL     1      45.590   4.766  11.413  0.00  0.00    +0.000 NA
BRANCH   3   9
ATOM      9  C   UNL     1      44.989   4.233   9.099  0.00  0.00    +0.000 C 
BRANCH   9  10
ATOM     10  N   UNL     1      45.896   5.187   8.456  0.00  0.00    +0.000 NA
ATOM     11  H   UNL     1      45.726   5.169   7.451  0.00  0.00    +0.000 HD
ATOM     12  H   UNL     1      46.849   4.843   8.584  0.00  0.00    +0.000 HD
ENDBRANCH   9  10
ENDBRANCH   3   9
ENDBRANCH   1   7
BRANCH   2  13
ATOM     13  C   UNL     1      47.551   4.409  15.719  0.00  0.00    +0.000 A 
ATOM     14  C   UNL     1      48.277   5.570  16.010  0.00  0.00    +0.000 A 
ATOM     15  C   UNL     1      49.238   5.575  17.028  0.00  0.00    +0.000 A 
ATOM     16  C   UNL     1      49.471   4.424  17.787  0.00  0.00    +0.000 A 
ATOM     17  C   UNL     1      48.747   3.260  17.511  0.00  0.00    +0.000 A 
ATOM     18  C   UNL     1      47.793   3.260  16.487  0.00  0.00    +0.000 A 
BRANCH  16  19
ATOM     19  C   UNL     1      50.513   4.477  18.849  0.00  0.00    +0.000 C 
ATOM     20  N   UNL     1      50.096   4.426  20.150  0.00  0.00    +0.000 N 
ATOM     21  O   UNL     1      51.701   4.595  18.576  0.00  0.00    +0.000 OA
ATOM     22  H   UNL     1      49.133   4.544  20.426  0.00  0.00    +0.000 HD
ATOM     23  H   UNL     1      50.811   4.559  20.855  0.00  0.00    +0.000 HD
ENDBRANCH  16  19
ENDBRANCH   2  13
TORSDOF 5
ENDMDL
MODEL 3
REMARK VINA RESULT:    -5.608      3.515      8.117
REMARK INTER + INTRA:          -7.441
REMARK INTER:                  -7.106
REMARK INTRA:                  -0.335
REMARK UNBOUND:                -0.358
REMARK  Name = 
REMARK  5 active torsions:
REMARK  status: ('A' for Active; 'I' for Inactive)
REMARK    1  A    between atoms: N_1  and  C_2
REMARK    2  A    between atoms: C_2  and  C_3
REMARK    3  A    between atoms: C_7  and  C_8
REMARK    4  A    between atoms: C_9  and  C_10
REMARK    5  A    between atoms: C_13  and  C_14
REMARK                            x       y       z     vdW  Elec       q    Type
REMARK                         _______ _______ _______ _____ _____    ______ ____
ROOT
ATOM      1  C   UNL     1      47.412   4.361  16.038  0.00  0.00    +0.000 C 
ATOM      2  C   UNL     1      47.610   4.865  14.808  0.00  0.00    +0.000 C 
ENDROOT
BRANCH   1   7
ATOM      3  C   UNL     1      50.461   3.531  17.889  0.00  0.00    +0.000 A 
ATOM      4  C   UNL     1      50.423   4.383  18.989  0.00  0.00    +0.000 A 
ATOM      5  C   UNL     1      49.346   5.251  19.128  0.00  0.00    +0.000 A 
ATOM      6  C   UNL     1      48.339   5.249  18.165  0.00  0.00    +0.000 A 
ATOM      7  C   UNL     1      48.441   4.373  17.091  0.00  0.00    +0.000 A 
ATOM      8  N   UNL     1      49.484   3.517  16.949  0.00  0.00    +0.000 NA
BRANCH   3   9
ATOM      9  C   UNL     1      51.622   2.581  17.693  0.00  0.00    +0.000 C 
BRANCH   9  10
ATOM     10  N   UNL     1      51.214   1.174  17.667  0.00  0.00    +0.000 NA
ATOM     11  H   UNL     1      51.023   0.875  18.621  0.00  0.00    +0.000 HD
ATOM     12  H   UNL     1      52.018   0.625  17.358  0.00  0.00    +0.000 HD
ENDBRANCH   9  10
ENDBRANCH   3   9
ENDBRANCH   1   7
BRANCH   2  13
ATOM     13  C   UNL     1      46.622   4.906  13.718  0.00  0.00    +0.000 A 
ATOM     14  C   UNL     1      46.218   6.097  13.102  0.00  0.00    +0.000 A 
ATOM     15  C   UNL     1      45.310   6.076  12.037  0.00  0.00    +0.000 A 
ATOM     16  C   UNL     1      44.809   4.861  11.556  0.00  0.00    +0.000 A 
ATOM     17  C   UNL     1      45.211   3.666  12.159  0.00  0.00    +0.000 A 
ATOM     18  C   UNL     1      46.114   3.694  13.228  0.00  0.00    +0.000 A 
BRANCH  16  19
ATOM     19  C   UNL     1      43.836   4.895  10.431  0.00  0.00    +0.000 C 
ATOM     20  N   UNL     1      44.290   4.547   9.188  0.00  0.00    +0.000 N 
ATOM     21  O   UNL     1      42.677   5.251  10.597  0.00  0.00    +0.000 OA
ATOM     22  H   UNL     1      45.270   4.457   8.964  0.00  0.00    +0.000 HD
ATOM     23  H   UNL     1      43.638   4.668   8.423  0.00  0.00    +0.000 HD
ENDBRANCH  16  19
ENDBRANCH   2  13
TORSDOF 5
ENDMDL
MODEL 4
REMARK VINA RESULT:    -5.276      1.680      2.138
REMARK INTER + INTRA:          -7.022
REMARK INTER:                  -6.653
REMARK INTRA:                  -0.369
REMARK UNBOUND:                -0.358
REMARK  Name = 
REMARK  5 active torsions:
REMARK  status: ('A' for Active; 'I' for Inactive)
REMARK    1  A    between atoms: N_1  and  C_2
REMARK    2  A    between atoms: C_2  and  C_3
REMARK    3  A    between atoms: C_7  and  C_8
REMARK    4  A    between atoms: C_9  and  C_10
REMARK    5  A    between atoms: C_13  and  C_14
REMARK                            x       y       z     vdW  Elec       q    Type
REMARK                         _______ _______ _______ _____ _____    ______ ____
ROOT
ATOM      1  C   UNL     1      46.458   4.782  13.999  0.00  0.00    +0.000 C 
ATOM      2  C   UNL     1      46.699   3.954  15.029  0.00  0.00    +0.000 C 
ENDROOT
BRANCH   1   7
ATOM      3  C   UNL     1      43.613   5.187  11.729  0.00  0.00    +0.000 A 
ATOM      4  C   UNL     1      43.646   4.036  10.948  0.00  0.00    +0.000 A 
ATOM      5  C   UNL     1      44.635   3.089  11.190  0.00  0.00    +0.000 A 
ATOM      6  C   UNL     1      45.566   3.318  12.201  0.00  0.00    +0.000 A 
ATOM      7  C   UNL     1      45.476   4.491  12.941  0.00  0.00    +0.000 A 
ATOM      8  N   UNL     1      44.511   5.418  12.718  0.00  0.00    +0.000 NA
BRANCH   3   9
ATOM      9  C   UNL     1      42.562   6.248  11.488  0.00  0.00    +0.000 C 
BRANCH   9  10
ATOM     10  N   UNL     1      43.129   7.533  11.067  0.00  0.00    +0.000 NA
ATOM     11  H   UNL     1      43.335   8.083  11.899  0.00  0.00    +0.000 HD
ATOM     12  H   UNL     1      42.400   8.044  10.568  0.00  0.00    +0.000 HD
ENDBRANCH   9  10
ENDBRANCH   3   9
ENDBRANCH   1   7
BRANCH   2  13
ATOM     13  C   UNL     1      47.646   4.191  16.130  0.00  0.00    +0.000 A 
ATOM     14  C   UNL     1      47.999   3.203  17.057  0.00  0.00    +0.000 A 
ATOM     15  C   UNL     1      48.942   3.468  18.057  0.00  0.00    +0.000 A 
ATOM     16  C   UNL     1      49.565   4.718  18.132  0.00  0.00    +0.000 A 
ATOM     17  C   UNL     1      49.226   5.711  17.207  0.00  0.00    +0.000 A 
ATOM     18  C   UNL     1      48.277   5.442  16.213  0.00  0.00    +0.000 A 
BRANCH  16  19
ATOM     19  C   UNL     1      50.549   4.953  19.222  0.00  0.00    +0.000 C 
ATOM     20  N   UNL     1      50.285   4.404  20.446  0.00  0.00    +0.000 N 
ATOM     21  O   UNL     1      51.548   5.640  19.047  0.00  0.00    +0.000 OA
ATOM     22  H   UNL     1      49.386   4.018  20.695  0.00  0.00    +0.000 HD
ATOM     23  H   UNL     1      50.918   4.654  21.196  0.00  0.00    +0.000 HD
ENDBRANCH  16  19
ENDBRANCH   2  13
TORSDOF 5
ENDMDL
MODEL 5
REMARK VINA RESULT:    -5.248      4.043      8.269
REMARK INTER + INTRA:          -6.987
REMARK INTER:                  -6.625
REMARK INTRA:                  -0.362
REMARK UNBOUND:                -0.358
REMARK  Name = 
REMARK  5 active torsions:
REMARK  status: ('A' for Active; 'I' for Inactive)
REMARK    1  A    between atoms: N_1  and  C_2
REMARK    2  A    between atoms: C_2  and  C_3
REMARK    3  A    between atoms: C_7  and  C_8
REMARK    4  A    between atoms: C_9  and  C_10
REMARK    5  A    between atoms: C_13  and  C_14
REMARK                            x       y       z     vdW  Elec       q    Type
REMARK                         _______ _______ _______ _____ _____    ______ ____
ROOT
ATOM      1  C   UNL     1      48.080   5.846  15.304  0.00  0.00    +0.000 C 
ATOM      2  C   UNL     1      47.880   6.236  14.033  0.00  0.00    +0.000 C 
ENDROOT
BRANCH   1   7
ATOM      3  C   UNL     1      51.330   6.898  16.621  0.00  0.00    +0.000 A 
ATOM      4  C   UNL     1      51.006   7.622  17.764  0.00  0.00    +0.000 A 
ATOM      5  C   UNL     1      49.668   7.755  18.117  0.00  0.00    +0.000 A 
ATOM      6  C   UNL     1      48.690   7.166  17.318  0.00  0.00    +0.000 A 
ATOM      7  C   UNL     1      49.084   6.458  16.189  0.00  0.00    +0.000 A 
ATOM      8  N   UNL     1      50.387   6.316  15.839  0.00  0.00    +0.000 NA
BRANCH   3   9
ATOM      9  C   UNL     1      52.774   6.741  16.195  0.00  0.00    +0.000 C 
BRANCH   9  10
ATOM     10  N   UNL     1      53.029   7.240  14.840  0.00  0.00    +0.000 NA
ATOM     11  H   UNL     1      52.553   6.631  14.177  0.00  0.00    +0.000 HD
ATOM     12  H   UNL     1      54.027   7.130  14.653  0.00  0.00    +0.000 HD
ENDBRANCH   9  10
ENDBRANCH   3   9
ENDBRANCH   1   7
BRANCH   2  13
ATOM     13  C   UNL     1      46.882   5.685  13.103  0.00  0.00    +0.000 A 
ATOM     14  C   UNL     1      46.540   6.309  11.897  0.00  0.00    +0.000 A 
ATOM     15  C   UNL     1      45.618   5.718  11.025  0.00  0.00    +0.000 A 
ATOM     16  C   UNL     1      45.041   4.482  11.335  0.00  0.00    +0.000 A 
ATOM     17  C   UNL     1      45.380   3.846  12.533  0.00  0.00    +0.000 A 
ATOM     18  C   UNL     1      46.297   4.446  13.404  0.00  0.00    +0.000 A 
BRANCH  16  19
ATOM     19  C   UNL     1      44.056   3.904  10.381  0.00  0.00    +0.000 C 
ATOM     20  N   UNL     1      44.071   4.367   9.094  0.00  0.00    +0.000 N 
ATOM     21  O   UNL     1      43.237   3.065  10.735  0.00  0.00    +0.000 OA
ATOM     22  H   UNL     1      44.572   5.196   8.812  0.00  0.00    +0.000 HD
ATOM     23  H   UNL     1      43.333   4.030   8.488  0.00  0.00    +0.000 HD
ENDBRANCH  16  19
ENDBRANCH   2  13
TORSDOF 5
ENDMDL
MODEL 6
REMARK VINA RESULT:    -5.145      5.346      7.604
REMARK INTER + INTRA:          -6.856
REMARK INTER:                  -6.507
REMARK INTRA:                  -0.349
REMARK UNBOUND:                -0.358
REMARK  Name = 
REMARK  5 active torsions:
REMARK  status: ('A' for Active; 'I' for Inactive)
REMARK    1  A    between atoms: N_1  and  C_2
REMARK    2  A    between atoms: C_2  and  C_3
REMARK    3  A    between atoms: C_7  and  C_8
REMARK    4  A    between atoms: C_9  and  C_10
REMARK    5  A    between atoms: C_13  and  C_14
REMARK                            x       y       z     vdW  Elec       q    Type
REMARK                         _______ _______ _______ _____ _____    ______ ____
ROOT
ATOM      1  C   UNL     1      49.072   7.770  11.421  0.00  0.00    +0.000 C 
ATOM      2  C   UNL     1      48.661   7.009  12.449  0.00  0.00    +0.000 C 
ENDROOT
BRANCH   1   7
ATOM      3  C   UNL     1      52.647   8.338  10.875  0.00  0.00    +0.000 A 
ATOM      4  C   UNL     1      52.834   9.665  11.252  0.00  0.00    +0.000 A 
ATOM      5  C   UNL     1      51.742  10.390  11.714  0.00  0.00    +0.000 A 
ATOM      6  C   UNL     1      50.494   9.775  11.784  0.00  0.00    +0.000 A 
ATOM      7  C   UNL     1      50.378   8.447  11.389  0.00  0.00    +0.000 A 
ATOM      8  N   UNL     1      51.438   7.728  10.943  0.00  0.00    +0.000 NA
BRANCH   3   9
ATOM      9  C   UNL     1      53.807   7.518  10.353  0.00  0.00    +0.000 C 
BRANCH   9  10
ATOM     10  N   UNL     1      53.647   6.081  10.591  0.00  0.00    +0.000 NA
ATOM     11  H   UNL     1      53.288   5.948  11.535  0.00  0.00    +0.000 HD
ATOM     12  H   UNL     1      54.578   5.661  10.584  0.00  0.00    +0.000 HD
ENDBRANCH   9  10
ENDBRANCH   3   9
ENDBRANCH   1   7
BRANCH   2  13
ATOM     13  C   UNL     1      47.382   6.287  12.538  0.00  0.00    +0.000 A 
ATOM     14  C   UNL     1      46.411   6.332  11.530  0.00  0.00    +0.000 A 
ATOM     15  C   UNL     1      45.230   5.588  11.643  0.00  0.00    +0.000 A 
ATOM     16  C   UNL     1      45.012   4.769  12.756  0.00  0.00    +0.000 A 
ATOM     17  C   UNL     1      45.977   4.711  13.766  0.00  0.00    +0.000 A 
ATOM     18  C   UNL     1      47.153   5.463  13.650  0.00  0.00    +0.000 A 
BRANCH  16  19
ATOM     19  C   UNL     1      43.735   4.010  12.835  0.00  0.00    +0.000 C 
ATOM     20  N   UNL     1      43.777   2.668  12.578  0.00  0.00    +0.000 N 
ATOM     21  O   UNL     1      42.674   4.566  13.089  0.00  0.00    +0.000 OA
ATOM     22  H   UNL     1      44.575   2.211  12.161  0.00  0.00    +0.000 HD
ATOM     23  H   UNL     1      42.885   2.190  12.544  0.00  0.00    +0.000 HD
ENDBRANCH  16  19
ENDBRANCH   2  13
TORSDOF 5
ENDMDL
MODEL 7
REMARK VINA RESULT:    -5.124      4.217      5.142
REMARK INTER + INTRA:          -6.830
REMARK INTER:                  -6.482
REMARK INTRA:                  -0.348
REMARK UNBOUND:                -0.358
REMARK  Name = 
REMARK  5 active torsions:
REMARK  status: ('A' for Active; 'I' for Inactive)
REMARK    1  A    between atoms: N_1  and  C_2
REMARK    2  A    between atoms: C_2  and  C_3
REMARK    3  A    between atoms: C_7  and  C_8
REMARK    4  A    between atoms: C_9  and  C_10
REMARK    5  A    between atoms: C_13  and  C_14
REMARK                            x       y       z     vdW  Elec       q    Type
REMARK                         _______ _______ _______ _____ _____    ______ ____
ROOT
ATOM      1  C   UNL     1      45.881   6.238  11.563  0.00  0.00    +0.000 C 
ATOM      2  C   UNL     1      47.134   6.265  12.048  0.00  0.00    +0.000 C 
ENDROOT
BRANCH   1   7
ATOM      3  C   UNL     1      45.181   3.785   8.936  0.00  0.00    +0.000 A 
ATOM      4  C   UNL     1      44.315   2.883   9.548  0.00  0.00    +0.000 A 
ATOM      5  C   UNL     1      43.941   3.102  10.869  0.00  0.00    +0.000 A 
ATOM      6  C   UNL     1      44.444   4.211  11.545  0.00  0.00    +0.000 A 
ATOM      7  C   UNL     1      45.306   5.071  10.874  0.00  0.00    +0.000 A 
ATOM      8  N   UNL     1      45.672   4.871   9.584  0.00  0.00    +0.000 NA
BRANCH   3   9
ATOM      9  C   UNL     1      45.623   3.575   7.505  0.00  0.00    +0.000 C 
BRANCH   9  10
ATOM     10  N   UNL     1      46.890   4.240   7.192  0.00  0.00    +0.000 NA
ATOM     11  H   UNL     1      46.981   5.060   7.790  0.00  0.00    +0.000 HD
ATOM     12  H   UNL     1      46.825   4.597   6.237  0.00  0.00    +0.000 HD
ENDBRANCH   9  10
ENDBRANCH   3   9
ENDBRANCH   1   7
BRANCH   2  13
ATOM     13  C   UNL     1      47.764   7.385  12.764  0.00  0.00    +0.000 A 
ATOM     14  C   UNL     1      47.811   8.687  12.250  0.00  0.00    +0.000 A 
ATOM     15  C   UNL     1      48.381   9.727  12.994  0.00  0.00    +0.000 A 
ATOM     16  C   UNL     1      48.891   9.486  14.274  0.00  0.00    +0.000 A 
ATOM     17  C   UNL     1      48.844   8.192  14.801  0.00  0.00    +0.000 A 
ATOM     18  C   UNL     1      48.279   7.154  14.049  0.00  0.00    +0.000 A 
BRANCH  16  19
ATOM     19  C   UNL     1      49.498  10.623  15.018  0.00  0.00    +0.000 C 
ATOM     20  N   UNL     1      48.652  11.516  15.615  0.00  0.00    +0.000 N 
ATOM     21  O   UNL     1      50.712  10.780  15.071  0.00  0.00    +0.000 OA
ATOM     22  H   UNL     1      47.661  11.551  15.422  0.00  0.00    +0.000 HD
ATOM     23  H   UNL     1      49.082  12.331  16.033  0.00  0.00    +0.000 HD
ENDBRANCH  16  19
ENDBRANCH   2  13
TORSDOF 5
ENDMDL
MODEL 8
REMARK VINA RESULT:    -5.120      3.354      8.325
REMARK INTER + INTRA:          -6.825
REMARK INTER:                  -6.477
REMARK INTRA:                  -0.348
REMARK UNBOUND:                -0.358
REMARK  Name = 
REMARK  5 active torsions:
REMARK  status: ('A' for Active; 'I' for Inactive)
REMARK    1  A    between atoms: N_1  and  C_2
REMARK    2  A    between atoms: C_2  and  C_3
REMARK    3  A    between atoms: C_7  and  C_8
REMARK    4  A    between atoms: C_9  and  C_10
REMARK    5  A    between atoms: C_13  and  C_14
REMARK                            x       y       z     vdW  Elec       q    Type
REMARK                         _______ _______ _______ _____ _____    ______ ____
ROOT
ATOM      1  C   UNL     1      47.359   4.320  15.994  0.00  0.00    +0.000 C 
ATOM      2  C   UNL     1      47.448   5.173  14.959  0.00  0.00    +0.000 C 
ENDROOT
BRANCH   1   7
ATOM      3  C   UNL     1      48.258   5.292  19.408  0.00  0.00    +0.000 A 
ATOM      4  C   UNL     1      49.522   4.738  19.588  0.00  0.00    +0.000 A 
ATOM      5  C   UNL     1      50.100   4.031  18.540  0.00  0.00    +0.000 A 
ATOM      6  C   UNL     1      49.401   3.892  17.343  0.00  0.00    +0.000 A 
ATOM      7  C   UNL     1      48.141   4.469  17.232  0.00  0.00    +0.000 A 
ATOM      8  N   UNL     1      47.570   5.166  18.245  0.00  0.00    +0.000 NA
BRANCH   3   9
ATOM      9  C   UNL     1      47.588   6.056  20.528  0.00  0.00    +0.000 C 
BRANCH   9  10
ATOM     10  N   UNL     1      48.221   7.350  20.799  0.00  0.00    +0.000 NA
ATOM     11  H   UNL     1      47.622   7.876  21.433  0.00  0.00    +0.000 HD
ATOM     12  H   UNL     1      48.234   7.877  19.924  0.00  0.00    +0.000 HD
ENDBRANCH   9  10
ENDBRANCH   3   9
ENDBRANCH   1   7
BRANCH   2  13
ATOM     13  C   UNL     1      46.682   5.098  13.704  0.00  0.00    +0.000 A 
ATOM     14  C   UNL     1      46.605   6.160  12.795  0.00  0.00    +0.000 A 
ATOM     15  C   UNL     1      45.901   6.019  11.593  0.00  0.00    +0.000 A 
ATOM     16  C   UNL     1      45.283   4.807  11.271  0.00  0.00    +0.000 A 
ATOM     17  C   UNL     1      45.359   3.737  12.168  0.00  0.00    +0.000 A 
ATOM     18  C   UNL     1      46.059   3.886  13.371  0.00  0.00    +0.000 A 
BRANCH  16  19
ATOM     19  C   UNL     1      44.536   4.714   9.988  0.00  0.00    +0.000 C 
ATOM     20  N   UNL     1      45.261   4.731   8.828  0.00  0.00    +0.000 N 
ATOM     21  O   UNL     1      43.313   4.657   9.960  0.00  0.00    +0.000 OA
ATOM     22  H   UNL     1      46.236   4.990   8.791  0.00  0.00    +0.000 HD
ATOM     23  H   UNL     1      44.729   4.763   7.967  0.00  0.00    +0.000 HD
ENDBRANCH  16  19
ENDBRANCH   2  13
TORSDOF 5
ENDMDL
MODEL 9
REMARK VINA RESULT:    -4.980      5.337      6.173
REMARK INTER + INTRA:          -6.648
REMARK INTER:                  -6.292
REMARK INTRA:                  -0.356
REMARK UNBOUND:                -0.358
REMARK  Name = 
REMARK  5 active torsions:
REMARK  status: ('A' for Active; 'I' for Inactive)
REMARK    1  A    between atoms: N_1  and  C_2
REMARK    2  A    between atoms: C_2  and  C_3
REMARK    3  A    between atoms: C_7  and  C_8
REMARK    4  A    between atoms: C_9  and  C_10
REMARK    5  A    between atoms: C_13  and  C_14
REMARK                            x       y       z     vdW  Elec       q    Type
REMARK                         _______ _______ _______ _____ _____    ______ ____
ROOT
ATOM      1  C   UNL     1      46.261   6.367  11.261  0.00  0.00    +0.000 C 
ATOM      2  C   UNL     1      47.142   6.735  12.207  0.00  0.00    +0.000 C 
ENDROOT
BRANCH   1   7
ATOM      3  C   UNL     1      44.314   3.335  10.610  0.00  0.00    +0.000 A 
ATOM      4  C   UNL     1      43.526   3.196  11.749  0.00  0.00    +0.000 A 
ATOM      5  C   UNL     1      43.635   4.144  12.759  0.00  0.00    +0.000 A 
ATOM      6  C   UNL     1      44.529   5.203  12.609  0.00  0.00    +0.000 A 
ATOM      7  C   UNL     1      45.286   5.280  11.446  0.00  0.00    +0.000 A 
ATOM      8  N   UNL     1      45.183   4.364  10.450  0.00  0.00    +0.000 NA
BRANCH   3   9
ATOM      9  C   UNL     1      44.236   2.317   9.493  0.00  0.00    +0.000 C 
BRANCH   9  10
ATOM     10  N   UNL     1      45.531   1.708   9.181  0.00  0.00    +0.000 NA
ATOM     11  H   UNL     1      46.032   2.323   8.541  0.00  0.00    +0.000 HD
ATOM     12  H   UNL     1      45.351   0.848   8.659  0.00  0.00    +0.000 HD
ENDBRANCH   9  10
ENDBRANCH   3   9
ENDBRANCH   1   7
BRANCH   2  13
ATOM     13  C   UNL     1      48.126   7.823  12.100  0.00  0.00    +0.000 A 
ATOM     14  C   UNL     1      47.833   9.151  12.433  0.00  0.00    +0.000 A 
ATOM     15  C   UNL     1      48.820  10.141  12.358  0.00  0.00    +0.000 A 
ATOM     16  C   UNL     1      50.123   9.814  11.969  0.00  0.00    +0.000 A 
ATOM     17  C   UNL     1      50.430   8.490  11.640  0.00  0.00    +0.000 A 
ATOM     18  C   UNL     1      49.437   7.506  11.711  0.00  0.00    +0.000 A 
BRANCH  16  19
ATOM     19  C   UNL     1      51.132  10.904  11.892  0.00  0.00    +0.000 C 
ATOM     20  N   UNL     1      51.497  11.516  13.060  0.00  0.00    +0.000 N 
ATOM     21  O   UNL     1      51.599  11.271  10.821  0.00  0.00    +0.000 OA
ATOM     22  H   UNL     1      50.991  11.399  13.925  0.00  0.00    +0.000 HD
ATOM     23  H   UNL     1      52.111  12.316  12.973  0.00  0.00    +0.000 HD
ENDBRANCH  16  19
ENDBRANCH   2  13
TORSDOF 5
ENDMDL
