MODEL 1
REMARK VINA RESULT:    -9.784      0.000      0.000
REMARK INTER + INTRA:         -14.403
REMARK INTER:                 -13.216
REMARK INTRA:                  -1.187
REMARK UNBOUND:                -1.187
REMARK  Name = 
REMARK  6 active torsions:
REMARK  status: ('A' for Active; 'I' for Inactive)
REMARK    1  A    between atoms: C_2  and  C_4
REMARK    2  A    between atoms: N_8  and  C_9
REMARK    3  A    between atoms: C_9  and  C_10
REMARK    4  A    between atoms: C_10  and  C_13
REMARK    5  A    between atoms: C_17  and  O_18
REMARK    6  A    between atoms: O_18  and  C_19
REMARK                            x       y       z     vdW  Elec       q    Type
REMARK                         _______ _______ _______ _____ _____    ______ ____
ROOT
ATOM      1  C   UNL     1      43.600   4.673  12.563  0.00  0.00    +0.000 C 
ATOM      2  F   UNL     1      42.687   5.563  13.048  0.00  0.00    +0.000 F 
ATOM      3  F   UNL     1      43.439   3.540  13.307  0.00  0.00    +0.000 F 
ENDROOT
BRANCH   1   4
ATOM      4  C   UNL     1      45.020   5.207  12.615  0.00  0.00    +0.000 A 
ATOM      5  C   UNL     1      45.439   6.204  11.725  0.00  0.00    +0.000 A 
ATOM      6  C   UNL     1      46.685   6.812  11.891  0.00  0.00    +0.000 A 
ATOM      7  C   UNL     1      47.530   6.423  12.936  0.00  0.00    +0.000 A 
ATOM      8  C   UNL     1      47.142   5.403  13.803  0.00  0.00    +0.000 A 
ATOM      9  C   UNL     1      45.890   4.803  13.641  0.00  0.00    +0.000 A 
BRANCH   8  10
ATOM     10  O   UNL     1      47.861   4.956  14.882  0.00  0.00    +0.000 OA
BRANCH  10  11
ATOM     11  C   UNL     1      47.269   4.003  15.789  0.00  0.00    +0.000 C 
ATOM     12  C   UNL     1      47.164   4.418  17.271  0.00  0.00    +0.000 C 
ATOM     13  C   UNL     1      47.681   3.024  17.665  0.00  0.00    +0.000 C 
ATOM     14  F   UNL     1      48.606   3.000  18.651  0.00  0.00    +0.000 F 
ATOM     15  F   UNL     1      46.724   2.132  18.009  0.00  0.00    +0.000 F 
ATOM     16  C   UNL     1      48.227   2.874  16.236  0.00  0.00    +0.000 C 
ENDBRANCH  10  11
ENDBRANCH   8  10
ENDBRANCH   1   4
BRANCH   1  17
ATOM     17  C   UNL     1      43.267   4.358  11.084  0.00  0.00    +0.000 C 
BRANCH  17  22
ATOM     18  C   UNL     1      46.499   2.638   7.506  0.00  0.00    +0.000 A 
ATOM     19  C   UNL     1      46.050   3.919   7.799  0.00  0.00    +0.000 A 
ATOM     20  C   UNL     1      45.131   4.090   8.833  0.00  0.00    +0.000 A 
ATOM     21  C   UNL     1      44.674   2.988   9.554  0.00  0.00    +0.000 A 
ATOM     22  N   UNL     1      43.782   3.090  10.587  0.00  0.00    +0.000 N 
ATOM     23  N   UNL     1      45.090   1.742   9.260  0.00  0.00    +0.000 NA
ATOM     24  C   UNL     1      45.979   1.586   8.242  0.00  0.00    +0.000 A 
ATOM     25  H   UNL     1      43.536   2.216  11.040  0.00  0.00    +0.000 HD
BRANCH  18  27
ATOM     26  N   UNL     1      47.498   3.225   5.374  0.00  0.00    +0.000 N 
ATOM     27  C   UNL     1      47.487   2.366   6.444  0.00  0.00    +0.000 C 
ATOM     28  O   UNL     1      48.287   1.447   6.530  0.00  0.00    +0.000 OA
ATOM     29  H   UNL     1      48.250   3.098   4.711  0.00  0.00    +0.000 HD
ATOM     30  H   UNL     1      47.041   4.125   5.399  0.00  0.00    +0.000 HD
ENDBRANCH  18  27
ENDBRANCH  17  22
ENDBRANCH   1  17
TORSDOF 6
ENDMDL
MODEL 2
REMARK VINA RESULT:    -8.260      2.173      2.632
REMARK INTER + INTRA:         -12.344
REMARK INTER:                 -11.333
REMARK INTRA:                  -1.012
REMARK UNBOUND:                -1.187
REMARK  Name = 
REMARK  6 active torsions:
REMARK  status: ('A' for Active; 'I' for Inactive)
REMARK    1  A    between atoms: C_2  and  C_4
REMARK    2  A    between atoms: N_8  and  C_9
REMARK    3  A    between atoms: C_9  and  C_10
REMARK    4  A    between atoms: C_10  and  C_13
REMARK    5  A    between atoms: C_17  and  O_18
REMARK    6  A    between atoms: O_18  and  C_19
REMARK                            x       y       z     vdW  Elec       q    Type
REMARK                         _______ _______ _______ _____ _____    ______ ____
ROOT
ATOM      1  C   UNL     1      43.775   4.930  12.581  0.00  0.00    +0.000 C 
ATOM      2  F   UNL     1      42.713   5.480  13.237  0.00  0.00    +0.000 F 
ATOM      3  F   UNL     1      44.087   3.796  13.272  0.00  0.00    +0.000 F 
ENDROOT
BRANCH   1   4
ATOM      4  C   UNL     1      44.949   5.887  12.470  0.00  0.00    +0.000 A 
ATOM      5  C   UNL     1      44.798   7.131  11.846  0.00  0.00    +0.000 A 
ATOM      6  C   UNL     1      45.828   8.073  11.902  0.00  0.00    +0.000 A 
ATOM      7  C   UNL     1      47.022   7.777  12.567  0.00  0.00    +0.000 A 
ATOM      8  C   UNL     1      47.201   6.527  13.157  0.00  0.00    +0.000 A 
ATOM      9  C   UNL     1      46.165   5.590  13.108  0.00  0.00    +0.000 A 
BRANCH   8  10
ATOM     10  O   UNL     1      48.307   6.129  13.864  0.00  0.00    +0.000 OA
BRANCH  10  11
ATOM     11  C   UNL     1      48.924   7.042  14.796  0.00  0.00    +0.000 C 
ATOM     12  C   UNL     1      50.330   7.565  14.440  0.00  0.00    +0.000 C 
ATOM     13  C   UNL     1      50.762   7.301  15.893  0.00  0.00    +0.000 C 
ATOM     14  F   UNL     1      51.976   6.727  16.048  0.00  0.00    +0.000 F 
ATOM     15  F   UNL     1      50.737   8.382  16.706  0.00  0.00    +0.000 F 
ATOM     16  C   UNL     1      49.557   6.356  16.030  0.00  0.00    +0.000 C 
ENDBRANCH  10  11
ENDBRANCH   8  10
ENDBRANCH   1   4
BRANCH   1  17
ATOM     17  C   UNL     1      43.342   4.546  11.145  0.00  0.00    +0.000 C 
BRANCH  17  22
ATOM     18  C   UNL     1      46.419   2.657   7.516  0.00  0.00    +0.000 A 
ATOM     19  C   UNL     1      45.996   3.953   7.779  0.00  0.00    +0.000 A 
ATOM     20  C   UNL     1      45.118   4.173   8.839  0.00  0.00    +0.000 A 
ATOM     21  C   UNL     1      44.676   3.103   9.616  0.00  0.00    +0.000 A 
ATOM     22  N   UNL     1      43.823   3.253  10.676  0.00  0.00    +0.000 N 
ATOM     23  N   UNL     1      45.066   1.842   9.352  0.00  0.00    +0.000 NA
ATOM     24  C   UNL     1      45.914   1.639   8.309  0.00  0.00    +0.000 A 
ATOM     25  H   UNL     1      43.584   2.400  11.169  0.00  0.00    +0.000 HD
BRANCH  18  27
ATOM     26  N   UNL     1      47.394   3.193   5.360  0.00  0.00    +0.000 N 
ATOM     27  C   UNL     1      47.364   2.334   6.429  0.00  0.00    +0.000 C 
ATOM     28  O   UNL     1      48.115   1.372   6.494  0.00  0.00    +0.000 OA
ATOM     29  H   UNL     1      48.121   3.027   4.678  0.00  0.00    +0.000 HD
ATOM     30  H   UNL     1      46.988   4.116   5.398  0.00  0.00    +0.000 HD
ENDBRANCH  18  27
ENDBRANCH  17  22
ENDBRANCH   1  17
TORSDOF 6
ENDMDL
MODEL 3
REMARK VINA RESULT:    -8.258      2.896      3.965
REMARK INTER + INTRA:         -12.341
REMARK INTER:                 -11.240
REMARK INTRA:                  -1.101
REMARK UNBOUND:                -1.187
REMARK  Name = 
REMARK  6 active torsions:
REMARK  status: ('A' for Active; 'I' for Inactive)
REMARK    1  A    between atoms: C_2  and  C_4
REMARK    2  A    between atoms: N_8  and  C_9
REMARK    3  A    between atoms: C_9  and  C_10
REMARK    4  A    between atoms: C_10  and  C_13
REMARK    5  A    between atoms: C_17  and  O_18
REMARK    6  A    between atoms: O_18  and  C_19
REMARK                            x       y       z     vdW  Elec       q    Type
REMARK                         _______ _______ _______ _____ _____    ______ ____
ROOT
ATOM      1  C   UNL     1      44.102   4.280  12.545  0.00  0.00    +0.000 C 
ATOM      2  F   UNL     1      43.181   4.258  13.551  0.00  0.00    +0.000 F 
ATOM      3  F   UNL     1      45.053   3.367  12.898  0.00  0.00    +0.000 F 
ENDROOT
BRANCH   1   4
ATOM      4  C   UNL     1      44.681   5.665  12.316  0.00  0.00    +0.000 A 
ATOM      5  C   UNL     1      43.960   6.629  11.600  0.00  0.00    +0.000 A 
ATOM      6  C   UNL     1      44.417   7.947  11.543  0.00  0.00    +0.000 A 
ATOM      7  C   UNL     1      45.604   8.313  12.187  0.00  0.00    +0.000 A 
ATOM      8  C   UNL     1      46.352   7.355  12.868  0.00  0.00    +0.000 A 
ATOM      9  C   UNL     1      45.887   6.038  12.932  0.00  0.00    +0.000 A 
BRANCH   8  10
ATOM     10  O   UNL     1      47.509   7.593  13.564  0.00  0.00    +0.000 OA
BRANCH  10  11
ATOM     11  C   UNL     1      48.784   7.329  12.942  0.00  0.00    +0.000 C 
ATOM     12  C   UNL     1      49.899   8.372  13.158  0.00  0.00    +0.000 C 
ATOM     13  C   UNL     1      50.230   8.281  11.658  0.00  0.00    +0.000 C 
ATOM     14  F   UNL     1      50.461   9.460  11.037  0.00  0.00    +0.000 F 
ATOM     15  F   UNL     1      51.266   7.469  11.346  0.00  0.00    +0.000 F 
ATOM     16  C   UNL     1      48.836   7.674  11.434  0.00  0.00    +0.000 C 
ENDBRANCH  10  11
ENDBRANCH   8  10
ENDBRANCH   1   4
BRANCH   1  17
ATOM     17  C   UNL     1      43.429   3.825  11.227  0.00  0.00    +0.000 C 
BRANCH  17  22
ATOM     18  C   UNL     1      46.488   2.709   7.277  0.00  0.00    +0.000 A 
ATOM     19  C   UNL     1      45.937   3.911   7.702  0.00  0.00    +0.000 A 
ATOM     20  C   UNL     1      45.102   3.912   8.818  0.00  0.00    +0.000 A 
ATOM     21  C   UNL     1      44.827   2.721   9.489  0.00  0.00    +0.000 A 
ATOM     22  N   UNL     1      44.025   2.656  10.596  0.00  0.00    +0.000 N 
ATOM     23  N   UNL     1      45.341   1.550   9.068  0.00  0.00    +0.000 NA
ATOM     24  C   UNL     1      46.146   1.560   7.972  0.00  0.00    +0.000 A 
ATOM     25  H   UNL     1      43.911   1.733  11.000  0.00  0.00    +0.000 HD
BRANCH  18  27
ATOM     26  N   UNL     1      48.647   2.096   6.357  0.00  0.00    +0.000 N 
ATOM     27  C   UNL     1      47.400   2.617   6.121  0.00  0.00    +0.000 C 
ATOM     28  O   UNL     1      47.050   2.948   4.998  0.00  0.00    +0.000 OA
ATOM     29  H   UNL     1      49.221   1.932   5.541  0.00  0.00    +0.000 HD
ATOM     30  H   UNL     1      48.868   1.582   7.197  0.00  0.00    +0.000 HD
ENDBRANCH  18  27
ENDBRANCH  17  22
ENDBRANCH   1  17
TORSDOF 6
ENDMDL
MODEL 4
REMARK VINA RESULT:    -8.060      3.847      8.345
REMARK INTER + INTRA:         -12.074
REMARK INTER:                 -11.238
REMARK INTRA:                  -0.836
REMARK UNBOUND:                -1.187
REMARK  Name = 
REMARK  6 active torsions:
REMARK  status: ('A' for Active; 'I' for Inactive)
REMARK    1  A    between atoms: C_2  and  C_4
REMARK    2  A    between atoms: N_8  and  C_9
REMARK    3  A    between atoms: C_9  and  C_10
REMARK    4  A    between atoms: C_10  and  C_13
REMARK    5  A    between atoms: C_17  and  O_18
REMARK    6  A    between atoms: O_18  and  C_19
REMARK                            x       y       z     vdW  Elec       q    Type
REMARK                         _______ _______ _______ _____ _____    ______ ____
ROOT
ATOM      1  C   UNL     1      46.041   6.805  12.316  0.00  0.00    +0.000 C 
ATOM      2  F   UNL     1      45.252   7.271  13.328  0.00  0.00    +0.000 F 
ATOM      3  F   UNL     1      46.434   7.910  11.618  0.00  0.00    +0.000 F 
ENDROOT
BRANCH   1   4
ATOM      4  C   UNL     1      45.328   5.788  11.443  0.00  0.00    +0.000 A 
ATOM      5  C   UNL     1      44.133   5.196  11.869  0.00  0.00    +0.000 A 
ATOM      6  C   UNL     1      43.394   4.398  10.994  0.00  0.00    +0.000 A 
ATOM      7  C   UNL     1      43.847   4.171   9.689  0.00  0.00    +0.000 A 
ATOM      8  C   UNL     1      45.056   4.720   9.266  0.00  0.00    +0.000 A 
ATOM      9  C   UNL     1      45.789   5.527  10.142  0.00  0.00    +0.000 A 
BRANCH   8  10
ATOM     10  O   UNL     1      45.590   4.600   8.009  0.00  0.00    +0.000 OA
BRANCH  10  11
ATOM     11  C   UNL     1      45.686   3.297   7.396  0.00  0.00    +0.000 C 
ATOM     12  C   UNL     1      46.334   2.174   8.232  0.00  0.00    +0.000 C 
ATOM     13  C   UNL     1      47.142   1.759   6.990  0.00  0.00    +0.000 C 
ATOM     14  F   UNL     1      48.444   1.469   7.209  0.00  0.00    +0.000 F 
ATOM     15  F   UNL     1      46.626   0.725   6.288  0.00  0.00    +0.000 F 
ATOM     16  C   UNL     1      46.861   3.150   6.400  0.00  0.00    +0.000 C 
ENDBRANCH  10  11
ENDBRANCH   8  10
ENDBRANCH   1   4
BRANCH   1  17
ATOM     17  C   UNL     1      47.289   6.117  12.920  0.00  0.00    +0.000 C 
BRANCH  17  22
ATOM     18  C   UNL     1      48.274   4.482  17.670  0.00  0.00    +0.000 A 
ATOM     19  C   UNL     1      48.694   5.613  16.981  0.00  0.00    +0.000 A 
ATOM     20  C   UNL     1      48.282   5.789  15.662  0.00  0.00    +0.000 A 
ATOM     21  C   UNL     1      47.463   4.841  15.050  0.00  0.00    +0.000 A 
ATOM     22  N   UNL     1      47.016   4.961  13.763  0.00  0.00    +0.000 N 
ATOM     23  N   UNL     1      47.071   3.733  15.706  0.00  0.00    +0.000 NA
ATOM     24  C   UNL     1      47.488   3.566  16.990  0.00  0.00    +0.000 A 
ATOM     25  H   UNL     1      46.418   4.210  13.435  0.00  0.00    +0.000 HD
BRANCH  18  27
ATOM     26  N   UNL     1      48.264   3.015  19.602  0.00  0.00    +0.000 N 
ATOM     27  C   UNL     1      48.643   4.224  19.075  0.00  0.00    +0.000 C 
ATOM     28  O   UNL     1      49.291   5.028  19.728  0.00  0.00    +0.000 OA
ATOM     29  H   UNL     1      48.618   2.803  20.524  0.00  0.00    +0.000 HD
ATOM     30  H   UNL     1      47.967   2.243  19.024  0.00  0.00    +0.000 HD
ENDBRANCH  18  27
ENDBRANCH  17  22
ENDBRANCH   1  17
TORSDOF 6
ENDMDL
MODEL 5
REMARK VINA RESULT:    -8.025      3.770      7.979
REMARK INTER + INTRA:         -12.027
REMARK INTER:                 -11.071
REMARK INTRA:                  -0.956
REMARK UNBOUND:                -1.187
REMARK  Name = 
REMARK  6 active torsions:
REMARK  status: ('A' for Active; 'I' for Inactive)
REMARK    1  A    between atoms: C_2  and  C_4
REMARK    2  A    between atoms: N_8  and  C_9
REMARK    3  A    between atoms: C_9  and  C_10
REMARK    4  A    between atoms: C_10  and  C_13
REMARK    5  A    between atoms: C_17  and  O_18
REMARK    6  A    between atoms: O_18  and  C_19
REMARK                            x       y       z     vdW  Elec       q    Type
REMARK                         _______ _______ _______ _____ _____    ______ ____
ROOT
ATOM      1  C   UNL     1      45.510   6.719  12.006  0.00  0.00    +0.000 C 
ATOM      2  F   UNL     1      45.147   7.317  13.177  0.00  0.00    +0.000 F 
ATOM      3  F   UNL     1      45.134   7.583  11.020  0.00  0.00    +0.000 F 
ENDROOT
BRANCH   1   4
ATOM      4  C   UNL     1      44.893   5.341  11.841  0.00  0.00    +0.000 A 
ATOM      5  C   UNL     1      44.033   4.824  12.817  0.00  0.00    +0.000 A 
ATOM      6  C   UNL     1      43.334   3.639  12.579  0.00  0.00    +0.000 A 
ATOM      7  C   UNL     1      43.497   2.951  11.371  0.00  0.00    +0.000 A 
ATOM      8  C   UNL     1      44.381   3.434  10.408  0.00  0.00    +0.000 A 
ATOM      9  C   UNL     1      45.072   4.626  10.645  0.00  0.00    +0.000 A 
BRANCH   8  10
ATOM     10  O   UNL     1      44.603   2.873   9.176  0.00  0.00    +0.000 OA
BRANCH  10  11
ATOM     11  C   UNL     1      45.934   2.878   8.619  0.00  0.00    +0.000 C 
ATOM     12  C   UNL     1      46.107   3.507   7.221  0.00  0.00    +0.000 C 
ATOM     13  C   UNL     1      46.981   2.306   6.824  0.00  0.00    +0.000 C 
ATOM     14  F   UNL     1      46.746   1.792   5.596  0.00  0.00    +0.000 F 
ATOM     15  F   UNL     1      48.315   2.512   6.910  0.00  0.00    +0.000 F 
ATOM     16  C   UNL     1      46.366   1.528   7.998  0.00  0.00    +0.000 C 
ENDBRANCH  10  11
ENDBRANCH   8  10
ENDBRANCH   1   4
BRANCH   1  17
ATOM     17  C   UNL     1      47.049   6.553  11.975  0.00  0.00    +0.000 C 
BRANCH  17  22
ATOM     18  C   UNL     1      48.010   4.495  16.563  0.00  0.00    +0.000 A 
ATOM     19  C   UNL     1      47.244   4.044  15.496  0.00  0.00    +0.000 A 
ATOM     20  C   UNL     1      47.138   4.843  14.358  0.00  0.00    +0.000 A 
ATOM     21  C   UNL     1      47.792   6.073  14.302  0.00  0.00    +0.000 A 
ATOM     22  N   UNL     1      47.737   6.898  13.212  0.00  0.00    +0.000 N 
ATOM     23  N   UNL     1      48.517   6.524  15.342  0.00  0.00    +0.000 NA
ATOM     24  C   UNL     1      48.605   5.741  16.451  0.00  0.00    +0.000 A 
ATOM     25  H   UNL     1      48.264   7.761  13.289  0.00  0.00    +0.000 HD
BRANCH  18  27
ATOM     26  N   UNL     1      47.217   2.795  18.102  0.00  0.00    +0.000 N 
ATOM     27  C   UNL     1      48.196   3.707  17.796  0.00  0.00    +0.000 C 
ATOM     28  O   UNL     1      49.193   3.827  18.492  0.00  0.00    +0.000 OA
ATOM     29  H   UNL     1      47.408   2.184  18.883  0.00  0.00    +0.000 HD
ATOM     30  H   UNL     1      46.530   2.493  17.426  0.00  0.00    +0.000 HD
ENDBRANCH  18  27
ENDBRANCH  17  22
ENDBRANCH   1  17
TORSDOF 6
ENDMDL
MODEL 6
REMARK VINA RESULT:    -6.975      4.155      7.607
REMARK INTER + INTRA:         -10.608
REMARK INTER:                  -9.888
REMARK INTRA:                  -0.720
REMARK UNBOUND:                -1.187
REMARK  Name = 
REMARK  6 active torsions:
REMARK  status: ('A' for Active; 'I' for Inactive)
REMARK    1  A    between atoms: C_2  and  C_4
REMARK    2  A    between atoms: N_8  and  C_9
REMARK    3  A    between atoms: C_9  and  C_10
REMARK    4  A    between atoms: C_10  and  C_13
REMARK    5  A    between atoms: C_17  and  O_18
REMARK    6  A    between atoms: O_18  and  C_19
REMARK                            x       y       z     vdW  Elec       q    Type
REMARK                         _______ _______ _______ _____ _____    ______ ____
ROOT
ATOM      1  C   UNL     1      44.650   5.633  12.983  0.00  0.00    +0.000 C 
ATOM      2  F   UNL     1      45.490   5.304  14.007  0.00  0.00    +0.000 F 
ATOM      3  F   UNL     1      43.439   5.873  13.564  0.00  0.00    +0.000 F 
ENDROOT
BRANCH   1   4
ATOM      4  C   UNL     1      44.582   4.554  11.917  0.00  0.00    +0.000 A 
ATOM      5  C   UNL     1      43.952   3.331  12.180  0.00  0.00    +0.000 A 
ATOM      6  C   UNL     1      43.740   2.416  11.148  0.00  0.00    +0.000 A 
ATOM      7  C   UNL     1      44.165   2.704   9.846  0.00  0.00    +0.000 A 
ATOM      8  C   UNL     1      44.830   3.900   9.579  0.00  0.00    +0.000 A 
ATOM      9  C   UNL     1      45.033   4.819  10.613  0.00  0.00    +0.000 A 
BRANCH   8  10
ATOM     10  O   UNL     1      45.264   4.313   8.346  0.00  0.00    +0.000 OA
BRANCH  10  11
ATOM     11  C   UNL     1      45.634   3.332   7.354  0.00  0.00    +0.000 C 
ATOM     12  C   UNL     1      46.450   2.116   7.840  0.00  0.00    +0.000 C 
ATOM     13  C   UNL     1      47.373   2.290   6.622  0.00  0.00    +0.000 C 
ATOM     14  F   UNL     1      48.696   2.164   6.867  0.00  0.00    +0.000 F 
ATOM     15  F   UNL     1      47.095   1.485   5.570  0.00  0.00    +0.000 F 
ATOM     16  C   UNL     1      46.855   3.731   6.492  0.00  0.00    +0.000 C 
ENDBRANCH  10  11
ENDBRANCH   8  10
ENDBRANCH   1   4
BRANCH   1  17
ATOM     17  C   UNL     1      45.154   6.932  12.308  0.00  0.00    +0.000 C 
BRANCH  17  22
ATOM     18  C   UNL     1      50.056   8.373  12.624  0.00  0.00    +0.000 A 
ATOM     19  C   UNL     1      49.417   7.467  11.789  0.00  0.00    +0.000 A 
ATOM     20  C   UNL     1      48.049   7.251  11.950  0.00  0.00    +0.000 A 
ATOM     21  C   UNL     1      47.343   7.936  12.938  0.00  0.00    +0.000 A 
ATOM     22  N   UNL     1      45.999   7.777  13.140  0.00  0.00    +0.000 N 
ATOM     23  N   UNL     1      47.962   8.799  13.765  0.00  0.00    +0.000 NA
ATOM     24  C   UNL     1      49.299   8.994  13.605  0.00  0.00    +0.000 A 
ATOM     25  H   UNL     1      45.599   8.340  13.883  0.00  0.00    +0.000 HD
BRANCH  18  27
ATOM     26  N   UNL     1      52.248   7.838  11.734  0.00  0.00    +0.000 N 
ATOM     27  C   UNL     1      51.495   8.681  12.511  0.00  0.00    +0.000 C 
ATOM     28  O   UNL     1      51.987   9.662  13.048  0.00  0.00    +0.000 OA
ATOM     29  H   UNL     1      53.205   8.121  11.571  0.00  0.00    +0.000 HD
ATOM     30  H   UNL     1      51.833   7.189  11.081  0.00  0.00    +0.000 HD
ENDBRANCH  18  27
ENDBRANCH  17  22
ENDBRANCH   1  17
TORSDOF 6
ENDMDL
MODEL 7
REMARK VINA RESULT:    -6.932      3.329      4.808
REMARK INTER + INTRA:         -10.551
REMARK INTER:                  -9.457
REMARK INTRA:                  -1.094
REMARK UNBOUND:                -1.187
REMARK  Name = 
REMARK  6 active torsions:
REMARK  status: ('A' for Active; 'I' for Inactive)
REMARK    1  A    between atoms: C_2  and  C_4
REMARK    2  A    between atoms: N_8  and  C_9
REMARK    3  A    between atoms: C_9  and  C_10
REMARK    4  A    between atoms: C_10  and  C_13
REMARK    5  A    between atoms: C_17  and  O_18
REMARK    6  A    between atoms: O_18  and  C_19
REMARK                            x       y       z     vdW  Elec       q    Type
REMARK                         _______ _______ _______ _____ _____    ______ ____
ROOT
ATOM      1  C   UNL     1      48.424   8.236  12.849  0.00  0.00    +0.000 C 
ATOM      2  F   UNL     1      48.762   7.038  12.288  0.00  0.00    +0.000 F 
ATOM      3  F   UNL     1      49.185   9.169  12.207  0.00  0.00    +0.000 F 
ENDROOT
BRANCH   1   4
ATOM      4  C   UNL     1      48.627   8.252  14.353  0.00  0.00    +0.000 A 
ATOM      5  C   UNL     1      48.196   9.343  15.118  0.00  0.00    +0.000 A 
ATOM      6  C   UNL     1      48.227   9.277  16.513  0.00  0.00    +0.000 A 
ATOM      7  C   UNL     1      48.699   8.129  17.157  0.00  0.00    +0.000 A 
ATOM      8  C   UNL     1      49.170   7.052  16.407  0.00  0.00    +0.000 A 
ATOM      9  C   UNL     1      49.129   7.117  15.012  0.00  0.00    +0.000 A 
BRANCH   8  10
ATOM     10  O   UNL     1      49.625   5.863  16.917  0.00  0.00    +0.000 OA
BRANCH  10  11
ATOM     11  C   UNL     1      48.679   4.881  17.389  0.00  0.00    +0.000 C 
ATOM     12  C   UNL     1      49.245   3.511  17.816  0.00  0.00    +0.000 C 
ATOM     13  C   UNL     1      48.103   2.833  17.039  0.00  0.00    +0.000 C 
ATOM     14  F   UNL     1      48.457   1.760  16.296  0.00  0.00    +0.000 F 
ATOM     15  F   UNL     1      47.044   2.453  17.789  0.00  0.00    +0.000 F 
ATOM     16  C   UNL     1      47.914   4.146  16.262  0.00  0.00    +0.000 C 
ENDBRANCH  10  11
ENDBRANCH   8  10
ENDBRANCH   1   4
BRANCH   1  17
ATOM     17  C   UNL     1      46.928   8.524  12.571  0.00  0.00    +0.000 C 
BRANCH  17  22
ATOM     18  C   UNL     1      44.462   4.163  11.521  0.00  0.00    +0.000 A 
ATOM     19  C   UNL     1      45.284   4.965  10.741  0.00  0.00    +0.000 A 
ATOM     20  C   UNL     1      45.806   6.133  11.292  0.00  0.00    +0.000 A 
ATOM     21  C   UNL     1      45.501   6.485  12.606  0.00  0.00    +0.000 A 
ATOM     22  N   UNL     1      45.990   7.612  13.210  0.00  0.00    +0.000 N 
ATOM     23  N   UNL     1      44.687   5.723  13.360  0.00  0.00    +0.000 NA
ATOM     24  C   UNL     1      44.175   4.590  12.808  0.00  0.00    +0.000 A 
ATOM     25  H   UNL     1      45.704   7.752  14.173  0.00  0.00    +0.000 HD
BRANCH  18  27
ATOM     26  N   UNL     1      44.424   2.378   9.879  0.00  0.00    +0.000 N 
ATOM     27  C   UNL     1      43.883   2.898  11.028  0.00  0.00    +0.000 C 
ATOM     28  O   UNL     1      42.995   2.318  11.634  0.00  0.00    +0.000 OA
ATOM     29  H   UNL     1      44.100   1.458   9.614  0.00  0.00    +0.000 HD
ATOM     30  H   UNL     1      45.312   2.686   9.512  0.00  0.00    +0.000 HD
ENDBRANCH  18  27
ENDBRANCH  17  22
ENDBRANCH   1  17
TORSDOF 6
ENDMDL
