MODEL 1
REMARK VINA RESULT:    -8.444      0.000      0.000
REMARK INTER + INTRA:         -11.086
REMARK INTER:                 -10.419
REMARK INTRA:                  -0.667
REMARK UNBOUND:                -0.667
REMARK  Name = 
REMARK  5 active torsions:
REMARK  status: ('A' for Active; 'I' for Inactive)
REMARK    1  A    between atoms: C_1  and  C_2
REMARK    2  A    between atoms: C_2  and  O_3
REMARK    3  A    between atoms: C_2  and  C_14
REMARK    4  A    between atoms: O_3  and  C_4
REMARK    5  A    between atoms: C_7  and  C_8
REMARK                            x       y       z     vdW  Elec       q    Type
REMARK                         _______ _______ _______ _____ _____    ______ ____
ROOT
ATOM      1  C   UNL     1      44.651   3.568   9.452  0.00  0.00    +0.000 A 
ATOM      2  C   UNL     1      45.293   4.487   8.627  0.00  0.00    +0.000 A 
ATOM      3  C   UNL     1      46.225   4.044   7.677  0.00  0.00    +0.000 A 
ATOM      4  C   UNL     1      46.509   2.677   7.530  0.00  0.00    +0.000 A 
ATOM      5  C   UNL     1      45.840   1.767   8.344  0.00  0.00    +0.000 A 
ATOM      6  F   UNL     1      46.061   0.448   8.245  0.00  0.00    +0.000 F 
ATOM      7  C   UNL     1      44.915   2.205   9.292  0.00  0.00    +0.000 A 
ENDROOT
BRANCH   4   8
ATOM      8  C   UNL     1      47.504   2.266   6.504  0.00  0.00    +0.000 C 
ATOM      9  N   UNL     1      47.478   2.875   5.286  0.00  0.00    +0.000 N 
ATOM     10  O   UNL     1      48.330   1.393   6.739  0.00  0.00    +0.000 OA
ATOM     11  H   UNL     1      46.816   3.603   5.045  0.00  0.00    +0.000 HD
ATOM     12  H   UNL     1      48.161   2.591   4.597  0.00  0.00    +0.000 HD
ENDBRANCH   4   8
BRANCH   1  13
ATOM     13  O   UNL     1      43.723   3.863  10.403  0.00  0.00    +0.000 OA
BRANCH  13  15
ATOM     14  C   UNL     1      42.393   5.475  11.743  0.00  0.00    +0.000 C 
ATOM     15  C   UNL     1      43.748   5.114  11.119  0.00  0.00    +0.000 C 
BRANCH  15  16
ATOM     16  C   UNL     1      44.992   5.328  11.978  0.00  0.00    +0.000 A 
ATOM     17  C   UNL     1      45.315   4.402  12.986  0.00  0.00    +0.000 A 
ATOM     18  C   UNL     1      46.518   4.496  13.690  0.00  0.00    +0.000 A 
ATOM     19  C   UNL     1      47.422   5.514  13.400  0.00  0.00    +0.000 A 
ATOM     20  C   UNL     1      47.115   6.448  12.415  0.00  0.00    +0.000 A 
ATOM     21  C   UNL     1      45.912   6.356  11.710  0.00  0.00    +0.000 A 
ENDBRANCH  15  16
ENDBRANCH  13  15
ENDBRANCH   1  13
TORSDOF 4
ENDMDL
MODEL 2
REMARK VINA RESULT:    -8.086      0.848      1.468
REMARK INTER + INTRA:         -10.644
REMARK INTER:                 -10.040
REMARK INTRA:                  -0.603
REMARK UNBOUND:                -0.667
REMARK  Name = 
REMARK  5 active torsions:
REMARK  status: ('A' for Active; 'I' for Inactive)
REMARK    1  A    between atoms: C_1  and  C_2
REMARK    2  A    between atoms: C_2  and  O_3
REMARK    3  A    between atoms: C_2  and  C_14
REMARK    4  A    between atoms: O_3  and  C_4
REMARK    5  A    between atoms: C_7  and  C_8
REMARK                            x       y       z     vdW  Elec       q    Type
REMARK                         _______ _______ _______ _____ _____    ______ ____
ROOT
ATOM      1  C   UNL     1      44.446   3.480   9.318  0.00  0.00    +0.000 A 
ATOM      2  C   UNL     1      45.158   4.428   8.589  0.00  0.00    +0.000 A 
ATOM      3  C   UNL     1      46.193   4.021   7.734  0.00  0.00    +0.000 A 
ATOM      4  C   UNL     1      46.512   2.661   7.585  0.00  0.00    +0.000 A 
ATOM      5  C   UNL     1      45.773   1.723   8.301  0.00  0.00    +0.000 A 
ATOM      6  F   UNL     1      46.023   0.409   8.194  0.00  0.00    +0.000 F 
ATOM      7  C   UNL     1      44.746   2.125   9.154  0.00  0.00    +0.000 A 
ENDROOT
BRANCH   4   8
ATOM      8  C   UNL     1      47.616   2.289   6.662  0.00  0.00    +0.000 C 
ATOM      9  N   UNL     1      47.716   2.934   5.466  0.00  0.00    +0.000 N 
ATOM     10  O   UNL     1      48.422   1.416   6.960  0.00  0.00    +0.000 OA
ATOM     11  H   UNL     1      47.076   3.664   5.176  0.00  0.00    +0.000 HD
ATOM     12  H   UNL     1      48.472   2.676   4.848  0.00  0.00    +0.000 HD
ENDBRANCH   4   8
BRANCH   1  13
ATOM     13  O   UNL     1      43.417   3.739  10.171  0.00  0.00    +0.000 OA
BRANCH  13  15
ATOM     14  C   UNL     1      43.731   2.807  12.451  0.00  0.00    +0.000 C 
ATOM     15  C   UNL     1      43.649   4.054  11.559  0.00  0.00    +0.000 C 
BRANCH  15  16
ATOM     16  C   UNL     1      44.684   5.151  11.795  0.00  0.00    +0.000 A 
ATOM     17  C   UNL     1      44.359   6.492  11.522  0.00  0.00    +0.000 A 
ATOM     18  C   UNL     1      45.233   7.527  11.861  0.00  0.00    +0.000 A 
ATOM     19  C   UNL     1      46.448   7.244  12.481  0.00  0.00    +0.000 A 
ATOM     20  C   UNL     1      46.794   5.924  12.747  0.00  0.00    +0.000 A 
ATOM     21  C   UNL     1      45.920   4.886  12.409  0.00  0.00    +0.000 A 
ENDBRANCH  15  16
ENDBRANCH  13  15
ENDBRANCH   1  13
TORSDOF 4
ENDMDL
MODEL 3
REMARK VINA RESULT:    -7.936      1.323      2.044
REMARK INTER + INTRA:         -10.459
REMARK INTER:                 -10.033
REMARK INTRA:                  -0.426
REMARK UNBOUND:                -0.667
REMARK  Name = 
REMARK  5 active torsions:
REMARK  status: ('A' for Active; 'I' for Inactive)
REMARK    1  A    between atoms: C_1  and  C_2
REMARK    2  A    between atoms: C_2  and  O_3
REMARK    3  A    between atoms: C_2  and  C_14
REMARK    4  A    between atoms: O_3  and  C_4
REMARK    5  A    between atoms: C_7  and  C_8
REMARK                            x       y       z     vdW  Elec       q    Type
REMARK                         _______ _______ _______ _____ _____    ______ ____
ROOT
ATOM      1  C   UNL     1      44.561   3.722   9.342  0.00  0.00    +0.000 A 
ATOM      2  C   UNL     1      44.742   2.357   9.548  0.00  0.00    +0.000 A 
ATOM      3  C   UNL     1      45.639   1.641   8.743  0.00  0.00    +0.000 A 
ATOM      4  C   UNL     1      46.377   2.285   7.737  0.00  0.00    +0.000 A 
ATOM      5  C   UNL     1      46.204   3.655   7.560  0.00  0.00    +0.000 A 
ATOM      6  F   UNL     1      46.888   4.329   6.622  0.00  0.00    +0.000 F 
ATOM      7  C   UNL     1      45.311   4.370   8.357  0.00  0.00    +0.000 A 
ENDROOT
BRANCH   4   8
ATOM      8  C   UNL     1      47.315   1.474   6.916  0.00  0.00    +0.000 C 
ATOM      9  N   UNL     1      48.506   2.023   6.550  0.00  0.00    +0.000 N 
ATOM     10  O   UNL     1      47.028   0.336   6.567  0.00  0.00    +0.000 OA
ATOM     11  H   UNL     1      48.790   2.958   6.816  0.00  0.00    +0.000 HD
ATOM     12  H   UNL     1      49.138   1.462   5.995  0.00  0.00    +0.000 HD
ENDBRANCH   4   8
BRANCH   1  13
ATOM     13  O   UNL     1      43.734   4.533  10.057  0.00  0.00    +0.000 OA
BRANCH  13  15
ATOM     14  C   UNL     1      43.282   3.553  12.293  0.00  0.00    +0.000 C 
ATOM     15  C   UNL     1      43.891   4.704  11.480  0.00  0.00    +0.000 C 
BRANCH  15  16
ATOM     16  C   UNL     1      45.265   5.212  11.909  0.00  0.00    +0.000 A 
ATOM     17  C   UNL     1      45.795   6.378  11.328  0.00  0.00    +0.000 A 
ATOM     18  C   UNL     1      46.982   6.942  11.801  0.00  0.00    +0.000 A 
ATOM     19  C   UNL     1      47.662   6.355  12.865  0.00  0.00    +0.000 A 
ATOM     20  C   UNL     1      47.162   5.194  13.445  0.00  0.00    +0.000 A 
ATOM     21  C   UNL     1      45.974   4.628  12.973  0.00  0.00    +0.000 A 
ENDBRANCH  15  16
ENDBRANCH  13  15
ENDBRANCH   1  13
TORSDOF 4
ENDMDL
MODEL 4
REMARK VINA RESULT:    -6.719      4.186      6.713
REMARK INTER + INTRA:          -8.958
REMARK INTER:                  -8.308
REMARK INTRA:                  -0.649
REMARK UNBOUND:                -0.667
REMARK  Name = 
REMARK  5 active torsions:
REMARK  status: ('A' for Active; 'I' for Inactive)
REMARK    1  A    between atoms: C_1  and  C_2
REMARK    2  A    between atoms: C_2  and  O_3
REMARK    3  A    between atoms: C_2  and  C_14
REMARK    4  A    between atoms: O_3  and  C_4
REMARK    5  A    between atoms: C_7  and  C_8
REMARK                            x       y       z     vdW  Elec       q    Type
REMARK                         _______ _______ _______ _____ _____    ______ ____
ROOT
ATOM      1  C   UNL     1      45.175   6.077  11.647  0.00  0.00    +0.000 A 
ATOM      2  C   UNL     1      46.362   5.644  12.231  0.00  0.00    +0.000 A 
ATOM      3  C   UNL     1      47.148   6.542  12.968  0.00  0.00    +0.000 A 
ATOM      4  C   UNL     1      46.745   7.875  13.144  0.00  0.00    +0.000 A 
ATOM      5  C   UNL     1      45.541   8.287  12.576  0.00  0.00    +0.000 A 
ATOM      6  F   UNL     1      45.098   9.545  12.717  0.00  0.00    +0.000 F 
ATOM      7  C   UNL     1      44.760   7.397  11.840  0.00  0.00    +0.000 A 
ENDROOT
BRANCH   4   8
ATOM      8  C   UNL     1      47.617   8.781  13.937  0.00  0.00    +0.000 C 
ATOM      9  N   UNL     1      47.271   9.062  15.224  0.00  0.00    +0.000 N 
ATOM     10  O   UNL     1      48.626   9.274  13.449  0.00  0.00    +0.000 OA
ATOM     11  H   UNL     1      46.448   8.677  15.673  0.00  0.00    +0.000 HD
ATOM     12  H   UNL     1      47.873   9.676  15.755  0.00  0.00    +0.000 HD
ENDBRANCH   4   8
BRANCH   1  13
ATOM     13  O   UNL     1      44.318   5.308  10.920  0.00  0.00    +0.000 OA
BRANCH  13  15
ATOM     14  C   UNL     1      43.277   3.098  11.359  0.00  0.00    +0.000 C 
ATOM     15  C   UNL     1      44.484   3.879  10.823  0.00  0.00    +0.000 C 
BRANCH  15  16
ATOM     16  C   UNL     1      45.099   3.401   9.511  0.00  0.00    +0.000 A 
ATOM     17  C   UNL     1      45.578   4.338   8.577  0.00  0.00    +0.000 A 
ATOM     18  C   UNL     1      46.270   3.928   7.436  0.00  0.00    +0.000 A 
ATOM     19  C   UNL     1      46.502   2.574   7.205  0.00  0.00    +0.000 A 
ATOM     20  C   UNL     1      46.026   1.630   8.110  0.00  0.00    +0.000 A 
ATOM     21  C   UNL     1      45.332   2.039   9.252  0.00  0.00    +0.000 A 
ENDBRANCH  15  16
ENDBRANCH  13  15
ENDBRANCH   1  13
TORSDOF 4
ENDMDL
MODEL 5
REMARK VINA RESULT:    -6.607      3.733      6.297
REMARK INTER + INTRA:          -8.819
REMARK INTER:                  -8.739
REMARK INTRA:                  -0.080
REMARK UNBOUND:                -0.667
REMARK  Name = 
REMARK  5 active torsions:
REMARK  status: ('A' for Active; 'I' for Inactive)
REMARK    1  A    between atoms: C_1  and  C_2
REMARK    2  A    between atoms: C_2  and  O_3
REMARK    3  A    between atoms: C_2  and  C_14
REMARK    4  A    between atoms: O_3  and  C_4
REMARK    5  A    between atoms: C_7  and  C_8
REMARK                            x       y       z     vdW  Elec       q    Type
REMARK                         _______ _______ _______ _____ _____    ______ ____
ROOT
ATOM      1  C   UNL     1      45.798   4.388  12.125  0.00  0.00    +0.000 A 
ATOM      2  C   UNL     1      45.952   5.612  11.481  0.00  0.00    +0.000 A 
ATOM      3  C   UNL     1      46.617   6.665  12.128  0.00  0.00    +0.000 A 
ATOM      4  C   UNL     1      47.150   6.497  13.416  0.00  0.00    +0.000 A 
ATOM      5  C   UNL     1      47.011   5.258  14.037  0.00  0.00    +0.000 A 
ATOM      6  F   UNL     1      47.507   5.033  15.263  0.00  0.00    +0.000 F 
ATOM      7  C   UNL     1      46.348   4.211  13.398  0.00  0.00    +0.000 A 
ENDROOT
BRANCH   4   8
ATOM      8  C   UNL     1      47.847   7.647  14.050  0.00  0.00    +0.000 C 
ATOM      9  N   UNL     1      47.117   8.742  14.401  0.00  0.00    +0.000 N 
ATOM     10  O   UNL     1      49.055   7.621  14.252  0.00  0.00    +0.000 OA
ATOM     11  H   UNL     1      46.117   8.810  14.258  0.00  0.00    +0.000 HD
ATOM     12  H   UNL     1      47.600   9.516  14.835  0.00  0.00    +0.000 HD
ENDBRANCH   4   8
BRANCH   1  13
ATOM     13  O   UNL     1      45.187   3.287  11.608  0.00  0.00    +0.000 OA
BRANCH  13  15
ATOM     14  C   UNL     1      43.468   4.557  10.344  0.00  0.00    +0.000 C 
ATOM     15  C   UNL     1      44.419   3.353  10.390  0.00  0.00    +0.000 C 
BRANCH  15  16
ATOM     16  C   UNL     1      45.213   3.043   9.123  0.00  0.00    +0.000 A 
ATOM     17  C   UNL     1      45.633   4.091   8.284  0.00  0.00    +0.000 A 
ATOM     18  C   UNL     1      46.478   3.849   7.198  0.00  0.00    +0.000 A 
ATOM     19  C   UNL     1      46.923   2.557   6.931  0.00  0.00    +0.000 A 
ATOM     20  C   UNL     1      46.509   1.504   7.741  0.00  0.00    +0.000 A 
ATOM     21  C   UNL     1      45.663   1.745   8.828  0.00  0.00    +0.000 A 
ENDBRANCH  15  16
ENDBRANCH  13  15
ENDBRANCH   1  13
TORSDOF 4
ENDMDL
MODEL 6
REMARK VINA RESULT:    -6.395      4.125      6.675
REMARK INTER + INTRA:          -8.558
REMARK INTER:                  -7.894
REMARK INTRA:                  -0.664
REMARK UNBOUND:                -0.667
REMARK  Name = 
REMARK  5 active torsions:
REMARK  status: ('A' for Active; 'I' for Inactive)
REMARK    1  A    between atoms: C_1  and  C_2
REMARK    2  A    between atoms: C_2  and  O_3
REMARK    3  A    between atoms: C_2  and  C_14
REMARK    4  A    between atoms: O_3  and  C_4
REMARK    5  A    between atoms: C_7  and  C_8
REMARK                            x       y       z     vdW  Elec       q    Type
REMARK                         _______ _______ _______ _____ _____    ______ ____
ROOT
ATOM      1  C   UNL     1      46.508   6.211  12.454  0.00  0.00    +0.000 A 
ATOM      2  C   UNL     1      47.380   7.225  12.841  0.00  0.00    +0.000 A 
ATOM      3  C   UNL     1      48.076   7.125  14.054  0.00  0.00    +0.000 A 
ATOM      4  C   UNL     1      47.922   6.002  14.883  0.00  0.00    +0.000 A 
ATOM      5  C   UNL     1      47.066   4.984  14.470  0.00  0.00    +0.000 A 
ATOM      6  F   UNL     1      46.884   3.882  15.214  0.00  0.00    +0.000 F 
ATOM      7  C   UNL     1      46.370   5.082  13.266  0.00  0.00    +0.000 A 
ENDROOT
BRANCH   4   8
ATOM      8  C   UNL     1      48.688   5.950  16.156  0.00  0.00    +0.000 C 
ATOM      9  N   UNL     1      48.257   6.696  17.211  0.00  0.00    +0.000 N 
ATOM     10  O   UNL     1      49.692   5.256  16.262  0.00  0.00    +0.000 OA
ATOM     11  H   UNL     1      47.431   7.282  17.174  0.00  0.00    +0.000 HD
ATOM     12  H   UNL     1      48.783   6.649  18.073  0.00  0.00    +0.000 HD
ENDBRANCH   4   8
BRANCH   1  13
ATOM     13  O   UNL     1      45.784   6.179  11.302  0.00  0.00    +0.000 OA
BRANCH  13  15
ATOM     14  C   UNL     1      43.348   5.709  11.208  0.00  0.00    +0.000 C 
ATOM     15  C   UNL     1      44.779   5.171  11.071  0.00  0.00    +0.000 C 
BRANCH  15  16
ATOM     16  C   UNL     1      45.068   4.247   9.891  0.00  0.00    +0.000 A 
ATOM     17  C   UNL     1      45.706   4.753   8.744  0.00  0.00    +0.000 A 
ATOM     18  C   UNL     1      46.108   3.904   7.711  0.00  0.00    +0.000 A 
ATOM     19  C   UNL     1      45.883   2.533   7.803  0.00  0.00    +0.000 A 
ATOM     20  C   UNL     1      45.241   2.014   8.923  0.00  0.00    +0.000 A 
ATOM     21  C   UNL     1      44.838   2.863   9.957  0.00  0.00    +0.000 A 
ENDBRANCH  15  16
ENDBRANCH  13  15
ENDBRANCH   1  13
TORSDOF 4
ENDMDL
MODEL 7
REMARK VINA RESULT:    -5.854      3.378      5.276
REMARK INTER + INTRA:          -7.891
REMARK INTER:                  -7.269
REMARK INTRA:                  -0.621
REMARK UNBOUND:                -0.667
REMARK  Name = 
REMARK  5 active torsions:
REMARK  status: ('A' for Active; 'I' for Inactive)
REMARK    1  A    between atoms: C_1  and  C_2
REMARK    2  A    between atoms: C_2  and  O_3
REMARK    3  A    between atoms: C_2  and  C_14
REMARK    4  A    between atoms: O_3  and  C_4
REMARK    5  A    between atoms: C_7  and  C_8
REMARK                            x       y       z     vdW  Elec       q    Type
REMARK                         _______ _______ _______ _____ _____    ______ ____
ROOT
ATOM      1  C   UNL     1      46.330   6.177  12.546  0.00  0.00    +0.000 A 
ATOM      2  C   UNL     1      45.912   5.121  13.351  0.00  0.00    +0.000 A 
ATOM      3  C   UNL     1      45.180   4.063  12.793  0.00  0.00    +0.000 A 
ATOM      4  C   UNL     1      44.876   4.041  11.422  0.00  0.00    +0.000 A 
ATOM      5  C   UNL     1      45.324   5.091  10.625  0.00  0.00    +0.000 A 
ATOM      6  F   UNL     1      45.074   5.122   9.307  0.00  0.00    +0.000 F 
ATOM      7  C   UNL     1      46.049   6.146  11.178  0.00  0.00    +0.000 A 
ENDROOT
BRANCH   4   8
ATOM      8  C   UNL     1      44.100   2.891  10.887  0.00  0.00    +0.000 C 
ATOM      9  N   UNL     1      44.640   2.149   9.880  0.00  0.00    +0.000 N 
ATOM     10  O   UNL     1      42.993   2.613  11.331  0.00  0.00    +0.000 OA
ATOM     11  H   UNL     1      45.552   2.337   9.482  0.00  0.00    +0.000 HD
ATOM     12  H   UNL     1      44.105   1.368   9.527  0.00  0.00    +0.000 HD
ENDBRANCH   4   8
BRANCH   1  13
ATOM     13  O   UNL     1      47.053   7.255  12.957  0.00  0.00    +0.000 OA
BRANCH  13  15
ATOM     14  C   UNL     1      46.348   9.581  12.452  0.00  0.00    +0.000 C 
ATOM     15  C   UNL     1      47.258   8.396  12.101  0.00  0.00    +0.000 C 
BRANCH  15  16
ATOM     16  C   UNL     1      48.721   8.706  11.797  0.00  0.00    +0.000 A 
ATOM     17  C   UNL     1      49.638   7.655  11.617  0.00  0.00    +0.000 A 
ATOM     18  C   UNL     1      50.948   7.905  11.201  0.00  0.00    +0.000 A 
ATOM     19  C   UNL     1      51.367   9.210  10.954  0.00  0.00    +0.000 A 
ATOM     20  C   UNL     1      50.480  10.265  11.139  0.00  0.00    +0.000 A 
ATOM     21  C   UNL     1      49.169  10.016  11.556  0.00  0.00    +0.000 A 
ENDBRANCH  15  16
ENDBRANCH  13  15
ENDBRANCH   1  13
TORSDOF 4
ENDMDL
MODEL 8
REMARK VINA RESULT:    -5.744      4.403      6.336
REMARK INTER + INTRA:          -7.754
REMARK INTER:                  -7.168
REMARK INTRA:                  -0.586
REMARK UNBOUND:                -0.667
REMARK  Name = 
REMARK  5 active torsions:
REMARK  status: ('A' for Active; 'I' for Inactive)
REMARK    1  A    between atoms: C_1  and  C_2
REMARK    2  A    between atoms: C_2  and  O_3
REMARK    3  A    between atoms: C_2  and  C_14
REMARK    4  A    between atoms: O_3  and  C_4
REMARK    5  A    between atoms: C_7  and  C_8
REMARK                            x       y       z     vdW  Elec       q    Type
REMARK                         _______ _______ _______ _____ _____    ______ ____
ROOT
ATOM      1  C   UNL     1      47.096   4.068  14.384  0.00  0.00    +0.000 A 
ATOM      2  C   UNL     1      47.273   5.424  14.121  0.00  0.00    +0.000 A 
ATOM      3  C   UNL     1      46.699   5.996  12.977  0.00  0.00    +0.000 A 
ATOM      4  C   UNL     1      45.927   5.223  12.095  0.00  0.00    +0.000 A 
ATOM      5  C   UNL     1      45.736   3.874  12.385  0.00  0.00    +0.000 A 
ATOM      6  F   UNL     1      45.001   3.087  11.586  0.00  0.00    +0.000 F 
ATOM      7  C   UNL     1      46.309   3.302  13.520  0.00  0.00    +0.000 A 
ENDROOT
BRANCH   4   8
ATOM      8  C   UNL     1      45.341   5.885  10.899  0.00  0.00    +0.000 C 
ATOM      9  N   UNL     1      44.148   6.529  11.026  0.00  0.00    +0.000 N 
ATOM     10  O   UNL     1      45.911   5.851   9.815  0.00  0.00    +0.000 OA
ATOM     11  H   UNL     1      43.640   6.587  11.901  0.00  0.00    +0.000 HD
ATOM     12  H   UNL     1      43.761   6.979  10.208  0.00  0.00    +0.000 HD
ENDBRANCH   4   8
BRANCH   1  13
ATOM     13  O   UNL     1      47.587   3.394  15.459  0.00  0.00    +0.000 OA
BRANCH  13  15
ATOM     14  C   UNL     1      47.079   4.436  17.655  0.00  0.00    +0.000 C 
ATOM     15  C   UNL     1      48.136   4.088  16.598  0.00  0.00    +0.000 C 
BRANCH  15  16
ATOM     16  C   UNL     1      49.467   3.532  17.098  0.00  0.00    +0.000 A 
ATOM     17  C   UNL     1      49.760   2.165  16.938  0.00  0.00    +0.000 A 
ATOM     18  C   UNL     1      51.022   1.658  17.257  0.00  0.00    +0.000 A 
ATOM     19  C   UNL     1      52.016   2.506  17.739  0.00  0.00    +0.000 A 
ATOM     20  C   UNL     1      51.742   3.858  17.916  0.00  0.00    +0.000 A 
ATOM     21  C   UNL     1      50.480   4.367  17.598  0.00  0.00    +0.000 A 
ENDBRANCH  15  16
ENDBRANCH  13  15
ENDBRANCH   1  13
TORSDOF 4
ENDMDL
MODEL 9
REMARK VINA RESULT:    -5.736      5.360      7.999
REMARK INTER + INTRA:          -7.745
REMARK INTER:                  -7.033
REMARK INTRA:                  -0.711
REMARK UNBOUND:                -0.667
REMARK  Name = 
REMARK  5 active torsions:
REMARK  status: ('A' for Active; 'I' for Inactive)
REMARK    1  A    between atoms: C_1  and  C_2
REMARK    2  A    between atoms: C_2  and  O_3
REMARK    3  A    between atoms: C_2  and  C_14
REMARK    4  A    between atoms: O_3  and  C_4
REMARK    5  A    between atoms: C_7  and  C_8
REMARK                            x       y       z     vdW  Elec       q    Type
REMARK                         _______ _______ _______ _____ _____    ______ ____
ROOT
ATOM      1  C   UNL     1      47.837   5.369  14.765  0.00  0.00    +0.000 A 
ATOM      2  C   UNL     1      48.552   6.320  15.487  0.00  0.00    +0.000 A 
ATOM      3  C   UNL     1      48.619   6.232  16.885  0.00  0.00    +0.000 A 
ATOM      4  C   UNL     1      47.987   5.183  17.572  0.00  0.00    +0.000 A 
ATOM      5  C   UNL     1      47.298   4.224  16.834  0.00  0.00    +0.000 A 
ATOM      6  F   UNL     1      46.682   3.193  17.431  0.00  0.00    +0.000 F 
ATOM      7  C   UNL     1      47.227   4.311  15.444  0.00  0.00    +0.000 A 
ENDROOT
BRANCH   4   8
ATOM      8  C   UNL     1      48.095   5.139  19.055  0.00  0.00    +0.000 C 
ATOM      9  N   UNL     1      47.069   5.637  19.800  0.00  0.00    +0.000 N 
ATOM     10  O   UNL     1      49.085   4.672  19.604  0.00  0.00    +0.000 OA
ATOM     11  H   UNL     1      46.229   6.030  19.393  0.00  0.00    +0.000 HD
ATOM     12  H   UNL     1      47.151   5.599  20.807  0.00  0.00    +0.000 HD
ENDBRANCH   4   8
BRANCH   1  13
ATOM     13  O   UNL     1      47.703   5.332  13.410  0.00  0.00    +0.000 OA
BRANCH  13  15
ATOM     14  C   UNL     1      47.515   7.140  11.719  0.00  0.00    +0.000 C 
ATOM     15  C   UNL     1      46.801   6.219  12.718  0.00  0.00    +0.000 C 
BRANCH  15  16
ATOM     16  C   UNL     1      45.499   5.567  12.259  0.00  0.00    +0.000 A 
ATOM     17  C   UNL     1      44.426   5.436  13.159  0.00  0.00    +0.000 A 
ATOM     18  C   UNL     1      43.179   4.974  12.729  0.00  0.00    +0.000 A 
ATOM     19  C   UNL     1      42.980   4.635  11.393  0.00  0.00    +0.000 A 
ATOM     20  C   UNL     1      44.033   4.745  10.490  0.00  0.00    +0.000 A 
ATOM     21  C   UNL     1      45.281   5.207  10.919  0.00  0.00    +0.000 A 
ENDBRANCH  15  16
ENDBRANCH  13  15
ENDBRANCH   1  13
TORSDOF 4
ENDMDL
