MODEL 1
REMARK VINA RESULT:    -8.681      0.000      0.000
REMARK INTER + INTRA:         -11.183
REMARK INTER:                 -10.711
REMARK INTRA:                  -0.472
REMARK UNBOUND:                -0.472
REMARK  Name = 
REMARK  4 active torsions:
REMARK  status: ('A' for Active; 'I' for Inactive)
REMARK    1  A    between atoms: C_2  and  C_4
REMARK    2  A    between atoms: C_7  and  C_8
REMARK    3  A    between atoms: C_8  and  N_9
REMARK    4  A    between atoms: C_12  and  C_13
REMARK                            x       y       z     vdW  Elec       q    Type
REMARK                         _______ _______ _______ _____ _____    ______ ____
ROOT
ATOM      1  N   UNL     1      44.514   4.104  11.935  0.00  0.00    +0.000 N 
ATOM      2  C   UNL     1      45.603   4.786  12.510  0.00  0.00    +0.000 A 
ATOM      3  C   UNL     1      46.006   4.419  13.777  0.00  0.00    +0.000 A 
ATOM      4  C   UNL     1      47.059   5.118  14.343  0.00  0.00    +0.000 A 
ATOM      5  N   UNL     1      47.679   6.122  13.687  0.00  0.00    +0.000 NA
ATOM      6  C   UNL     1      47.214   6.400  12.465  0.00  0.00    +0.000 A 
ATOM      7  N   UNL     1      46.199   5.787  11.848  0.00  0.00    +0.000 NA
ATOM      8  H   UNL     1      44.719   3.108  11.901  0.00  0.00    +0.000 HD
ENDROOT
BRANCH   4   9
ATOM      9  C   UNL     1      47.545   4.830  15.705  0.00  0.00    +0.000 A 
ATOM     10  C   UNL     1      48.461   5.681  16.352  0.00  0.00    +0.000 A 
ATOM     11  C   UNL     1      48.974   5.371  17.614  0.00  0.00    +0.000 A 
ATOM     12  C   UNL     1      48.567   4.210  18.264  0.00  0.00    +0.000 A 
ATOM     13  C   UNL     1      47.639   3.366  17.660  0.00  0.00    +0.000 A 
ATOM     14  C   UNL     1      47.129   3.677  16.397  0.00  0.00    +0.000 A 
ENDBRANCH   4   9
BRANCH   1  15
ATOM     15  C   UNL     1      44.171   4.622  10.614  0.00  0.00    +0.000 C 
BRANCH  15  19
ATOM     16  C   UNL     1      46.465   2.485   7.652  0.00  0.00    +0.000 A 
ATOM     17  C   UNL     1      46.452   3.884   7.647  0.00  0.00    +0.000 A 
ATOM     18  C   UNL     1      45.691   4.580   8.588  0.00  0.00    +0.000 A 
ATOM     19  C   UNL     1      44.929   3.882   9.539  0.00  0.00    +0.000 A 
ATOM     20  C   UNL     1      44.923   2.480   9.515  0.00  0.00    +0.000 A 
ATOM     21  C   UNL     1      45.682   1.783   8.573  0.00  0.00    +0.000 A 
BRANCH  16  23
ATOM     22  N   UNL     1      48.317   2.400   6.081  0.00  0.00    +0.000 N 
ATOM     23  C   UNL     1      47.301   1.718   6.696  0.00  0.00    +0.000 C 
ATOM     24  O   UNL     1      47.127   0.521   6.498  0.00  0.00    +0.000 OA
ATOM     25  H   UNL     1      48.953   1.849   5.521  0.00  0.00    +0.000 HD
ATOM     26  H   UNL     1      48.643   3.293   6.422  0.00  0.00    +0.000 HD
ENDBRANCH  16  23
ENDBRANCH  15  19
ENDBRANCH   1  15
TORSDOF 4
ENDMDL
MODEL 2
REMARK VINA RESULT:    -8.336      1.932      2.816
REMARK INTER + INTRA:         -10.757
REMARK INTER:                 -10.287
REMARK INTRA:                  -0.470
REMARK UNBOUND:                -0.472
REMARK  Name = 
REMARK  4 active torsions:
REMARK  status: ('A' for Active; 'I' for Inactive)
REMARK    1  A    between atoms: C_2  and  C_4
REMARK    2  A    between atoms: C_7  and  C_8
REMARK    3  A    between atoms: C_8  and  N_9
REMARK    4  A    between atoms: C_12  and  C_13
REMARK                            x       y       z     vdW  Elec       q    Type
REMARK                         _______ _______ _______ _____ _____    ______ ____
ROOT
ATOM      1  N   UNL     1      44.678   5.914  10.693  0.00  0.00    +0.000 N 
ATOM      2  C   UNL     1      45.485   5.689  11.825  0.00  0.00    +0.000 A 
ATOM      3  C   UNL     1      46.273   6.725  12.279  0.00  0.00    +0.000 A 
ATOM      4  C   UNL     1      47.084   6.481  13.375  0.00  0.00    +0.000 A 
ATOM      5  N   UNL     1      47.108   5.278  13.987  0.00  0.00    +0.000 NA
ATOM      6  C   UNL     1      46.307   4.341  13.471  0.00  0.00    +0.000 A 
ATOM      7  N   UNL     1      45.503   4.485  12.413  0.00  0.00    +0.000 NA
ATOM      8  H   UNL     1      44.057   6.699  10.872  0.00  0.00    +0.000 HD
ENDROOT
BRANCH   4   9
ATOM      9  C   UNL     1      47.992   7.509  13.918  0.00  0.00    +0.000 A 
ATOM     10  C   UNL     1      47.786   8.878  13.661  0.00  0.00    +0.000 A 
ATOM     11  C   UNL     1      48.684   9.846  14.116  0.00  0.00    +0.000 A 
ATOM     12  C   UNL     1      49.801   9.465  14.853  0.00  0.00    +0.000 A 
ATOM     13  C   UNL     1      50.013   8.122  15.148  0.00  0.00    +0.000 A 
ATOM     14  C   UNL     1      49.114   7.155  14.690  0.00  0.00    +0.000 A 
ENDBRANCH   4   9
BRANCH   1  15
ATOM     15  C   UNL     1      43.931   4.723  10.300  0.00  0.00    +0.000 C 
BRANCH  15  19
ATOM     16  C   UNL     1      46.374   2.278   7.719  0.00  0.00    +0.000 A 
ATOM     17  C   UNL     1      46.374   3.669   7.567  0.00  0.00    +0.000 A 
ATOM     18  C   UNL     1      45.566   4.462   8.383  0.00  0.00    +0.000 A 
ATOM     19  C   UNL     1      44.743   3.871   9.355  0.00  0.00    +0.000 A 
ATOM     20  C   UNL     1      44.725   2.474   9.479  0.00  0.00    +0.000 A 
ATOM     21  C   UNL     1      45.531   1.680   8.662  0.00  0.00    +0.000 A 
BRANCH  16  23
ATOM     22  N   UNL     1      48.300   2.026   6.260  0.00  0.00    +0.000 N 
ATOM     23  C   UNL     1      47.257   1.412   6.901  0.00  0.00    +0.000 C 
ATOM     24  O   UNL     1      47.096   0.199   6.835  0.00  0.00    +0.000 OA
ATOM     25  H   UNL     1      48.963   1.418   5.799  0.00  0.00    +0.000 HD
ATOM     26  H   UNL     1      48.607   2.955   6.510  0.00  0.00    +0.000 HD
ENDBRANCH  16  23
ENDBRANCH  15  19
ENDBRANCH   1  15
TORSDOF 4
ENDMDL
MODEL 3
REMARK VINA RESULT:    -7.053      3.908      8.298
REMARK INTER + INTRA:          -9.174
REMARK INTER:                  -8.607
REMARK INTRA:                  -0.567
REMARK UNBOUND:                -0.472
REMARK  Name = 
REMARK  4 active torsions:
REMARK  status: ('A' for Active; 'I' for Inactive)
REMARK    1  A    between atoms: C_2  and  C_4
REMARK    2  A    between atoms: C_7  and  C_8
REMARK    3  A    between atoms: C_8  and  N_9
REMARK    4  A    between atoms: C_12  and  C_13
REMARK                            x       y       z     vdW  Elec       q    Type
REMARK                         _______ _______ _______ _____ _____    ______ ____
ROOT
ATOM      1  N   UNL     1      47.138   4.094  16.246  0.00  0.00    +0.000 N 
ATOM      2  C   UNL     1      47.150   4.789  15.022  0.00  0.00    +0.000 A 
ATOM      3  C   UNL     1      46.354   4.321  13.998  0.00  0.00    +0.000 A 
ATOM      4  C   UNL     1      46.399   4.996  12.790  0.00  0.00    +0.000 A 
ATOM      5  N   UNL     1      47.186   6.077  12.610  0.00  0.00    +0.000 NA
ATOM      6  C   UNL     1      47.919   6.452  13.663  0.00  0.00    +0.000 A 
ATOM      7  N   UNL     1      47.946   5.854  14.858  0.00  0.00    +0.000 NA
ATOM      8  H   UNL     1      46.186   4.060  16.606  0.00  0.00    +0.000 HD
ENDROOT
BRANCH   4   9
ATOM      9  C   UNL     1      45.614   4.556  11.621  0.00  0.00    +0.000 A 
ATOM     10  C   UNL     1      44.822   3.393  11.666  0.00  0.00    +0.000 A 
ATOM     11  C   UNL     1      44.135   2.938  10.537  0.00  0.00    +0.000 A 
ATOM     12  C   UNL     1      44.213   3.648   9.343  0.00  0.00    +0.000 A 
ATOM     13  C   UNL     1      44.965   4.818   9.279  0.00  0.00    +0.000 A 
ATOM     14  C   UNL     1      45.653   5.270  10.408  0.00  0.00    +0.000 A 
ENDBRANCH   4   9
BRANCH   1  15
ATOM     15  C   UNL     1      48.055   4.674  17.222  0.00  0.00    +0.000 C 
BRANCH  15  19
ATOM     16  C   UNL     1      51.640   2.308  17.616  0.00  0.00    +0.000 A 
ATOM     17  C   UNL     1      51.676   3.680  17.890  0.00  0.00    +0.000 A 
ATOM     18  C   UNL     1      50.524   4.454  17.740  0.00  0.00    +0.000 A 
ATOM     19  C   UNL     1      49.327   3.865  17.305  0.00  0.00    +0.000 A 
ATOM     20  C   UNL     1      49.308   2.496  17.002  0.00  0.00    +0.000 A 
ATOM     21  C   UNL     1      50.460   1.721  17.150  0.00  0.00    +0.000 A 
BRANCH  16  23
ATOM     22  N   UNL     1      52.605   0.135  18.116  0.00  0.00    +0.000 N 
ATOM     23  C   UNL     1      52.834   1.451  17.813  0.00  0.00    +0.000 C 
ATOM     24  O   UNL     1      53.972   1.880  17.666  0.00  0.00    +0.000 OA
ATOM     25  H   UNL     1      53.415  -0.468  18.136  0.00  0.00    +0.000 HD
ATOM     26  H   UNL     1      51.701  -0.295  17.978  0.00  0.00    +0.000 HD
ENDBRANCH  16  23
ENDBRANCH  15  19
ENDBRANCH   1  15
TORSDOF 4
ENDMDL
MODEL 4
REMARK VINA RESULT:    -6.099      4.240      9.063
REMARK INTER + INTRA:          -7.996
REMARK INTER:                  -7.447
REMARK INTRA:                  -0.549
REMARK UNBOUND:                -0.472
REMARK  Name = 
REMARK  4 active torsions:
REMARK  status: ('A' for Active; 'I' for Inactive)
REMARK    1  A    between atoms: C_2  and  C_4
REMARK    2  A    between atoms: C_7  and  C_8
REMARK    3  A    between atoms: C_8  and  N_9
REMARK    4  A    between atoms: C_12  and  C_13
REMARK                            x       y       z     vdW  Elec       q    Type
REMARK                         _______ _______ _______ _____ _____    ______ ____
ROOT
ATOM      1  N   UNL     1      48.435   6.997  13.802  0.00  0.00    +0.000 N 
ATOM      2  C   UNL     1      47.229   7.064  13.078  0.00  0.00    +0.000 A 
ATOM      3  C   UNL     1      46.905   6.009  12.252  0.00  0.00    +0.000 A 
ATOM      4  C   UNL     1      45.731   6.102  11.523  0.00  0.00    +0.000 A 
ATOM      5  N   UNL     1      44.924   7.179  11.611  0.00  0.00    +0.000 NA
ATOM      6  C   UNL     1      45.326   8.148  12.440  0.00  0.00    +0.000 A 
ATOM      7  N   UNL     1      46.445   8.147  13.170  0.00  0.00    +0.000 NA
ATOM      8  H   UNL     1      48.434   6.160  14.381  0.00  0.00    +0.000 HD
ENDROOT
BRANCH   4   9
ATOM      9  C   UNL     1      45.311   5.045  10.584  0.00  0.00    +0.000 A 
ATOM     10  C   UNL     1      44.550   3.942  11.015  0.00  0.00    +0.000 A 
ATOM     11  C   UNL     1      44.211   2.906  10.141  0.00  0.00    +0.000 A 
ATOM     12  C   UNL     1      44.614   2.960   8.810  0.00  0.00    +0.000 A 
ATOM     13  C   UNL     1      45.341   4.054   8.350  0.00  0.00    +0.000 A 
ATOM     14  C   UNL     1      45.681   5.088   9.227  0.00  0.00    +0.000 A 
ENDBRANCH   4   9
BRANCH   1  15
ATOM     15  C   UNL     1      48.669   8.196  14.600  0.00  0.00    +0.000 C 
BRANCH  15  19
ATOM     16  C   UNL     1      48.229   7.244  18.784  0.00  0.00    +0.000 A 
ATOM     17  C   UNL     1      48.033   8.558  18.344  0.00  0.00    +0.000 A 
ATOM     18  C   UNL     1      48.199   8.876  16.994  0.00  0.00    +0.000 A 
ATOM     19  C   UNL     1      48.571   7.883  16.074  0.00  0.00    +0.000 A 
ATOM     20  C   UNL     1      48.797   6.576  16.529  0.00  0.00    +0.000 A 
ATOM     21  C   UNL     1      48.633   6.258  17.879  0.00  0.00    +0.000 A 
BRANCH  16  23
ATOM     22  N   UNL     1      47.182   5.803  20.437  0.00  0.00    +0.000 N 
ATOM     23  C   UNL     1      48.013   6.865  20.202  0.00  0.00    +0.000 C 
ATOM     24  O   UNL     1      48.584   7.441  21.121  0.00  0.00    +0.000 OA
ATOM     25  H   UNL     1      47.129   5.477  21.392  0.00  0.00    +0.000 HD
ATOM     26  H   UNL     1      46.922   5.158  19.704  0.00  0.00    +0.000 HD
ENDBRANCH  16  23
ENDBRANCH  15  19
ENDBRANCH   1  15
TORSDOF 4
ENDMDL
MODEL 5
REMARK VINA RESULT:    -5.685      4.740      8.887
REMARK INTER + INTRA:          -7.486
REMARK INTER:                  -6.982
REMARK INTRA:                  -0.504
REMARK UNBOUND:                -0.472
REMARK  Name = 
REMARK  4 active torsions:
REMARK  status: ('A' for Active; 'I' for Inactive)
REMARK    1  A    between atoms: C_2  and  C_4
REMARK    2  A    between atoms: C_7  and  C_8
REMARK    3  A    between atoms: C_8  and  N_9
REMARK    4  A    between atoms: C_12  and  C_13
REMARK                            x       y       z     vdW  Elec       q    Type
REMARK                         _______ _______ _______ _____ _____    ______ ____
ROOT
ATOM      1  N   UNL     1      47.259   5.828  14.246  0.00  0.00    +0.000 N 
ATOM      2  C   UNL     1      46.167   6.114  13.404  0.00  0.00    +0.000 A 
ATOM      3  C   UNL     1      46.070   7.382  12.872  0.00  0.00    +0.000 A 
ATOM      4  C   UNL     1      44.975   7.660  12.071  0.00  0.00    +0.000 A 
ATOM      5  N   UNL     1      44.033   6.730  11.809  0.00  0.00    +0.000 NA
ATOM      6  C   UNL     1      44.219   5.531  12.371  0.00  0.00    +0.000 A 
ATOM      7  N   UNL     1      45.236   5.181  13.165  0.00  0.00    +0.000 NA
ATOM      8  H   UNL     1      48.127   6.003  13.745  0.00  0.00    +0.000 HD
ENDROOT
BRANCH   4   9
ATOM      9  C   UNL     1      44.758   8.995  11.482  0.00  0.00    +0.000 A 
ATOM     10  C   UNL     1      43.657   9.255  10.644  0.00  0.00    +0.000 A 
ATOM     11  C   UNL     1      43.489  10.499  10.031  0.00  0.00    +0.000 A 
ATOM     12  C   UNL     1      44.412  11.516  10.257  0.00  0.00    +0.000 A 
ATOM     13  C   UNL     1      45.493  11.295  11.106  0.00  0.00    +0.000 A 
ATOM     14  C   UNL     1      45.660  10.049  11.716  0.00  0.00    +0.000 A 
ENDBRANCH   4   9
BRANCH   1  15
ATOM     15  C   UNL     1      47.212   4.465  14.768  0.00  0.00    +0.000 C 
BRANCH  15  19
ATOM     16  C   UNL     1      48.726   4.384  18.807  0.00  0.00    +0.000 A 
ATOM     17  C   UNL     1      49.173   5.364  17.914  0.00  0.00    +0.000 A 
ATOM     18  C   UNL     1      48.705   5.379  16.599  0.00  0.00    +0.000 A 
ATOM     19  C   UNL     1      47.791   4.408  16.162  0.00  0.00    +0.000 A 
ATOM     20  C   UNL     1      47.373   3.410  17.054  0.00  0.00    +0.000 A 
ATOM     21  C   UNL     1      47.842   3.393  18.369  0.00  0.00    +0.000 A 
BRANCH  16  23
ATOM     22  N   UNL     1      50.467   4.726  20.467  0.00  0.00    +0.000 N 
ATOM     23  C   UNL     1      49.167   4.371  20.223  0.00  0.00    +0.000 C 
ATOM     24  O   UNL     1      48.399   4.102  21.139  0.00  0.00    +0.000 OA
ATOM     25  H   UNL     1      50.730   4.827  21.438  0.00  0.00    +0.000 HD
ATOM     26  H   UNL     1      51.029   5.202  19.775  0.00  0.00    +0.000 HD
ENDBRANCH  16  23
ENDBRANCH  15  19
ENDBRANCH   1  15
TORSDOF 4
ENDMDL
