MODEL 1
REMARK VINA RESULT:    -7.999      0.000      0.000
REMARK INTER + INTRA:         -11.348
REMARK INTER:                 -10.571
REMARK INTRA:                  -0.777
REMARK UNBOUND:                -0.777
REMARK  Name = 
REMARK  6 active torsions:
REMARK  status: ('A' for Active; 'I' for Inactive)
REMARK    1  A    between atoms: N_1  and  C_2
REMARK    2  A    between atoms: C_2  and  C_3
REMARK    3  A    between atoms: C_3  and  C_4
REMARK    4  A    between atoms: C_7  and  C_8
REMARK    5  A    between atoms: C_8  and  N_9
REMARK    6  A    between atoms: C_14  and  C_15
REMARK                            x       y       z     vdW  Elec       q    Type
REMARK                         _______ _______ _______ _____ _____    ______ ____
ROOT
ATOM      1  N   UNL     1      43.675   4.203  10.408  0.00  0.00    +0.000 N 
ATOM      2  N   UNL     1      43.159   3.122  11.032  0.00  0.00    +0.000 NA
ATOM      3  N   UNL     1      43.794   2.061  10.552  0.00  0.00    +0.000 NA
ATOM      4  C   UNL     1      44.630   2.479   9.554  0.00  0.00    +0.000 A 
ATOM      5  C   UNL     1      45.595   1.788   8.816  0.00  0.00    +0.000 A 
ATOM      6  C   UNL     1      46.326   2.480   7.833  0.00  0.00    +0.000 A 
ATOM      7  C   UNL     1      46.034   3.826   7.555  0.00  0.00    +0.000 A 
ATOM      8  C   UNL     1      45.090   4.540   8.308  0.00  0.00    +0.000 A 
ATOM      9  C   UNL     1      44.447   3.836   9.333  0.00  0.00    +0.000 A 
ENDROOT
BRANCH   6  10
ATOM     10  C   UNL     1      47.436   1.733   7.172  0.00  0.00    +0.000 C 
ATOM     11  N   UNL     1      48.395   2.433   6.495  0.00  0.00    +0.000 N 
ATOM     12  O   UNL     1      47.515   0.512   7.243  0.00  0.00    +0.000 OA
ATOM     13  H   UNL     1      48.405   3.429   6.348  0.00  0.00    +0.000 HD
ATOM     14  H   UNL     1      49.138   1.884   6.080  0.00  0.00    +0.000 HD
ENDBRANCH   6  10
BRANCH   1  15
ATOM     15  C   UNL     1      43.742   5.469  11.124  0.00  0.00    +0.000 C 
BRANCH  15  19
ATOM     16  C   UNL     1      47.646   6.253  12.844  0.00  0.00    +0.000 A 
ATOM     17  C   UNL     1      46.839   5.229  13.354  0.00  0.00    +0.000 A 
ATOM     18  C   UNL     1      45.601   4.940  12.771  0.00  0.00    +0.000 A 
ATOM     19  C   UNL     1      45.146   5.668  11.664  0.00  0.00    +0.000 A 
ATOM     20  C   UNL     1      45.969   6.678  11.141  0.00  0.00    +0.000 A 
ATOM     21  C   UNL     1      47.207   6.964  11.722  0.00  0.00    +0.000 A 
BRANCH  16  22
ATOM     22  C   UNL     1      48.962   6.595  13.502  0.00  0.00    +0.000 C 
BRANCH  22  23
ATOM     23  C   UNL     1      48.801   6.931  14.987  0.00  0.00    +0.000 C 
BRANCH  23  24
ATOM     24  N   UNL     1      49.443   5.919  15.829  0.00  0.00    +0.000 NA
ATOM     25  H   UNL     1      49.767   6.356  16.691  0.00  0.00    +0.000 HD
ATOM     26  H   UNL     1      50.269   5.556  15.362  0.00  0.00    +0.000 HD
ENDBRANCH  23  24
ENDBRANCH  22  23
ENDBRANCH  16  22
ENDBRANCH  15  19
ENDBRANCH   1  15
TORSDOF 6
ENDMDL
MODEL 2
REMARK VINA RESULT:    -7.721      2.525      6.361
REMARK INTER + INTRA:         -10.980
REMARK INTER:                 -10.473
REMARK INTRA:                  -0.507
REMARK UNBOUND:                -0.777
REMARK  Name = 
REMARK  6 active torsions:
REMARK  status: ('A' for Active; 'I' for Inactive)
REMARK    1  A    between atoms: N_1  and  C_2
REMARK    2  A    between atoms: C_2  and  C_3
REMARK    3  A    between atoms: C_3  and  C_4
REMARK    4  A    between atoms: C_7  and  C_8
REMARK    5  A    between atoms: C_8  and  N_9
REMARK    6  A    between atoms: C_14  and  C_15
REMARK                            x       y       z     vdW  Elec       q    Type
REMARK                         _______ _______ _______ _____ _____    ______ ____
ROOT
ATOM      1  N   UNL     1      43.671   5.148  11.842  0.00  0.00    +0.000 N 
ATOM      2  N   UNL     1      43.172   6.312  11.372  0.00  0.00    +0.000 NA
ATOM      3  N   UNL     1      44.125   7.225  11.512  0.00  0.00    +0.000 NA
ATOM      4  C   UNL     1      45.177   6.645  12.166  0.00  0.00    +0.000 A 
ATOM      5  C   UNL     1      46.458   7.128  12.451  0.00  0.00    +0.000 A 
ATOM      6  C   UNL     1      47.358   6.302  13.149  0.00  0.00    +0.000 A 
ATOM      7  C   UNL     1      46.944   5.040  13.609  0.00  0.00    +0.000 A 
ATOM      8  C   UNL     1      45.674   4.530  13.303  0.00  0.00    +0.000 A 
ATOM      9  C   UNL     1      44.840   5.351  12.534  0.00  0.00    +0.000 A 
ENDROOT
BRANCH   6  10
ATOM     10  C   UNL     1      48.752   6.810  13.306  0.00  0.00    +0.000 C 
ATOM     11  N   UNL     1      49.331   7.490  12.273  0.00  0.00    +0.000 N 
ATOM     12  O   UNL     1      49.376   6.648  14.349  0.00  0.00    +0.000 OA
ATOM     13  H   UNL     1      48.921   7.647  11.367  0.00  0.00    +0.000 HD
ATOM     14  H   UNL     1      50.271   7.831  12.435  0.00  0.00    +0.000 HD
ENDBRANCH   6  10
BRANCH   1  15
ATOM     15  C   UNL     1      43.232   3.897  11.241  0.00  0.00    +0.000 C 
BRANCH  15  19
ATOM     16  C   UNL     1      45.652   2.790   7.817  0.00  0.00    +0.000 A 
ATOM     17  C   UNL     1      45.324   4.131   8.050  0.00  0.00    +0.000 A 
ATOM     18  C   UNL     1      44.586   4.499   9.179  0.00  0.00    +0.000 A 
ATOM     19  C   UNL     1      44.163   3.531  10.101  0.00  0.00    +0.000 A 
ATOM     20  C   UNL     1      44.515   2.191   9.876  0.00  0.00    +0.000 A 
ATOM     21  C   UNL     1      45.255   1.825   8.749  0.00  0.00    +0.000 A 
BRANCH  16  22
ATOM     22  C   UNL     1      46.409   2.388   6.573  0.00  0.00    +0.000 C 
BRANCH  22  23
ATOM     23  C   UNL     1      47.893   2.134   6.852  0.00  0.00    +0.000 C 
BRANCH  23  24
ATOM     24  N   UNL     1      48.609   1.788   5.621  0.00  0.00    +0.000 NA
ATOM     25  H   UNL     1      48.396   2.479   4.903  0.00  0.00    +0.000 HD
ATOM     26  H   UNL     1      48.278   0.894   5.269  0.00  0.00    +0.000 HD
ENDBRANCH  23  24
ENDBRANCH  22  23
ENDBRANCH  16  22
ENDBRANCH  15  19
ENDBRANCH   1  15
TORSDOF 6
ENDMDL
MODEL 3
REMARK VINA RESULT:    -7.510      3.030      7.032
REMARK INTER + INTRA:         -10.701
REMARK INTER:                 -10.185
REMARK INTRA:                  -0.516
REMARK UNBOUND:                -0.777
REMARK  Name = 
REMARK  6 active torsions:
REMARK  status: ('A' for Active; 'I' for Inactive)
REMARK    1  A    between atoms: N_1  and  C_2
REMARK    2  A    between atoms: C_2  and  C_3
REMARK    3  A    between atoms: C_3  and  C_4
REMARK    4  A    between atoms: C_7  and  C_8
REMARK    5  A    between atoms: C_8  and  N_9
REMARK    6  A    between atoms: C_14  and  C_15
REMARK                            x       y       z     vdW  Elec       q    Type
REMARK                         _______ _______ _______ _____ _____    ______ ____
ROOT
ATOM      1  N   UNL     1      45.831   4.373  12.411  0.00  0.00    +0.000 N 
ATOM      2  N   UNL     1      46.019   3.412  13.341  0.00  0.00    +0.000 NA
ATOM      3  N   UNL     1      46.723   3.959  14.324  0.00  0.00    +0.000 NA
ATOM      4  C   UNL     1      47.059   5.231  13.950  0.00  0.00    +0.000 A 
ATOM      5  C   UNL     1      47.685   6.260  14.660  0.00  0.00    +0.000 A 
ATOM      6  C   UNL     1      47.910   7.492  14.018  0.00  0.00    +0.000 A 
ATOM      7  C   UNL     1      47.571   7.653  12.664  0.00  0.00    +0.000 A 
ATOM      8  C   UNL     1      46.915   6.640  11.949  0.00  0.00    +0.000 A 
ATOM      9  C   UNL     1      46.634   5.462  12.650  0.00  0.00    +0.000 A 
ENDROOT
BRANCH   6  10
ATOM     10  C   UNL     1      48.453   8.598  14.859  0.00  0.00    +0.000 C 
ATOM     11  N   UNL     1      47.620   9.241  15.729  0.00  0.00    +0.000 N 
ATOM     12  O   UNL     1      49.634   8.923  14.800  0.00  0.00    +0.000 OA
ATOM     13  H   UNL     1      46.632   9.076  15.831  0.00  0.00    +0.000 HD
ATOM     14  H   UNL     1      48.039   9.971  16.292  0.00  0.00    +0.000 HD
ENDBRANCH   6  10
BRANCH   1  15
ATOM     15  C   UNL     1      44.610   4.362  11.619  0.00  0.00    +0.000 C 
BRANCH  15  19
ATOM     16  C   UNL     1      45.816   3.081   7.654  0.00  0.00    +0.000 A 
ATOM     17  C   UNL     1      45.292   2.159   8.569  0.00  0.00    +0.000 A 
ATOM     18  C   UNL     1      44.856   2.576   9.830  0.00  0.00    +0.000 A 
ATOM     19  C   UNL     1      44.932   3.925  10.202  0.00  0.00    +0.000 A 
ATOM     20  C   UNL     1      45.435   4.850   9.273  0.00  0.00    +0.000 A 
ATOM     21  C   UNL     1      45.867   4.433   8.011  0.00  0.00    +0.000 A 
BRANCH  16  22
ATOM     22  C   UNL     1      46.329   2.623   6.309  0.00  0.00    +0.000 C 
BRANCH  22  23
ATOM     23  C   UNL     1      47.421   1.558   6.435  0.00  0.00    +0.000 C 
BRANCH  23  24
ATOM     24  N   UNL     1      48.555   1.859   5.559  0.00  0.00    +0.000 NA
ATOM     25  H   UNL     1      49.223   1.090   5.597  0.00  0.00    +0.000 HD
ATOM     26  H   UNL     1      49.044   2.683   5.898  0.00  0.00    +0.000 HD
ENDBRANCH  23  24
ENDBRANCH  22  23
ENDBRANCH  16  22
ENDBRANCH  15  19
ENDBRANCH   1  15
TORSDOF 6
ENDMDL
MODEL 4
REMARK VINA RESULT:    -6.341      2.425      3.859
REMARK INTER + INTRA:          -9.157
REMARK INTER:                  -8.528
REMARK INTRA:                  -0.628
REMARK UNBOUND:                -0.777
REMARK  Name = 
REMARK  6 active torsions:
REMARK  status: ('A' for Active; 'I' for Inactive)
REMARK    1  A    between atoms: N_1  and  C_2
REMARK    2  A    between atoms: C_2  and  C_3
REMARK    3  A    between atoms: C_3  and  C_4
REMARK    4  A    between atoms: C_7  and  C_8
REMARK    5  A    between atoms: C_8  and  N_9
REMARK    6  A    between atoms: C_14  and  C_15
REMARK                            x       y       z     vdW  Elec       q    Type
REMARK                         _______ _______ _______ _____ _____    ______ ____
ROOT
ATOM      1  N   UNL     1      44.288   4.027  11.012  0.00  0.00    +0.000 N 
ATOM      2  N   UNL     1      43.459   2.982  11.220  0.00  0.00    +0.000 NA
ATOM      3  N   UNL     1      43.737   2.077  10.290  0.00  0.00    +0.000 NA
ATOM      4  C   UNL     1      44.669   2.610   9.442  0.00  0.00    +0.000 A 
ATOM      5  C   UNL     1      45.378   2.037   8.383  0.00  0.00    +0.000 A 
ATOM      6  C   UNL     1      46.295   2.831   7.669  0.00  0.00    +0.000 A 
ATOM      7  C   UNL     1      46.436   4.194   7.977  0.00  0.00    +0.000 A 
ATOM      8  C   UNL     1      45.755   4.774   9.058  0.00  0.00    +0.000 A 
ATOM      9  C   UNL     1      44.917   3.929   9.794  0.00  0.00    +0.000 A 
ENDROOT
BRANCH   6  10
ATOM     10  C   UNL     1      47.124   2.137   6.640  0.00  0.00    +0.000 C 
ATOM     11  N   UNL     1      47.868   2.886   5.773  0.00  0.00    +0.000 N 
ATOM     12  O   UNL     1      47.167   0.914   6.574  0.00  0.00    +0.000 OA
ATOM     13  H   UNL     1      47.878   3.891   5.721  0.00  0.00    +0.000 HD
ATOM     14  H   UNL     1      48.429   2.370   5.106  0.00  0.00    +0.000 HD
ENDBRANCH   6  10
BRANCH   1  15
ATOM     15  C   UNL     1      44.739   4.810  12.153  0.00  0.00    +0.000 C 
BRANCH  15  19
ATOM     16  C   UNL     1      44.082   8.978  11.148  0.00  0.00    +0.000 A 
ATOM     17  C   UNL     1      43.075   8.030  10.934  0.00  0.00    +0.000 A 
ATOM     18  C   UNL     1      43.264   6.694  11.302  0.00  0.00    +0.000 A 
ATOM     19  C   UNL     1      44.464   6.280  11.895  0.00  0.00    +0.000 A 
ATOM     20  C   UNL     1      45.462   7.239  12.130  0.00  0.00    +0.000 A 
ATOM     21  C   UNL     1      45.271   8.574  11.765  0.00  0.00    +0.000 A 
BRANCH  16  22
ATOM     22  C   UNL     1      43.895  10.412  10.709  0.00  0.00    +0.000 C 
BRANCH  22  23
ATOM     23  C   UNL     1      43.052  10.524   9.436  0.00  0.00    +0.000 C 
BRANCH  23  24
ATOM     24  N   UNL     1      41.792  11.224   9.698  0.00  0.00    +0.000 NA
ATOM     25  H   UNL     1      41.828  12.151   9.276  0.00  0.00    +0.000 HD
ATOM     26  H   UNL     1      41.678  11.366  10.697  0.00  0.00    +0.000 HD
ENDBRANCH  23  24
ENDBRANCH  22  23
ENDBRANCH  16  22
ENDBRANCH  15  19
ENDBRANCH   1  15
TORSDOF 6
ENDMDL
MODEL 5
REMARK VINA RESULT:    -6.330      1.881      2.338
REMARK INTER + INTRA:          -9.142
REMARK INTER:                  -8.423
REMARK INTRA:                  -0.719
REMARK UNBOUND:                -0.777
REMARK  Name = 
REMARK  6 active torsions:
REMARK  status: ('A' for Active; 'I' for Inactive)
REMARK    1  A    between atoms: N_1  and  C_2
REMARK    2  A    between atoms: C_2  and  C_3
REMARK    3  A    between atoms: C_3  and  C_4
REMARK    4  A    between atoms: C_7  and  C_8
REMARK    5  A    between atoms: C_8  and  N_9
REMARK    6  A    between atoms: C_14  and  C_15
REMARK                            x       y       z     vdW  Elec       q    Type
REMARK                         _______ _______ _______ _____ _____    ______ ____
ROOT
ATOM      1  N   UNL     1      43.409   4.463  12.222  0.00  0.00    +0.000 N 
ATOM      2  N   UNL     1      43.372   3.364  13.007  0.00  0.00    +0.000 NA
ATOM      3  N   UNL     1      43.957   2.385  12.328  0.00  0.00    +0.000 NA
ATOM      4  C   UNL     1      44.261   2.856  11.080  0.00  0.00    +0.000 A 
ATOM      5  C   UNL     1      44.981   2.275  10.032  0.00  0.00    +0.000 A 
ATOM      6  C   UNL     1      45.146   2.998   8.836  0.00  0.00    +0.000 A 
ATOM      7  C   UNL     1      44.534   4.254   8.681  0.00  0.00    +0.000 A 
ATOM      8  C   UNL     1      43.835   4.861   9.735  0.00  0.00    +0.000 A 
ATOM      9  C   UNL     1      43.767   4.144  10.935  0.00  0.00    +0.000 A 
ENDROOT
BRANCH   6  10
ATOM     10  C   UNL     1      46.037   2.393   7.803  0.00  0.00    +0.000 C 
ATOM     11  N   UNL     1      46.486   1.115   7.981  0.00  0.00    +0.000 N 
ATOM     12  O   UNL     1      46.352   3.010   6.792  0.00  0.00    +0.000 OA
ATOM     13  H   UNL     1      46.315   0.536   8.786  0.00  0.00    +0.000 HD
ATOM     14  H   UNL     1      47.072   0.742   7.244  0.00  0.00    +0.000 HD
ENDBRANCH   6  10
BRANCH   1  15
ATOM     15  C   UNL     1      43.515   5.774  12.846  0.00  0.00    +0.000 C 
BRANCH  15  19
ATOM     16  C   UNL     1      47.742   6.748  12.878  0.00  0.00    +0.000 A 
ATOM     17  C   UNL     1      46.811   7.647  12.342  0.00  0.00    +0.000 A 
ATOM     18  C   UNL     1      45.443   7.359  12.375  0.00  0.00    +0.000 A 
ATOM     19  C   UNL     1      44.977   6.167  12.946  0.00  0.00    +0.000 A 
ATOM     20  C   UNL     1      45.912   5.281  13.504  0.00  0.00    +0.000 A 
ATOM     21  C   UNL     1      47.279   5.571  13.474  0.00  0.00    +0.000 A 
BRANCH  16  22
ATOM     22  C   UNL     1      49.222   7.039  12.802  0.00  0.00    +0.000 C 
BRANCH  22  23
ATOM     23  C   UNL     1      49.640   7.577  11.431  0.00  0.00    +0.000 C 
BRANCH  23  24
ATOM     24  N   UNL     1      50.106   8.963  11.528  0.00  0.00    +0.000 NA
ATOM     25  H   UNL     1      50.023   9.410  10.616  0.00  0.00    +0.000 HD
ATOM     26  H   UNL     1      51.093   8.979  11.769  0.00  0.00    +0.000 HD
ENDBRANCH  23  24
ENDBRANCH  22  23
ENDBRANCH  16  22
ENDBRANCH  15  19
ENDBRANCH   1  15
TORSDOF 6
ENDMDL
MODEL 6
REMARK VINA RESULT:    -5.951      3.835      7.803
REMARK INTER + INTRA:          -8.641
REMARK INTER:                  -8.749
REMARK INTRA:                   0.108
REMARK UNBOUND:                -0.777
REMARK  Name = 
REMARK  6 active torsions:
REMARK  status: ('A' for Active; 'I' for Inactive)
REMARK    1  A    between atoms: N_1  and  C_2
REMARK    2  A    between atoms: C_2  and  C_3
REMARK    3  A    between atoms: C_3  and  C_4
REMARK    4  A    between atoms: C_7  and  C_8
REMARK    5  A    between atoms: C_8  and  N_9
REMARK    6  A    between atoms: C_14  and  C_15
REMARK                            x       y       z     vdW  Elec       q    Type
REMARK                         _______ _______ _______ _____ _____    ______ ____
ROOT
ATOM      1  N   UNL     1      46.989   4.831  14.097  0.00  0.00    +0.000 N 
ATOM      2  N   UNL     1      47.005   3.521  13.768  0.00  0.00    +0.000 NA
ATOM      3  N   UNL     1      47.550   2.873  14.790  0.00  0.00    +0.000 NA
ATOM      4  C   UNL     1      47.967   3.799  15.707  0.00  0.00    +0.000 A 
ATOM      5  C   UNL     1      48.489   3.643  16.995  0.00  0.00    +0.000 A 
ATOM      6  C   UNL     1      48.838   4.789  17.731  0.00  0.00    +0.000 A 
ATOM      7  C   UNL     1      48.727   6.063  17.148  0.00  0.00    +0.000 A 
ATOM      8  C   UNL     1      48.176   6.236  15.869  0.00  0.00    +0.000 A 
ATOM      9  C   UNL     1      47.763   5.075  15.205  0.00  0.00    +0.000 A 
ENDROOT
BRANCH   6  10
ATOM     10  C   UNL     1      49.259   4.576  19.147  0.00  0.00    +0.000 C 
ATOM     11  N   UNL     1      48.304   4.335  20.094  0.00  0.00    +0.000 N 
ATOM     12  O   UNL     1      50.441   4.590  19.470  0.00  0.00    +0.000 OA
ATOM     13  H   UNL     1      47.309   4.336  19.942  0.00  0.00    +0.000 HD
ATOM     14  H   UNL     1      48.641   4.177  21.036  0.00  0.00    +0.000 HD
ENDBRANCH   6  10
BRANCH   1  15
ATOM     15  C   UNL     1      45.913   5.673  13.595  0.00  0.00    +0.000 C 
BRANCH  15  19
ATOM     16  C   UNL     1      45.111   4.269   9.571  0.00  0.00    +0.000 A 
ATOM     17  C   UNL     1      44.607   3.575  10.678  0.00  0.00    +0.000 A 
ATOM     18  C   UNL     1      44.821   4.051  11.975  0.00  0.00    +0.000 A 
ATOM     19  C   UNL     1      45.541   5.234  12.192  0.00  0.00    +0.000 A 
ATOM     20  C   UNL     1      46.023   5.939  11.078  0.00  0.00    +0.000 A 
ATOM     21  C   UNL     1      45.806   5.464   9.782  0.00  0.00    +0.000 A 
BRANCH  16  22
ATOM     22  C   UNL     1      44.919   3.730   8.173  0.00  0.00    +0.000 C 
BRANCH  22  23
ATOM     23  C   UNL     1      46.211   3.151   7.590  0.00  0.00    +0.000 C 
BRANCH  23  24
ATOM     24  N   UNL     1      46.827   4.085   6.644  0.00  0.00    +0.000 NA
ATOM     25  H   UNL     1      46.744   5.034   7.007  0.00  0.00    +0.000 HD
ATOM     26  H   UNL     1      46.322   4.068   5.763  0.00  0.00    +0.000 HD
ENDBRANCH  23  24
ENDBRANCH  22  23
ENDBRANCH  16  22
ENDBRANCH  15  19
ENDBRANCH   1  15
TORSDOF 6
ENDMDL
MODEL 7
REMARK VINA RESULT:    -5.687      3.983      6.675
REMARK INTER + INTRA:          -8.293
REMARK INTER:                  -7.793
REMARK INTRA:                  -0.500
REMARK UNBOUND:                -0.777
REMARK  Name = 
REMARK  6 active torsions:
REMARK  status: ('A' for Active; 'I' for Inactive)
REMARK    1  A    between atoms: N_1  and  C_2
REMARK    2  A    between atoms: C_2  and  C_3
REMARK    3  A    between atoms: C_3  and  C_4
REMARK    4  A    between atoms: C_7  and  C_8
REMARK    5  A    between atoms: C_8  and  N_9
REMARK    6  A    between atoms: C_14  and  C_15
REMARK                            x       y       z     vdW  Elec       q    Type
REMARK                         _______ _______ _______ _____ _____    ______ ____
ROOT
ATOM      1  N   UNL     1      48.075   5.589  15.099  0.00  0.00    +0.000 N 
ATOM      2  N   UNL     1      48.761   6.693  14.731  0.00  0.00    +0.000 NA
ATOM      3  N   UNL     1      48.234   7.111  13.588  0.00  0.00    +0.000 NA
ATOM      4  C   UNL     1      47.290   6.202  13.196  0.00  0.00    +0.000 A 
ATOM      5  C   UNL     1      46.373   6.230  12.141  0.00  0.00    +0.000 A 
ATOM      6  C   UNL     1      45.499   5.140  11.970  0.00  0.00    +0.000 A 
ATOM      7  C   UNL     1      45.602   4.016  12.806  0.00  0.00    +0.000 A 
ATOM      8  C   UNL     1      46.496   3.988  13.887  0.00  0.00    +0.000 A 
ATOM      9  C   UNL     1      47.287   5.128  14.073  0.00  0.00    +0.000 A 
ENDROOT
BRANCH   6  10
ATOM     10  C   UNL     1      44.451   5.280  10.917  0.00  0.00    +0.000 C 
ATOM     11  N   UNL     1      43.599   6.346  10.967  0.00  0.00    +0.000 N 
ATOM     12  O   UNL     1      44.355   4.471  10.002  0.00  0.00    +0.000 OA
ATOM     13  H   UNL     1      43.571   7.046  11.691  0.00  0.00    +0.000 HD
ATOM     14  H   UNL     1      42.917   6.408  10.221  0.00  0.00    +0.000 HD
ENDBRANCH   6  10
BRANCH   1  15
ATOM     15  C   UNL     1      47.897   5.307  16.516  0.00  0.00    +0.000 C 
BRANCH  15  19
ATOM     16  C   UNL     1      51.315   2.892  17.655  0.00  0.00    +0.000 A 
ATOM     17  C   UNL     1      51.383   4.290  17.712  0.00  0.00    +0.000 A 
ATOM     18  C   UNL     1      50.268   5.071  17.394  0.00  0.00    +0.000 A 
ATOM     19  C   UNL     1      49.060   4.470  17.014  0.00  0.00    +0.000 A 
ATOM     20  C   UNL     1      48.989   3.069  16.981  0.00  0.00    +0.000 A 
ATOM     21  C   UNL     1      50.103   2.289  17.303  0.00  0.00    +0.000 A 
BRANCH  16  22
ATOM     22  C   UNL     1      52.533   2.050  17.955  0.00  0.00    +0.000 C 
BRANCH  22  23
ATOM     23  C   UNL     1      52.290   0.562  17.692  0.00  0.00    +0.000 C 
BRANCH  23  24
ATOM     24  N   UNL     1      53.245  -0.267  18.432  0.00  0.00    +0.000 NA
ATOM     25  H   UNL     1      53.710   0.304  19.137  0.00  0.00    +0.000 HD
ATOM     26  H   UNL     1      53.972  -0.599  17.805  0.00  0.00    +0.000 HD
ENDBRANCH  23  24
ENDBRANCH  22  23
ENDBRANCH  16  22
ENDBRANCH  15  19
ENDBRANCH   1  15
TORSDOF 6
ENDMDL
MODEL 8
REMARK VINA RESULT:    -5.636      3.467      7.239
REMARK INTER + INTRA:          -8.225
REMARK INTER:                  -7.634
REMARK INTRA:                  -0.590
REMARK UNBOUND:                -0.777
REMARK  Name = 
REMARK  6 active torsions:
REMARK  status: ('A' for Active; 'I' for Inactive)
REMARK    1  A    between atoms: N_1  and  C_2
REMARK    2  A    between atoms: C_2  and  C_3
REMARK    3  A    between atoms: C_3  and  C_4
REMARK    4  A    between atoms: C_7  and  C_8
REMARK    5  A    between atoms: C_8  and  N_9
REMARK    6  A    between atoms: C_14  and  C_15
REMARK                            x       y       z     vdW  Elec       q    Type
REMARK                         _______ _______ _______ _____ _____    ______ ____
ROOT
ATOM      1  N   UNL     1      46.883   5.841  13.164  0.00  0.00    +0.000 N 
ATOM      2  N   UNL     1      47.208   5.052  14.211  0.00  0.00    +0.000 NA
ATOM      3  N   UNL     1      48.240   5.623  14.819  0.00  0.00    +0.000 NA
ATOM      4  C   UNL     1      48.618   6.712  14.083  0.00  0.00    +0.000 A 
ATOM      5  C   UNL     1      49.560   7.712  14.343  0.00  0.00    +0.000 A 
ATOM      6  C   UNL     1      49.748   8.734  13.395  0.00  0.00    +0.000 A 
ATOM      7  C   UNL     1      49.046   8.704  12.177  0.00  0.00    +0.000 A 
ATOM      8  C   UNL     1      48.076   7.725  11.917  0.00  0.00    +0.000 A 
ATOM      9  C   UNL     1      47.860   6.776  12.923  0.00  0.00    +0.000 A 
ENDROOT
BRANCH   6  10
ATOM     10  C   UNL     1      50.662   9.849  13.781  0.00  0.00    +0.000 C 
ATOM     11  N   UNL     1      51.469  10.404  12.829  0.00  0.00    +0.000 N 
ATOM     12  O   UNL     1      50.685  10.287  14.925  0.00  0.00    +0.000 OA
ATOM     13  H   UNL     1      51.552  10.098  11.874  0.00  0.00    +0.000 HD
ATOM     14  H   UNL     1      52.057  11.170  13.135  0.00  0.00    +0.000 HD
ENDBRANCH   6  10
BRANCH   1  15
ATOM     15  C   UNL     1      45.491   5.923  12.745  0.00  0.00    +0.000 C 
BRANCH  15  19
ATOM     16  C   UNL     1      45.215   3.476   9.175  0.00  0.00    +0.000 A 
ATOM     17  C   UNL     1      44.870   2.948  10.425  0.00  0.00    +0.000 A 
ATOM     18  C   UNL     1      44.910   3.747  11.572  0.00  0.00    +0.000 A 
ATOM     19  C   UNL     1      45.293   5.093  11.490  0.00  0.00    +0.000 A 
ATOM     20  C   UNL     1      45.615   5.624  10.232  0.00  0.00    +0.000 A 
ATOM     21  C   UNL     1      45.571   4.826   9.086  0.00  0.00    +0.000 A 
BRANCH  16  22
ATOM     22  C   UNL     1      45.216   2.600   7.944  0.00  0.00    +0.000 C 
BRANCH  22  23
ATOM     23  C   UNL     1      46.324   1.544   7.981  0.00  0.00    +0.000 C 
BRANCH  23  24
ATOM     24  N   UNL     1      47.305   1.771   6.918  0.00  0.00    +0.000 NA
ATOM     25  H   UNL     1      46.817   1.933   6.039  0.00  0.00    +0.000 HD
ATOM     26  H   UNL     1      47.870   0.937   6.786  0.00  0.00    +0.000 HD
ENDBRANCH  23  24
ENDBRANCH  22  23
ENDBRANCH  16  22
ENDBRANCH  15  19
ENDBRANCH   1  15
TORSDOF 6
ENDMDL
MODEL 9
REMARK VINA RESULT:    -5.620      3.269      5.406
REMARK INTER + INTRA:          -8.203
REMARK INTER:                  -7.550
REMARK INTRA:                  -0.654
REMARK UNBOUND:                -0.777
REMARK  Name = 
REMARK  6 active torsions:
REMARK  status: ('A' for Active; 'I' for Inactive)
REMARK    1  A    between atoms: N_1  and  C_2
REMARK    2  A    between atoms: C_2  and  C_3
REMARK    3  A    between atoms: C_3  and  C_4
REMARK    4  A    between atoms: C_7  and  C_8
REMARK    5  A    between atoms: C_8  and  N_9
REMARK    6  A    between atoms: C_14  and  C_15
REMARK                            x       y       z     vdW  Elec       q    Type
REMARK                         _______ _______ _______ _____ _____    ______ ____
ROOT
ATOM      1  N   UNL     1      47.344   7.165  13.655  0.00  0.00    +0.000 N 
ATOM      2  N   UNL     1      48.024   6.164  14.255  0.00  0.00    +0.000 NA
ATOM      3  N   UNL     1      47.538   5.026  13.777  0.00  0.00    +0.000 NA
ATOM      4  C   UNL     1      46.484   5.324  12.958  0.00  0.00    +0.000 A 
ATOM      5  C   UNL     1      45.712   4.509  12.124  0.00  0.00    +0.000 A 
ATOM      6  C   UNL     1      44.672   5.092  11.377  0.00  0.00    +0.000 A 
ATOM      7  C   UNL     1      44.375   6.457  11.526  0.00  0.00    +0.000 A 
ATOM      8  C   UNL     1      45.161   7.292  12.335  0.00  0.00    +0.000 A 
ATOM      9  C   UNL     1      46.238   6.688  12.994  0.00  0.00    +0.000 A 
ENDROOT
BRANCH   6  10
ATOM     10  C   UNL     1      43.969   4.207  10.401  0.00  0.00    +0.000 C 
ATOM     11  N   UNL     1      44.019   4.516   9.072  0.00  0.00    +0.000 N 
ATOM     12  O   UNL     1      43.371   3.202  10.767  0.00  0.00    +0.000 OA
ATOM     13  H   UNL     1      44.452   5.331   8.671  0.00  0.00    +0.000 HD
ATOM     14  H   UNL     1      43.543   3.875   8.447  0.00  0.00    +0.000 HD
ENDBRANCH   6  10
BRANCH   1  15
ATOM     15  C   UNL     1      48.023   8.427  13.399  0.00  0.00    +0.000 C 
BRANCH  15  19
ATOM     16  C   UNL     1      51.834   7.914  11.393  0.00  0.00    +0.000 A 
ATOM     17  C   UNL     1      51.781   8.425  12.695  0.00  0.00    +0.000 A 
ATOM     18  C   UNL     1      50.559   8.546  13.365  0.00  0.00    +0.000 A 
ATOM     19  C   UNL     1      49.364   8.155  12.745  0.00  0.00    +0.000 A 
ATOM     20  C   UNL     1      49.425   7.620  11.448  0.00  0.00    +0.000 A 
ATOM     21  C   UNL     1      50.647   7.497  10.782  0.00  0.00    +0.000 A 
BRANCH  16  22
ATOM     22  C   UNL     1      53.149   7.826  10.654  0.00  0.00    +0.000 C 
BRANCH  22  23
ATOM     23  C   UNL     1      53.186   6.654   9.670  0.00  0.00    +0.000 C 
BRANCH  23  24
ATOM     24  N   UNL     1      53.542   5.406  10.349  0.00  0.00    +0.000 NA
ATOM     25  H   UNL     1      54.240   5.601  11.066  0.00  0.00    +0.000 HD
ATOM     26  H   UNL     1      53.976   4.766   9.691  0.00  0.00    +0.000 HD
ENDBRANCH  23  24
ENDBRANCH  22  23
ENDBRANCH  16  22
ENDBRANCH  15  19
ENDBRANCH   1  15
TORSDOF 6
ENDMDL
