MODEL 1
REMARK VINA RESULT:    -8.226      0.000      0.000
REMARK INTER + INTRA:         -12.048
REMARK INTER:                 -11.592
REMARK INTRA:                  -0.456
REMARK UNBOUND:                -0.456
REMARK  Name = 
REMARK  8 active torsions:
REMARK  status: ('A' for Active; 'I' for Inactive)
REMARK    1  A    between atoms: C_2  and  C_16
REMARK    2  A    between atoms: N_3  and  C_4
REMARK    3  A    between atoms: C_4  and  C_5
REMARK    4  A    between atoms: C_8  and  C_9
REMARK    5  A    between atoms: C_9  and  C_10
REMARK    6  A    between atoms: C_10  and  O_11
REMARK    7  A    between atoms: C_10  and  C_12
REMARK    8  A    between atoms: C_12  and  O_13
REMARK                            x       y       z     vdW  Elec       q    Type
REMARK                         _______ _______ _______ _____ _____    ______ ____
ROOT
ATOM      1  O   UNL     1      46.606   3.280  13.724  0.00  0.00    +0.000 OA
ATOM      2  C   UNL     1      46.430   4.461  14.011  0.00  0.00    +0.000 C 
ATOM      3  N   UNL     1      45.343   5.176  13.586  0.00  0.00    +0.000 N 
ATOM      4  H   UNL     1      45.249   6.155  13.814  0.00  0.00    +0.000 HD
ENDROOT
BRANCH   2   5
ATOM      5  C   UNL     1      47.405   5.224  14.792  0.00  0.00    +0.000 A 
ATOM      6  C   UNL     1      48.173   6.216  14.200  0.00  0.00    +0.000 A 
ATOM      7  S   UNL     1      49.186   7.030  15.311  0.00  0.00    +0.000 S 
ATOM      8  C   UNL     1      48.660   6.047  16.598  0.00  0.00    +0.000 A 
ATOM      9  N   UNL     1      49.131   6.227  17.862  0.00  0.00    +0.000 NA
ATOM     10  C   UNL     1      48.652   5.402  18.733  0.00  0.00    +0.000 A 
ATOM     11  N   UNL     1      47.760   4.396  18.451  0.00  0.00    +0.000 N 
ATOM     12  C   UNL     1      47.287   4.157  17.188  0.00  0.00    +0.000 A 
ATOM     13  O   UNL     1      46.525   3.220  16.967  0.00  0.00    +0.000 OA
ATOM     14  C   UNL     1      47.746   5.100  16.184  0.00  0.00    +0.000 A 
ATOM     15  H   UNL     1      47.438   3.769  19.173  0.00  0.00    +0.000 HD
ENDBRANCH   2   5
BRANCH   3  16
ATOM     16  C   UNL     1      44.244   4.583  12.868  0.00  0.00    +0.000 C 
BRANCH  16  17
ATOM     17  C   UNL     1      44.611   4.270  11.439  0.00  0.00    +0.000 A 
ATOM     18  C   UNL     1      45.232   5.239  10.657  0.00  0.00    +0.000 A 
ATOM     19  C   UNL     1      45.556   4.935   9.339  0.00  0.00    +0.000 A 
ATOM     20  C   UNL     1      45.243   3.677   8.818  0.00  0.00    +0.000 A 
ATOM     21  C   UNL     1      44.610   2.779   9.671  0.00  0.00    +0.000 A 
ATOM     22  N   UNL     1      44.286   3.045  10.957  0.00  0.00    +0.000 NA
BRANCH  20  23
ATOM     23  C   UNL     1      45.612   3.304   7.405  0.00  0.00    +0.000 C 
BRANCH  23  24
ATOM     24  C   UNL     1      46.946   2.552   7.279  0.00  0.00    +0.000 C 
BRANCH  24  25
ATOM     25  O   UNL     1      46.803   1.197   7.718  0.00  0.00    +0.000 OA
ATOM     26  H   UNL     1      46.271   1.193   8.531  0.00  0.00    +0.000 HD
ENDBRANCH  24  25
BRANCH  24  27
ATOM     27  C   UNL     1      47.447   2.569   5.824  0.00  0.00    +0.000 C 
BRANCH  27  28
ATOM     28  O   UNL     1      48.580   1.724   5.639  0.00  0.00    +0.000 OA
ATOM     29  H   UNL     1      48.507   0.977   6.259  0.00  0.00    +0.000 HD
ENDBRANCH  27  28
ENDBRANCH  24  27
ENDBRANCH  23  24
ENDBRANCH  20  23
ENDBRANCH  16  17
ENDBRANCH   3  16
TORSDOF 8
ENDMDL
MODEL 2
REMARK VINA RESULT:    -7.616      1.562      2.010
REMARK INTER + INTRA:         -11.188
REMARK INTER:                 -10.458
REMARK INTRA:                  -0.730
REMARK UNBOUND:                -0.456
REMARK  Name = 
REMARK  8 active torsions:
REMARK  status: ('A' for Active; 'I' for Inactive)
REMARK    1  A    between atoms: C_2  and  C_16
REMARK    2  A    between atoms: N_3  and  C_4
REMARK    3  A    between atoms: C_4  and  C_5
REMARK    4  A    between atoms: C_8  and  C_9
REMARK    5  A    between atoms: C_9  and  C_10
REMARK    6  A    between atoms: C_10  and  O_11
REMARK    7  A    between atoms: C_10  and  C_12
REMARK    8  A    between atoms: C_12  and  O_13
REMARK                            x       y       z     vdW  Elec       q    Type
REMARK                         _______ _______ _______ _____ _____    ______ ____
ROOT
ATOM      1  O   UNL     1      47.382   6.974  11.375  0.00  0.00    +0.000 OA
ATOM      2  C   UNL     1      46.850   6.590  12.413  0.00  0.00    +0.000 C 
ATOM      3  N   UNL     1      45.518   6.287  12.498  0.00  0.00    +0.000 N 
ATOM      4  H   UNL     1      45.108   6.006  13.376  0.00  0.00    +0.000 HD
ENDROOT
BRANCH   2   5
ATOM      5  C   UNL     1      47.591   6.476  13.669  0.00  0.00    +0.000 A 
ATOM      6  C   UNL     1      48.395   7.513  14.119  0.00  0.00    +0.000 A 
ATOM      7  S   UNL     1      49.102   7.198  15.645  0.00  0.00    +0.000 S 
ATOM      8  C   UNL     1      48.391   5.653  15.719  0.00  0.00    +0.000 A 
ATOM      9  N   UNL     1      48.581   4.840  16.793  0.00  0.00    +0.000 NA
ATOM     10  C   UNL     1      47.990   3.694  16.706  0.00  0.00    +0.000 A 
ATOM     11  N   UNL     1      47.245   3.277  15.630  0.00  0.00    +0.000 N 
ATOM     12  C   UNL     1      47.058   4.048  14.514  0.00  0.00    +0.000 A 
ATOM     13  O   UNL     1      46.422   3.623  13.553  0.00  0.00    +0.000 OA
ATOM     14  C   UNL     1      47.647   5.372  14.590  0.00  0.00    +0.000 A 
ATOM     15  H   UNL     1      46.825   2.359  15.613  0.00  0.00    +0.000 HD
ENDBRANCH   2   5
BRANCH   3  16
ATOM     16  C   UNL     1      44.641   6.272  11.354  0.00  0.00    +0.000 C 
BRANCH  16  17
ATOM     17  C   UNL     1      44.813   5.020  10.531  0.00  0.00    +0.000 A 
ATOM     18  C   UNL     1      45.386   5.099   9.266  0.00  0.00    +0.000 A 
ATOM     19  C   UNL     1      45.529   3.935   8.518  0.00  0.00    +0.000 A 
ATOM     20  C   UNL     1      45.086   2.716   9.036  0.00  0.00    +0.000 A 
ATOM     21  C   UNL     1      44.514   2.738  10.304  0.00  0.00    +0.000 A 
ATOM     22  N   UNL     1      44.365   3.853  11.056  0.00  0.00    +0.000 NA
BRANCH  20  23
ATOM     23  C   UNL     1      45.260   1.431   8.266  0.00  0.00    +0.000 C 
BRANCH  23  24
ATOM     24  C   UNL     1      46.717   1.105   7.904  0.00  0.00    +0.000 C 
BRANCH  24  25
ATOM     25  O   UNL     1      46.950  -0.305   7.978  0.00  0.00    +0.000 OA
ATOM     26  H   UNL     1      47.302  -0.513   8.860  0.00  0.00    +0.000 HD
ENDBRANCH  24  25
BRANCH  24  27
ATOM     27  C   UNL     1      47.052   1.606   6.488  0.00  0.00    +0.000 C 
BRANCH  27  28
ATOM     28  O   UNL     1      48.441   1.888   6.336  0.00  0.00    +0.000 OA
ATOM     29  H   UNL     1      48.782   1.353   5.598  0.00  0.00    +0.000 HD
ENDBRANCH  27  28
ENDBRANCH  24  27
ENDBRANCH  23  24
ENDBRANCH  20  23
ENDBRANCH  16  17
ENDBRANCH   3  16
TORSDOF 8
ENDMDL
MODEL 3
REMARK VINA RESULT:    -7.537      1.845      2.831
REMARK INTER + INTRA:         -11.077
REMARK INTER:                 -10.364
REMARK INTRA:                  -0.713
REMARK UNBOUND:                -0.456
REMARK  Name = 
REMARK  8 active torsions:
REMARK  status: ('A' for Active; 'I' for Inactive)
REMARK    1  A    between atoms: C_2  and  C_16
REMARK    2  A    between atoms: N_3  and  C_4
REMARK    3  A    between atoms: C_4  and  C_5
REMARK    4  A    between atoms: C_8  and  C_9
REMARK    5  A    between atoms: C_9  and  C_10
REMARK    6  A    between atoms: C_10  and  O_11
REMARK    7  A    between atoms: C_10  and  C_12
REMARK    8  A    between atoms: C_12  and  O_13
REMARK                            x       y       z     vdW  Elec       q    Type
REMARK                         _______ _______ _______ _____ _____    ______ ____
ROOT
ATOM      1  O   UNL     1      46.790   3.618  14.138  0.00  0.00    +0.000 OA
ATOM      2  C   UNL     1      46.774   4.846  14.114  0.00  0.00    +0.000 C 
ATOM      3  N   UNL     1      45.803   5.564  13.472  0.00  0.00    +0.000 N 
ATOM      4  H   UNL     1      45.840   6.572  13.445  0.00  0.00    +0.000 HD
ENDROOT
BRANCH   2   5
ATOM      5  C   UNL     1      47.833   5.648  14.727  0.00  0.00    +0.000 A 
ATOM      6  C   UNL     1      48.140   5.515  16.073  0.00  0.00    +0.000 A 
ATOM      7  S   UNL     1      49.460   6.488  16.558  0.00  0.00    +0.000 S 
ATOM      8  C   UNL     1      49.623   7.145  14.996  0.00  0.00    +0.000 A 
ATOM      9  N   UNL     1      50.596   8.052  14.710  0.00  0.00    +0.000 NA
ATOM     10  C   UNL     1      50.593   8.471  13.488  0.00  0.00    +0.000 A 
ATOM     11  N   UNL     1      49.689   8.082  12.529  0.00  0.00    +0.000 N 
ATOM     12  C   UNL     1      48.673   7.199  12.783  0.00  0.00    +0.000 A 
ATOM     13  O   UNL     1      47.857   6.911  11.912  0.00  0.00    +0.000 OA
ATOM     14  C   UNL     1      48.674   6.649  14.126  0.00  0.00    +0.000 A 
ATOM     15  H   UNL     1      49.726   8.463  11.596  0.00  0.00    +0.000 HD
ENDBRANCH   2   5
BRANCH   3  16
ATOM     16  C   UNL     1      44.644   4.956  12.870  0.00  0.00    +0.000 C 
BRANCH  16  17
ATOM     17  C   UNL     1      44.911   4.521  11.451  0.00  0.00    +0.000 A 
ATOM     18  C   UNL     1      45.393   5.441  10.526  0.00  0.00    +0.000 A 
ATOM     19  C   UNL     1      45.625   5.024   9.219  0.00  0.00    +0.000 A 
ATOM     20  C   UNL     1      45.360   3.703   8.853  0.00  0.00    +0.000 A 
ATOM     21  C   UNL     1      44.866   2.859   9.843  0.00  0.00    +0.000 A 
ATOM     22  N   UNL     1      44.633   3.235  11.122  0.00  0.00    +0.000 NA
BRANCH  20  23
ATOM     23  C   UNL     1      45.635   3.210   7.455  0.00  0.00    +0.000 C 
BRANCH  23  24
ATOM     24  C   UNL     1      47.002   2.530   7.283  0.00  0.00    +0.000 C 
BRANCH  24  25
ATOM     25  O   UNL     1      46.931   1.153   7.663  0.00  0.00    +0.000 OA
ATOM     26  H   UNL     1      46.016   0.954   7.926  0.00  0.00    +0.000 HD
ENDBRANCH  24  25
BRANCH  24  27
ATOM     27  C   UNL     1      47.483   2.635   5.825  0.00  0.00    +0.000 C 
BRANCH  27  28
ATOM     28  O   UNL     1      48.516   1.696   5.534  0.00  0.00    +0.000 OA
ATOM     29  H   UNL     1      49.370   2.101   5.766  0.00  0.00    +0.000 HD
ENDBRANCH  27  28
ENDBRANCH  24  27
ENDBRANCH  23  24
ENDBRANCH  20  23
ENDBRANCH  16  17
ENDBRANCH   3  16
TORSDOF 8
ENDMDL
MODEL 4
REMARK VINA RESULT:    -7.124      2.340      3.332
REMARK INTER + INTRA:         -10.496
REMARK INTER:                  -9.465
REMARK INTRA:                  -1.031
REMARK UNBOUND:                -0.456
REMARK  Name = 
REMARK  8 active torsions:
REMARK  status: ('A' for Active; 'I' for Inactive)
REMARK    1  A    between atoms: C_2  and  C_16
REMARK    2  A    between atoms: N_3  and  C_4
REMARK    3  A    between atoms: C_4  and  C_5
REMARK    4  A    between atoms: C_8  and  C_9
REMARK    5  A    between atoms: C_9  and  C_10
REMARK    6  A    between atoms: C_10  and  O_11
REMARK    7  A    between atoms: C_10  and  C_12
REMARK    8  A    between atoms: C_12  and  O_13
REMARK                            x       y       z     vdW  Elec       q    Type
REMARK                         _______ _______ _______ _____ _____    ______ ____
ROOT
ATOM      1  O   UNL     1      49.510   6.986  13.590  0.00  0.00    +0.000 OA
ATOM      2  C   UNL     1      48.751   6.954  14.555  0.00  0.00    +0.000 C 
ATOM      3  N   UNL     1      47.524   7.559  14.557  0.00  0.00    +0.000 N 
ATOM      4  H   UNL     1      46.941   7.540  15.381  0.00  0.00    +0.000 HD
ENDROOT
BRANCH   2   5
ATOM      5  C   UNL     1      49.124   6.308  15.814  0.00  0.00    +0.000 A 
ATOM      6  C   UNL     1      50.195   6.772  16.564  0.00  0.00    +0.000 A 
ATOM      7  S   UNL     1      50.402   5.922  18.034  0.00  0.00    +0.000 S 
ATOM      8  C   UNL     1      49.098   4.884  17.682  0.00  0.00    +0.000 A 
ATOM      9  N   UNL     1      48.717   3.910  18.553  0.00  0.00    +0.000 NA
ATOM     10  C   UNL     1      47.720   3.194  18.149  0.00  0.00    +0.000 A 
ATOM     11  N   UNL     1      47.083   3.348  16.942  0.00  0.00    +0.000 N 
ATOM     12  C   UNL     1      47.456   4.292  16.022  0.00  0.00    +0.000 A 
ATOM     13  O   UNL     1      46.891   4.369  14.934  0.00  0.00    +0.000 OA
ATOM     14  C   UNL     1      48.530   5.166  16.456  0.00  0.00    +0.000 A 
ATOM     15  H   UNL     1      46.322   2.741  16.675  0.00  0.00    +0.000 HD
ENDBRANCH   2   5
BRANCH   3  16
ATOM     16  C   UNL     1      46.954   8.184  13.390  0.00  0.00    +0.000 C 
BRANCH  16  17
ATOM     17  C   UNL     1      46.162   7.206  12.560  0.00  0.00    +0.000 A 
ATOM     18  C   UNL     1      46.710   6.690  11.390  0.00  0.00    +0.000 A 
ATOM     19  C   UNL     1      45.960   5.796  10.633  0.00  0.00    +0.000 A 
ATOM     20  C   UNL     1      44.674   5.441  11.046  0.00  0.00    +0.000 A 
ATOM     21  C   UNL     1      44.206   6.018  12.222  0.00  0.00    +0.000 A 
ATOM     22  N   UNL     1      44.912   6.888  12.981  0.00  0.00    +0.000 NA
BRANCH  20  23
ATOM     23  C   UNL     1      43.851   4.447  10.267  0.00  0.00    +0.000 C 
BRANCH  23  24
ATOM     24  C   UNL     1      44.366   3.001  10.346  0.00  0.00    +0.000 C 
BRANCH  24  25
ATOM     25  O   UNL     1      43.401   2.157  10.980  0.00  0.00    +0.000 OA
ATOM     26  H   UNL     1      42.596   2.678  11.143  0.00  0.00    +0.000 HD
ENDBRANCH  24  25
BRANCH  24  27
ATOM     27  C   UNL     1      44.679   2.457   8.941  0.00  0.00    +0.000 C 
BRANCH  27  28
ATOM     28  O   UNL     1      44.349   3.395   7.919  0.00  0.00    +0.000 OA
ATOM     29  H   UNL     1      44.241   2.908   7.083  0.00  0.00    +0.000 HD
ENDBRANCH  27  28
ENDBRANCH  24  27
ENDBRANCH  23  24
ENDBRANCH  20  23
ENDBRANCH  16  17
ENDBRANCH   3  16
TORSDOF 8
ENDMDL
MODEL 5
REMARK VINA RESULT:    -6.667      3.838      8.526
REMARK INTER + INTRA:          -9.851
REMARK INTER:                  -9.147
REMARK INTRA:                  -0.704
REMARK UNBOUND:                -0.456
REMARK  Name = 
REMARK  8 active torsions:
REMARK  status: ('A' for Active; 'I' for Inactive)
REMARK    1  A    between atoms: C_2  and  C_16
REMARK    2  A    between atoms: N_3  and  C_4
REMARK    3  A    between atoms: C_4  and  C_5
REMARK    4  A    between atoms: C_8  and  C_9
REMARK    5  A    between atoms: C_9  and  C_10
REMARK    6  A    between atoms: C_10  and  O_11
REMARK    7  A    between atoms: C_10  and  C_12
REMARK    8  A    between atoms: C_12  and  O_13
REMARK                            x       y       z     vdW  Elec       q    Type
REMARK                         _______ _______ _______ _____ _____    ______ ____
ROOT
ATOM      1  O   UNL     1      47.328   3.136  14.050  0.00  0.00    +0.000 OA
ATOM      2  C   UNL     1      46.941   4.195  14.538  0.00  0.00    +0.000 C 
ATOM      3  N   UNL     1      46.823   4.394  15.886  0.00  0.00    +0.000 N 
ATOM      4  H   UNL     1      46.470   5.266  16.250  0.00  0.00    +0.000 HD
ENDROOT
BRANCH   2   5
ATOM      5  C   UNL     1      46.517   5.323  13.707  0.00  0.00    +0.000 A 
ATOM      6  C   UNL     1      47.337   6.427  13.532  0.00  0.00    +0.000 A 
ATOM      7  S   UNL     1      46.677   7.587  12.461  0.00  0.00    +0.000 S 
ATOM      8  C   UNL     1      45.262   6.665  12.244  0.00  0.00    +0.000 A 
ATOM      9  N   UNL     1      44.267   7.085  11.417  0.00  0.00    +0.000 NA
ATOM     10  C   UNL     1      43.250   6.290  11.359  0.00  0.00    +0.000 A 
ATOM     11  N   UNL     1      43.128   5.121  12.071  0.00  0.00    +0.000 N 
ATOM     12  C   UNL     1      44.090   4.679  12.941  0.00  0.00    +0.000 A 
ATOM     13  O   UNL     1      43.924   3.653  13.594  0.00  0.00    +0.000 OA
ATOM     14  C   UNL     1      45.282   5.505  12.992  0.00  0.00    +0.000 A 
ATOM     15  H   UNL     1      42.298   4.553  11.998  0.00  0.00    +0.000 HD
ENDBRANCH   2   5
BRANCH   3  16
ATOM     16  C   UNL     1      47.256   3.428  16.864  0.00  0.00    +0.000 C 
BRANCH  16  17
ATOM     17  C   UNL     1      48.736   3.529  17.136  0.00  0.00    +0.000 A 
ATOM     18  C   UNL     1      49.522   2.381  17.117  0.00  0.00    +0.000 A 
ATOM     19  C   UNL     1      50.884   2.493  17.379  0.00  0.00    +0.000 A 
ATOM     20  C   UNL     1      51.436   3.743  17.668  0.00  0.00    +0.000 A 
ATOM     21  C   UNL     1      50.570   4.831  17.678  0.00  0.00    +0.000 A 
ATOM     22  N   UNL     1      49.243   4.753  17.424  0.00  0.00    +0.000 NA
BRANCH  20  23
ATOM     23  C   UNL     1      52.914   3.903  17.921  0.00  0.00    +0.000 C 
BRANCH  23  24
ATOM     24  C   UNL     1      53.693   2.579  17.965  0.00  0.00    +0.000 C 
BRANCH  24  25
ATOM     25  O   UNL     1      54.799   2.615  17.057  0.00  0.00    +0.000 OA
ATOM     26  H   UNL     1      54.960   1.713  16.733  0.00  0.00    +0.000 HD
ENDBRANCH  24  25
BRANCH  24  27
ATOM     27  C   UNL     1      54.208   2.296  19.387  0.00  0.00    +0.000 C 
BRANCH  27  28
ATOM     28  O   UNL     1      53.430   2.964  20.379  0.00  0.00    +0.000 OA
ATOM     29  H   UNL     1      52.700   3.426  19.931  0.00  0.00    +0.000 HD
ENDBRANCH  27  28
ENDBRANCH  24  27
ENDBRANCH  23  24
ENDBRANCH  20  23
ENDBRANCH  16  17
ENDBRANCH   3  16
TORSDOF 8
ENDMDL
MODEL 6
REMARK VINA RESULT:    -6.661      1.879      2.234
REMARK INTER + INTRA:          -9.843
REMARK INTER:                  -9.173
REMARK INTRA:                  -0.670
REMARK UNBOUND:                -0.456
REMARK  Name = 
REMARK  8 active torsions:
REMARK  status: ('A' for Active; 'I' for Inactive)
REMARK    1  A    between atoms: C_2  and  C_16
REMARK    2  A    between atoms: N_3  and  C_4
REMARK    3  A    between atoms: C_4  and  C_5
REMARK    4  A    between atoms: C_8  and  C_9
REMARK    5  A    between atoms: C_9  and  C_10
REMARK    6  A    between atoms: C_10  and  O_11
REMARK    7  A    between atoms: C_10  and  C_12
REMARK    8  A    between atoms: C_12  and  O_13
REMARK                            x       y       z     vdW  Elec       q    Type
REMARK                         _______ _______ _______ _____ _____    ______ ____
ROOT
ATOM      1  O   UNL     1      45.754   8.308  13.158  0.00  0.00    +0.000 OA
ATOM      2  C   UNL     1      46.605   7.429  13.268  0.00  0.00    +0.000 C 
ATOM      3  N   UNL     1      46.327   6.100  13.097  0.00  0.00    +0.000 N 
ATOM      4  H   UNL     1      47.045   5.402  13.228  0.00  0.00    +0.000 HD
ENDROOT
BRANCH   2   5
ATOM      5  C   UNL     1      47.985   7.728  13.650  0.00  0.00    +0.000 A 
ATOM      6  C   UNL     1      48.719   8.692  12.974  0.00  0.00    +0.000 A 
ATOM      7  S   UNL     1      50.277   8.934  13.637  0.00  0.00    +0.000 S 
ATOM      8  C   UNL     1      50.028   7.725  14.810  0.00  0.00    +0.000 A 
ATOM      9  N   UNL     1      50.984   7.428  15.731  0.00  0.00    +0.000 NA
ATOM     10  C   UNL     1      50.660   6.482  16.550  0.00  0.00    +0.000 A 
ATOM     11  N   UNL     1      49.474   5.791  16.519  0.00  0.00    +0.000 N 
ATOM     12  C   UNL     1      48.499   6.033  15.588  0.00  0.00    +0.000 A 
ATOM     13  O   UNL     1      47.470   5.363  15.563  0.00  0.00    +0.000 OA
ATOM     14  C   UNL     1      48.788   7.132  14.684  0.00  0.00    +0.000 A 
ATOM     15  H   UNL     1      49.289   5.047  17.175  0.00  0.00    +0.000 HD
ENDBRANCH   2   5
BRANCH   3  16
ATOM     16  C   UNL     1      45.045   5.616  12.653  0.00  0.00    +0.000 C 
BRANCH  16  17
ATOM     17  C   UNL     1      45.148   4.872  11.345  0.00  0.00    +0.000 A 
ATOM     18  C   UNL     1      45.598   5.535  10.207  0.00  0.00    +0.000 A 
ATOM     19  C   UNL     1      45.678   4.834   9.008  0.00  0.00    +0.000 A 
ATOM     20  C   UNL     1      45.297   3.492   8.959  0.00  0.00    +0.000 A 
ATOM     21  C   UNL     1      44.847   2.918  10.144  0.00  0.00    +0.000 A 
ATOM     22  N   UNL     1      44.761   3.572  11.326  0.00  0.00    +0.000 NA
BRANCH  20  23
ATOM     23  C   UNL     1      45.406   2.695   7.684  0.00  0.00    +0.000 C 
BRANCH  23  24
ATOM     24  C   UNL     1      46.790   2.070   7.447  0.00  0.00    +0.000 C 
BRANCH  24  25
ATOM     25  O   UNL     1      46.739   0.652   7.631  0.00  0.00    +0.000 OA
ATOM     26  H   UNL     1      47.638   0.296   7.530  0.00  0.00    +0.000 HD
ENDBRANCH  24  25
BRANCH  24  27
ATOM     27  C   UNL     1      47.295   2.385   6.028  0.00  0.00    +0.000 C 
BRANCH  27  28
ATOM     28  O   UNL     1      48.525   1.722   5.740  0.00  0.00    +0.000 OA
ATOM     29  H   UNL     1      49.213   2.096   6.317  0.00  0.00    +0.000 HD
ENDBRANCH  27  28
ENDBRANCH  24  27
ENDBRANCH  23  24
ENDBRANCH  20  23
ENDBRANCH  16  17
ENDBRANCH   3  16
TORSDOF 8
ENDMDL
MODEL 7
REMARK VINA RESULT:    -6.647      3.615      8.456
REMARK INTER + INTRA:          -9.823
REMARK INTER:                  -9.075
REMARK INTRA:                  -0.748
REMARK UNBOUND:                -0.456
REMARK  Name = 
REMARK  8 active torsions:
REMARK  status: ('A' for Active; 'I' for Inactive)
REMARK    1  A    between atoms: C_2  and  C_16
REMARK    2  A    between atoms: N_3  and  C_4
REMARK    3  A    between atoms: C_4  and  C_5
REMARK    4  A    between atoms: C_8  and  C_9
REMARK    5  A    between atoms: C_9  and  C_10
REMARK    6  A    between atoms: C_10  and  O_11
REMARK    7  A    between atoms: C_10  and  C_12
REMARK    8  A    between atoms: C_12  and  O_13
REMARK                            x       y       z     vdW  Elec       q    Type
REMARK                         _______ _______ _______ _____ _____    ______ ____
ROOT
ATOM      1  O   UNL     1      45.667   7.830  11.742  0.00  0.00    +0.000 OA
ATOM      2  C   UNL     1      46.232   6.747  11.618  0.00  0.00    +0.000 C 
ATOM      3  N   UNL     1      47.485   6.501  12.108  0.00  0.00    +0.000 N 
ATOM      4  H   UNL     1      47.932   5.608  11.959  0.00  0.00    +0.000 HD
ENDROOT
BRANCH   2   5
ATOM      5  C   UNL     1      45.628   5.637  10.880  0.00  0.00    +0.000 A 
ATOM      6  C   UNL     1      45.812   5.507   9.512  0.00  0.00    +0.000 A 
ATOM      7  S   UNL     1      45.086   4.098   8.869  0.00  0.00    +0.000 S 
ATOM      8  C   UNL     1      44.468   3.653  10.393  0.00  0.00    +0.000 A 
ATOM      9  N   UNL     1      43.746   2.511  10.555  0.00  0.00    +0.000 NA
ATOM     10  C   UNL     1      43.333   2.309  11.763  0.00  0.00    +0.000 A 
ATOM     11  N   UNL     1      43.558   3.156  12.820  0.00  0.00    +0.000 N 
ATOM     12  C   UNL     1      44.249   4.333  12.694  0.00  0.00    +0.000 A 
ATOM     13  O   UNL     1      44.390   5.087  13.652  0.00  0.00    +0.000 OA
ATOM     14  C   UNL     1      44.790   4.575  11.369  0.00  0.00    +0.000 A 
ATOM     15  H   UNL     1      43.190   2.952  13.737  0.00  0.00    +0.000 HD
ENDBRANCH   2   5
BRANCH   3  16
ATOM     16  C   UNL     1      48.211   7.445  12.921  0.00  0.00    +0.000 C 
BRANCH  16  17
ATOM     17  C   UNL     1      48.357   6.965  14.343  0.00  0.00    +0.000 A 
ATOM     18  C   UNL     1      48.927   7.801  15.299  0.00  0.00    +0.000 A 
ATOM     19  C   UNL     1      49.062   7.337  16.604  0.00  0.00    +0.000 A 
ATOM     20  C   UNL     1      48.640   6.047  16.931  0.00  0.00    +0.000 A 
ATOM     21  C   UNL     1      48.095   5.280  15.906  0.00  0.00    +0.000 A 
ATOM     22  N   UNL     1      47.948   5.704  14.629  0.00  0.00    +0.000 NA
BRANCH  20  23
ATOM     23  C   UNL     1      48.739   5.529  18.343  0.00  0.00    +0.000 C 
BRANCH  23  24
ATOM     24  C   UNL     1      47.574   5.950  19.253  0.00  0.00    +0.000 C 
BRANCH  24  25
ATOM     25  O   UNL     1      46.401   5.186  18.954  0.00  0.00    +0.000 OA
ATOM     26  H   UNL     1      46.177   5.321  18.018  0.00  0.00    +0.000 HD
ENDBRANCH  24  25
BRANCH  24  27
ATOM     27  C   UNL     1      47.944   5.762  20.735  0.00  0.00    +0.000 C 
BRANCH  27  28
ATOM     28  O   UNL     1      47.867   4.396  21.135  0.00  0.00    +0.000 OA
ATOM     29  H   UNL     1      48.768   4.026  21.129  0.00  0.00    +0.000 HD
ENDBRANCH  27  28
ENDBRANCH  24  27
ENDBRANCH  23  24
ENDBRANCH  20  23
ENDBRANCH  16  17
ENDBRANCH   3  16
TORSDOF 8
ENDMDL
MODEL 8
REMARK VINA RESULT:    -6.620      3.714      7.991
REMARK INTER + INTRA:          -9.786
REMARK INTER:                  -8.939
REMARK INTRA:                  -0.846
REMARK UNBOUND:                -0.456
REMARK  Name = 
REMARK  8 active torsions:
REMARK  status: ('A' for Active; 'I' for Inactive)
REMARK    1  A    between atoms: C_2  and  C_16
REMARK    2  A    between atoms: N_3  and  C_4
REMARK    3  A    between atoms: C_4  and  C_5
REMARK    4  A    between atoms: C_8  and  C_9
REMARK    5  A    between atoms: C_9  and  C_10
REMARK    6  A    between atoms: C_10  and  O_11
REMARK    7  A    between atoms: C_10  and  C_12
REMARK    8  A    between atoms: C_12  and  O_13
REMARK                            x       y       z     vdW  Elec       q    Type
REMARK                         _______ _______ _______ _____ _____    ______ ____
ROOT
ATOM      1  O   UNL     1      49.108   6.585  12.844  0.00  0.00    +0.000 OA
ATOM      2  C   UNL     1      48.046   6.764  13.435  0.00  0.00    +0.000 C 
ATOM      3  N   UNL     1      47.978   7.230  14.719  0.00  0.00    +0.000 N 
ATOM      4  H   UNL     1      47.089   7.334  15.184  0.00  0.00    +0.000 HD
ENDROOT
BRANCH   2   5
ATOM      5  C   UNL     1      46.755   6.437  12.827  0.00  0.00    +0.000 A 
ATOM      6  C   UNL     1      45.954   7.428  12.280  0.00  0.00    +0.000 A 
ATOM      7  S   UNL     1      44.532   6.814  11.555  0.00  0.00    +0.000 S 
ATOM      8  C   UNL     1      44.929   5.217  11.995  0.00  0.00    +0.000 A 
ATOM      9  N   UNL     1      44.125   4.172  11.659  0.00  0.00    +0.000 NA
ATOM     10  C   UNL     1      44.547   3.021  12.069  0.00  0.00    +0.000 A 
ATOM     11  N   UNL     1      45.689   2.823  12.804  0.00  0.00    +0.000 N 
ATOM     12  C   UNL     1      46.508   3.849  13.194  0.00  0.00    +0.000 A 
ATOM     13  O   UNL     1      47.497   3.637  13.891  0.00  0.00    +0.000 OA
ATOM     14  C   UNL     1      46.112   5.156  12.703  0.00  0.00    +0.000 A 
ATOM     15  H   UNL     1      45.954   1.899  13.113  0.00  0.00    +0.000 HD
ENDBRANCH   2   5
BRANCH   3  16
ATOM     16  C   UNL     1      49.135   7.670  15.458  0.00  0.00    +0.000 C 
BRANCH  16  17
ATOM     17  C   UNL     1      49.731   6.557  16.283  0.00  0.00    +0.000 A 
ATOM     18  C   UNL     1      48.902   5.750  17.055  0.00  0.00    +0.000 A 
ATOM     19  C   UNL     1      49.472   4.734  17.817  0.00  0.00    +0.000 A 
ATOM     20  C   UNL     1      50.856   4.549  17.806  0.00  0.00    +0.000 A 
ATOM     21  C   UNL     1      51.604   5.414  17.014  0.00  0.00    +0.000 A 
ATOM     22  N   UNL     1      51.079   6.408  16.261  0.00  0.00    +0.000 NA
BRANCH  20  23
ATOM     23  C   UNL     1      51.500   3.435  18.592  0.00  0.00    +0.000 C 
BRANCH  23  24
ATOM     24  C   UNL     1      52.066   2.298  17.726  0.00  0.00    +0.000 C 
BRANCH  24  25
ATOM     25  O   UNL     1      53.100   1.600  18.426  0.00  0.00    +0.000 OA
ATOM     26  H   UNL     1      53.171   1.973  19.321  0.00  0.00    +0.000 HD
ENDBRANCH  24  25
BRANCH  24  27
ATOM     27  C   UNL     1      50.955   1.308  17.333  0.00  0.00    +0.000 C 
BRANCH  27  28
ATOM     28  O   UNL     1      50.265   1.720  16.156  0.00  0.00    +0.000 OA
ATOM     29  H   UNL     1      49.581   2.364  16.414  0.00  0.00    +0.000 HD
ENDBRANCH  27  28
ENDBRANCH  24  27
ENDBRANCH  23  24
ENDBRANCH  20  23
ENDBRANCH  16  17
ENDBRANCH   3  16
TORSDOF 8
ENDMDL
MODEL 9
REMARK VINA RESULT:    -6.352      3.884      5.783
REMARK INTER + INTRA:          -9.408
REMARK INTER:                  -8.632
REMARK INTRA:                  -0.776
REMARK UNBOUND:                -0.456
REMARK  Name = 
REMARK  8 active torsions:
REMARK  status: ('A' for Active; 'I' for Inactive)
REMARK    1  A    between atoms: C_2  and  C_16
REMARK    2  A    between atoms: N_3  and  C_4
REMARK    3  A    between atoms: C_4  and  C_5
REMARK    4  A    between atoms: C_8  and  C_9
REMARK    5  A    between atoms: C_9  and  C_10
REMARK    6  A    between atoms: C_10  and  O_11
REMARK    7  A    between atoms: C_10  and  C_12
REMARK    8  A    between atoms: C_12  and  O_13
REMARK                            x       y       z     vdW  Elec       q    Type
REMARK                         _______ _______ _______ _____ _____    ______ ____
ROOT
ATOM      1  O   UNL     1      49.975   6.388  18.598  0.00  0.00    +0.000 OA
ATOM      2  C   UNL     1      50.584   5.835  17.686  0.00  0.00    +0.000 C 
ATOM      3  N   UNL     1      50.271   6.012  16.367  0.00  0.00    +0.000 N 
ATOM      4  H   UNL     1      50.772   5.514  15.646  0.00  0.00    +0.000 HD
ENDROOT
BRANCH   2   5
ATOM      5  C   UNL     1      51.669   4.886  17.942  0.00  0.00    +0.000 A 
ATOM      6  C   UNL     1      52.916   5.325  18.359  0.00  0.00    +0.000 A 
ATOM      7  S   UNL     1      54.006   4.044  18.675  0.00  0.00    +0.000 S 
ATOM      8  C   UNL     1      52.854   2.877  18.216  0.00  0.00    +0.000 A 
ATOM      9  N   UNL     1      53.139   1.547  18.267  0.00  0.00    +0.000 NA
ATOM     10  C   UNL     1      52.174   0.780  17.879  0.00  0.00    +0.000 A 
ATOM     11  N   UNL     1      50.956   1.222  17.423  0.00  0.00    +0.000 N 
ATOM     12  C   UNL     1      50.641   2.551  17.322  0.00  0.00    +0.000 A 
ATOM     13  O   UNL     1      49.558   2.909  16.866  0.00  0.00    +0.000 OA
ATOM     14  C   UNL     1      51.668   3.454  17.808  0.00  0.00    +0.000 A 
ATOM     15  H   UNL     1      50.250   0.571  17.114  0.00  0.00    +0.000 HD
ENDBRANCH   2   5
BRANCH   3  16
ATOM     16  C   UNL     1      49.281   6.957  15.914  0.00  0.00    +0.000 C 
BRANCH  16  17
ATOM     17  C   UNL     1      48.293   6.324  14.967  0.00  0.00    +0.000 A 
ATOM     18  C   UNL     1      47.946   6.981  13.790  0.00  0.00    +0.000 A 
ATOM     19  C   UNL     1      47.026   6.385  12.933  0.00  0.00    +0.000 A 
ATOM     20  C   UNL     1      46.457   5.155  13.269  0.00  0.00    +0.000 A 
ATOM     21  C   UNL     1      46.855   4.581  14.472  0.00  0.00    +0.000 A 
ATOM     22  N   UNL     1      47.749   5.134  15.324  0.00  0.00    +0.000 NA
BRANCH  20  23
ATOM     23  C   UNL     1      45.485   4.467  12.345  0.00  0.00    +0.000 C 
BRANCH  23  24
ATOM     24  C   UNL     1      44.015   4.578  12.779  0.00  0.00    +0.000 C 
BRANCH  24  25
ATOM     25  O   UNL     1      43.722   5.904  13.227  0.00  0.00    +0.000 OA
ATOM     26  H   UNL     1      43.994   5.982  14.157  0.00  0.00    +0.000 HD
ENDBRANCH  24  25
BRANCH  24  27
ATOM     27  C   UNL     1      43.074   4.209  11.619  0.00  0.00    +0.000 C 
BRANCH  27  28
ATOM     28  O   UNL     1      43.215   2.844  11.230  0.00  0.00    +0.000 OA
ATOM     29  H   UNL     1      44.052   2.752  10.741  0.00  0.00    +0.000 HD
ENDBRANCH  27  28
ENDBRANCH  24  27
ENDBRANCH  23  24
ENDBRANCH  20  23
ENDBRANCH  16  17
ENDBRANCH   3  16
TORSDOF 8
ENDMDL
