MODEL 1
REMARK VINA RESULT:    -7.638      0.000      0.000
REMARK INTER + INTRA:         -11.302
REMARK INTER:                 -10.317
REMARK INTRA:                  -0.985
REMARK UNBOUND:                -0.985
REMARK  Name = 
REMARK  6 active torsions:
REMARK  status: ('A' for Active; 'I' for Inactive)
REMARK    1  A    between atoms: C_2  and  C_20
REMARK    2  A    between atoms: N_3  and  C_4
REMARK    3  A    between atoms: C_4  and  C_5
REMARK    4  A    between atoms: C_8  and  C_9
REMARK    5  A    between atoms: C_9  and  N_10
REMARK    6  A    between atoms: C_11  and  C_13
REMARK                            x       y       z     vdW  Elec       q    Type
REMARK                         _______ _______ _______ _____ _____    ______ ____
ROOT
ATOM      1  C   UNL     1      46.675   4.787  14.423  0.00  0.00    +0.000 A 
ATOM      2  C   UNL     1      45.767   4.121  13.590  0.00  0.00    +0.000 A 
ATOM      3  C   UNL     1      45.519   4.578  12.289  0.00  0.00    +0.000 A 
ATOM      4  C   UNL     1      46.193   5.698  11.784  0.00  0.00    +0.000 A 
ATOM      5  C   UNL     1      47.125   6.345  12.607  0.00  0.00    +0.000 A 
ATOM      6  C   UNL     1      47.371   5.889  13.909  0.00  0.00    +0.000 A 
ENDROOT
BRANCH   1   7
ATOM      7  C   UNL     1      46.877   4.343  15.850  0.00  0.00    +0.000 C 
BRANCH   7  10
ATOM      8  O   UNL     1      47.882   4.947  18.344  0.00  0.00    +0.000 OA
ATOM      9  C   UNL     1      48.663   4.502  17.504  0.00  0.00    +0.000 C 
ATOM     10  N   UNL     1      48.269   4.238  16.214  0.00  0.00    +0.000 N 
ATOM     11  H   UNL     1      48.867   3.680  15.613  0.00  0.00    +0.000 HD
BRANCH   9  12
ATOM     12  C   UNL     1      50.073   4.263  17.834  0.00  0.00    +0.000 A 
ATOM     13  C   UNL     1      50.792   5.225  18.531  0.00  0.00    +0.000 A 
ATOM     14  S   UNL     1      52.412   4.783  18.835  0.00  0.00    +0.000 S 
ATOM     15  C   UNL     1      52.195   3.268  18.090  0.00  0.00    +0.000 A 
ATOM     16  N   UNL     1      53.206   2.358  18.043  0.00  0.00    +0.000 NA
ATOM     17  C   UNL     1      52.886   1.238  17.487  0.00  0.00    +0.000 A 
ATOM     18  N   UNL     1      51.653   0.948  16.963  0.00  0.00    +0.000 N 
ATOM     19  C   UNL     1      50.618   1.852  16.944  0.00  0.00    +0.000 A 
ATOM     20  O   UNL     1      49.551   1.588  16.399  0.00  0.00    +0.000 OA
ATOM     21  C   UNL     1      50.915   3.118  17.588  0.00  0.00    +0.000 A 
ATOM     22  H   UNL     1      51.477   0.056  16.524  0.00  0.00    +0.000 HD
ENDBRANCH   9  12
ENDBRANCH   7  10
ENDBRANCH   1   7
BRANCH   4  23
ATOM     23  C   UNL     1      45.903   6.219  10.398  0.00  0.00    +0.000 C 
BRANCH  23  24
ATOM     24  N   UNL     1      45.306   5.203   9.559  0.00  0.00    +0.000 N 
ATOM     25  C   UNL     1      45.936   4.759   8.409  0.00  0.00    +0.000 C 
ATOM     26  O   UNL     1      47.032   5.177   8.046  0.00  0.00    +0.000 OA
ATOM     27  H   UNL     1      44.338   4.950   9.714  0.00  0.00    +0.000 HD
BRANCH  25  28
ATOM     28  C   UNL     1      45.121   3.683   7.652  0.00  0.00    +0.000 C 
ATOM     29  C   UNL     1      45.952   2.733   6.806  0.00  0.00    +0.000 C 
ATOM     30  C   UNL     1      46.472   1.730   7.817  0.00  0.00    +0.000 C 
ATOM     31  C   UNL     1      45.392   1.674   8.886  0.00  0.00    +0.000 C 
ATOM     32  N   UNL     1      44.459   2.778   8.620  0.00  0.00    +0.000 NA
ATOM     33  H   UNL     1      44.257   3.275   9.487  0.00  0.00    +0.000 HD
ENDBRANCH  25  28
ENDBRANCH  23  24
ENDBRANCH   4  23
TORSDOF 6
ENDMDL
MODEL 2
REMARK VINA RESULT:    -7.208      2.936      4.385
REMARK INTER + INTRA:         -10.721
REMARK INTER:                  -9.785
REMARK INTRA:                  -0.936
REMARK UNBOUND:                -0.985
REMARK  Name = 
REMARK  6 active torsions:
REMARK  status: ('A' for Active; 'I' for Inactive)
REMARK    1  A    between atoms: C_2  and  C_20
REMARK    2  A    between atoms: N_3  and  C_4
REMARK    3  A    between atoms: C_4  and  C_5
REMARK    4  A    between atoms: C_8  and  C_9
REMARK    5  A    between atoms: C_9  and  N_10
REMARK    6  A    between atoms: C_11  and  C_13
REMARK                            x       y       z     vdW  Elec       q    Type
REMARK                         _______ _______ _______ _____ _____    ______ ____
ROOT
ATOM      1  C   UNL     1      46.957   4.472  14.308  0.00  0.00    +0.000 A 
ATOM      2  C   UNL     1      46.235   3.643  13.439  0.00  0.00    +0.000 A 
ATOM      3  C   UNL     1      45.655   4.158  12.272  0.00  0.00    +0.000 A 
ATOM      4  C   UNL     1      45.805   5.511  11.937  0.00  0.00    +0.000 A 
ATOM      5  C   UNL     1      46.554   6.333  12.790  0.00  0.00    +0.000 A 
ATOM      6  C   UNL     1      47.133   5.816  13.958  0.00  0.00    +0.000 A 
ENDROOT
BRANCH   1   7
ATOM      7  C   UNL     1      47.509   3.932  15.604  0.00  0.00    +0.000 C 
BRANCH   7  10
ATOM      8  O   UNL     1      49.571   5.437  16.638  0.00  0.00    +0.000 OA
ATOM      9  C   UNL     1      48.446   5.609  17.105  0.00  0.00    +0.000 C 
ATOM     10  N   UNL     1      47.369   4.856  16.701  0.00  0.00    +0.000 N 
ATOM     11  H   UNL     1      46.430   5.157  16.942  0.00  0.00    +0.000 HD
BRANCH   9  12
ATOM     12  C   UNL     1      48.206   6.612  18.149  0.00  0.00    +0.000 A 
ATOM     13  C   UNL     1      48.120   6.219  19.478  0.00  0.00    +0.000 A 
ATOM     14  S   UNL     1      47.844   7.511  20.558  0.00  0.00    +0.000 S 
ATOM     15  C   UNL     1      47.880   8.648  19.293  0.00  0.00    +0.000 A 
ATOM     16  N   UNL     1      47.746   9.980  19.542  0.00  0.00    +0.000 NA
ATOM     17  C   UNL     1      47.837  10.727  18.493  0.00  0.00    +0.000 A 
ATOM     18  N   UNL     1      48.037  10.266  17.218  0.00  0.00    +0.000 N 
ATOM     19  C   UNL     1      48.128   8.929  16.913  0.00  0.00    +0.000 A 
ATOM     20  O   UNL     1      48.231   8.546  15.752  0.00  0.00    +0.000 OA
ATOM     21  C   UNL     1      48.067   8.046  18.062  0.00  0.00    +0.000 A 
ATOM     22  H   UNL     1      48.079  10.907  16.440  0.00  0.00    +0.000 HD
ENDBRANCH   9  12
ENDBRANCH   7  10
ENDBRANCH   1   7
BRANCH   4  23
ATOM     23  C   UNL     1      45.151   6.081  10.703  0.00  0.00    +0.000 C 
BRANCH  23  24
ATOM     24  N   UNL     1      44.757   5.042   9.777  0.00  0.00    +0.000 N 
ATOM     25  C   UNL     1      45.512   4.760   8.651  0.00  0.00    +0.000 C 
ATOM     26  O   UNL     1      46.555   5.350   8.383  0.00  0.00    +0.000 OA
ATOM     27  H   UNL     1      43.830   4.646   9.854  0.00  0.00    +0.000 HD
BRANCH  25  28
ATOM     28  C   UNL     1      44.907   3.625   7.789  0.00  0.00    +0.000 C 
ATOM     29  C   UNL     1      45.878   2.980   6.815  0.00  0.00    +0.000 C 
ATOM     30  C   UNL     1      46.649   2.006   7.683  0.00  0.00    +0.000 C 
ATOM     31  C   UNL     1      45.659   1.597   8.764  0.00  0.00    +0.000 C 
ATOM     32  N   UNL     1      44.502   2.495   8.656  0.00  0.00    +0.000 NA
ATOM     33  H   UNL     1      44.242   2.835   9.582  0.00  0.00    +0.000 HD
ENDBRANCH  25  28
ENDBRANCH  23  24
ENDBRANCH   4  23
TORSDOF 6
ENDMDL
MODEL 3
REMARK VINA RESULT:    -7.133      3.006      3.747
REMARK INTER + INTRA:         -10.619
REMARK INTER:                  -9.153
REMARK INTRA:                  -1.466
REMARK UNBOUND:                -0.985
REMARK  Name = 
REMARK  6 active torsions:
REMARK  status: ('A' for Active; 'I' for Inactive)
REMARK    1  A    between atoms: C_2  and  C_20
REMARK    2  A    between atoms: N_3  and  C_4
REMARK    3  A    between atoms: C_4  and  C_5
REMARK    4  A    between atoms: C_8  and  C_9
REMARK    5  A    between atoms: C_9  and  N_10
REMARK    6  A    between atoms: C_11  and  C_13
REMARK                            x       y       z     vdW  Elec       q    Type
REMARK                         _______ _______ _______ _____ _____    ______ ____
ROOT
ATOM      1  C   UNL     1      48.497   8.202  13.404  0.00  0.00    +0.000 A 
ATOM      2  C   UNL     1      48.327   7.161  12.482  0.00  0.00    +0.000 A 
ATOM      3  C   UNL     1      47.125   7.016  11.778  0.00  0.00    +0.000 A 
ATOM      4  C   UNL     1      46.074   7.924  11.964  0.00  0.00    +0.000 A 
ATOM      5  C   UNL     1      46.256   8.984  12.863  0.00  0.00    +0.000 A 
ATOM      6  C   UNL     1      47.459   9.127  13.568  0.00  0.00    +0.000 A 
ENDROOT
BRANCH   1   7
ATOM      7  C   UNL     1      49.762   8.306  14.221  0.00  0.00    +0.000 C 
BRANCH   7  10
ATOM      8  O   UNL     1      48.797   8.637  16.780  0.00  0.00    +0.000 OA
ATOM      9  C   UNL     1      49.276   7.543  16.486  0.00  0.00    +0.000 C 
ATOM     10  N   UNL     1      49.845   7.307  15.256  0.00  0.00    +0.000 N 
ATOM     11  H   UNL     1      50.035   6.352  14.970  0.00  0.00    +0.000 HD
BRANCH   9  12
ATOM     12  C   UNL     1      49.296   6.440  17.454  0.00  0.00    +0.000 A 
ATOM     13  C   UNL     1      49.930   6.606  18.678  0.00  0.00    +0.000 A 
ATOM     14  S   UNL     1      49.852   5.229  19.682  0.00  0.00    +0.000 S 
ATOM     15  C   UNL     1      48.923   4.379  18.537  0.00  0.00    +0.000 A 
ATOM     16  N   UNL     1      48.472   3.121  18.794  0.00  0.00    +0.000 NA
ATOM     17  C   UNL     1      47.744   2.617  17.854  0.00  0.00    +0.000 A 
ATOM     18  N   UNL     1      47.436   3.249  16.677  0.00  0.00    +0.000 N 
ATOM     19  C   UNL     1      47.909   4.498  16.355  0.00  0.00    +0.000 A 
ATOM     20  O   UNL     1      47.677   5.005  15.261  0.00  0.00    +0.000 OA
ATOM     21  C   UNL     1      48.705   5.125  17.392  0.00  0.00    +0.000 A 
ATOM     22  H   UNL     1      46.876   2.787  15.976  0.00  0.00    +0.000 HD
ENDBRANCH   9  12
ENDBRANCH   7  10
ENDBRANCH   1   7
BRANCH   4  23
ATOM     23  C   UNL     1      44.762   7.751  11.238  0.00  0.00    +0.000 C 
BRANCH  23  24
ATOM     24  N   UNL     1      44.574   6.389  10.791  0.00  0.00    +0.000 N 
ATOM     25  C   UNL     1      43.422   5.684  11.100  0.00  0.00    +0.000 C 
ATOM     26  O   UNL     1      42.497   6.169  11.743  0.00  0.00    +0.000 OA
ATOM     27  H   UNL     1      45.365   5.887  10.409  0.00  0.00    +0.000 HD
BRANCH  25  28
ATOM     28  C   UNL     1      43.430   4.242  10.537  0.00  0.00    +0.000 C 
ATOM     29  C   UNL     1      44.809   3.615  10.415  0.00  0.00    +0.000 C 
ATOM     30  C   UNL     1      45.104   3.143  11.825  0.00  0.00    +0.000 C 
ATOM     31  C   UNL     1      43.738   2.816  12.408  0.00  0.00    +0.000 C 
ATOM     32  N   UNL     1      42.730   3.332  11.472  0.00  0.00    +0.000 NA
ATOM     33  H   UNL     1      42.009   3.839  11.986  0.00  0.00    +0.000 HD
ENDBRANCH  25  28
ENDBRANCH  23  24
ENDBRANCH   4  23
TORSDOF 6
ENDMDL
MODEL 4
REMARK VINA RESULT:    -7.111      2.624      3.436
REMARK INTER + INTRA:         -10.590
REMARK INTER:                  -9.411
REMARK INTRA:                  -1.179
REMARK UNBOUND:                -0.985
REMARK  Name = 
REMARK  6 active torsions:
REMARK  status: ('A' for Active; 'I' for Inactive)
REMARK    1  A    between atoms: C_2  and  C_20
REMARK    2  A    between atoms: N_3  and  C_4
REMARK    3  A    between atoms: C_4  and  C_5
REMARK    4  A    between atoms: C_8  and  C_9
REMARK    5  A    between atoms: C_9  and  N_10
REMARK    6  A    between atoms: C_11  and  C_13
REMARK                            x       y       z     vdW  Elec       q    Type
REMARK                         _______ _______ _______ _____ _____    ______ ____
ROOT
ATOM      1  C   UNL     1      46.170   6.525  12.255  0.00  0.00    +0.000 A 
ATOM      2  C   UNL     1      45.367   5.584  12.913  0.00  0.00    +0.000 A 
ATOM      3  C   UNL     1      44.670   4.606  12.191  0.00  0.00    +0.000 A 
ATOM      4  C   UNL     1      44.781   4.532  10.796  0.00  0.00    +0.000 A 
ATOM      5  C   UNL     1      45.611   5.453  10.141  0.00  0.00    +0.000 A 
ATOM      6  C   UNL     1      46.306   6.433  10.864  0.00  0.00    +0.000 A 
ENDROOT
BRANCH   1   7
ATOM      7  C   UNL     1      46.852   7.627  13.027  0.00  0.00    +0.000 C 
BRANCH   7  10
ATOM      8  O   UNL     1      49.363   6.606  13.519  0.00  0.00    +0.000 OA
ATOM      9  C   UNL     1      48.610   6.763  14.479  0.00  0.00    +0.000 C 
ATOM     10  N   UNL     1      47.316   7.200  14.323  0.00  0.00    +0.000 N 
ATOM     11  H   UNL     1      46.795   7.520  15.134  0.00  0.00    +0.000 HD
BRANCH   9  12
ATOM     12  C   UNL     1      49.050   6.454  15.845  0.00  0.00    +0.000 A 
ATOM     13  C   UNL     1      49.993   7.262  16.466  0.00  0.00    +0.000 A 
ATOM     14  S   UNL     1      50.385   6.764  18.050  0.00  0.00    +0.000 S 
ATOM     15  C   UNL     1      49.271   5.480  17.981  0.00  0.00    +0.000 A 
ATOM     16  N   UNL     1      49.074   4.663  19.052  0.00  0.00    +0.000 NA
ATOM     17  C   UNL     1      48.168   3.761  18.871  0.00  0.00    +0.000 A 
ATOM     18  N   UNL     1      47.450   3.593  17.715  0.00  0.00    +0.000 N 
ATOM     19  C   UNL     1      47.649   4.361  16.594  0.00  0.00    +0.000 A 
ATOM     20  O   UNL     1      47.044   4.136  15.551  0.00  0.00    +0.000 OA
ATOM     21  C   UNL     1      48.634   5.414  16.755  0.00  0.00    +0.000 A 
ATOM     22  H   UNL     1      46.768   2.853  17.636  0.00  0.00    +0.000 HD
ENDBRANCH   9  12
ENDBRANCH   7  10
ENDBRANCH   1   7
BRANCH   4  23
ATOM     23  C   UNL     1      44.004   3.506  10.009  0.00  0.00    +0.000 C 
BRANCH  23  24
ATOM     24  N   UNL     1      44.507   3.372   8.661  0.00  0.00    +0.000 N 
ATOM     25  C   UNL     1      45.353   2.333   8.309  0.00  0.00    +0.000 C 
ATOM     26  O   UNL     1      45.705   1.464   9.101  0.00  0.00    +0.000 OA
ATOM     27  H   UNL     1      44.391   4.145   8.017  0.00  0.00    +0.000 HD
BRANCH  25  28
ATOM     28  C   UNL     1      45.785   2.384   6.824  0.00  0.00    +0.000 C 
ATOM     29  C   UNL     1      46.546   3.638   6.426  0.00  0.00    +0.000 C 
ATOM     30  C   UNL     1      47.958   3.354   6.901  0.00  0.00    +0.000 C 
ATOM     31  C   UNL     1      48.095   1.842   6.799  0.00  0.00    +0.000 C 
ATOM     32  N   UNL     1      46.754   1.300   6.542  0.00  0.00    +0.000 NA
ATOM     33  H   UNL     1      46.580   0.503   7.155  0.00  0.00    +0.000 HD
ENDBRANCH  25  28
ENDBRANCH  23  24
ENDBRANCH   4  23
TORSDOF 6
ENDMDL
MODEL 5
REMARK VINA RESULT:    -7.047      5.487      7.086
REMARK INTER + INTRA:         -10.503
REMARK INTER:                  -9.570
REMARK INTRA:                  -0.933
REMARK UNBOUND:                -0.985
REMARK  Name = 
REMARK  6 active torsions:
REMARK  status: ('A' for Active; 'I' for Inactive)
REMARK    1  A    between atoms: C_2  and  C_20
REMARK    2  A    between atoms: N_3  and  C_4
REMARK    3  A    between atoms: C_4  and  C_5
REMARK    4  A    between atoms: C_8  and  C_9
REMARK    5  A    between atoms: C_9  and  N_10
REMARK    6  A    between atoms: C_11  and  C_13
REMARK                            x       y       z     vdW  Elec       q    Type
REMARK                         _______ _______ _______ _____ _____    ______ ____
ROOT
ATOM      1  C   UNL     1      49.288   7.548  12.072  0.00  0.00    +0.000 A 
ATOM      2  C   UNL     1      48.174   7.355  11.244  0.00  0.00    +0.000 A 
ATOM      3  C   UNL     1      47.042   6.674  11.712  0.00  0.00    +0.000 A 
ATOM      4  C   UNL     1      46.991   6.192  13.027  0.00  0.00    +0.000 A 
ATOM      5  C   UNL     1      48.093   6.413  13.864  0.00  0.00    +0.000 A 
ATOM      6  C   UNL     1      49.226   7.093  13.395  0.00  0.00    +0.000 A 
ENDROOT
BRANCH   1   7
ATOM      7  C   UNL     1      50.536   8.207  11.539  0.00  0.00    +0.000 C 
BRANCH   7  10
ATOM      8  O   UNL     1      52.352   8.640   9.513  0.00  0.00    +0.000 OA
ATOM      9  C   UNL     1      52.446   7.593  10.152  0.00  0.00    +0.000 C 
ATOM     10  N   UNL     1      51.543   7.258  11.134  0.00  0.00    +0.000 N 
ATOM     11  H   UNL     1      51.763   6.506  11.778  0.00  0.00    +0.000 HD
BRANCH   9  12
ATOM     12  C   UNL     1      53.514   6.627   9.870  0.00  0.00    +0.000 A 
ATOM     13  C   UNL     1      54.470   6.352  10.838  0.00  0.00    +0.000 A 
ATOM     14  S   UNL     1      55.632   5.203  10.346  0.00  0.00    +0.000 S 
ATOM     15  C   UNL     1      54.869   4.995   8.840  0.00  0.00    +0.000 A 
ATOM     16  N   UNL     1      55.342   4.099   7.931  0.00  0.00    +0.000 NA
ATOM     17  C   UNL     1      54.639   4.016   6.852  0.00  0.00    +0.000 A 
ATOM     18  N   UNL     1      53.514   4.756   6.591  0.00  0.00    +0.000 N 
ATOM     19  C   UNL     1      53.028   5.706   7.457  0.00  0.00    +0.000 A 
ATOM     20  O   UNL     1      52.064   6.404   7.161  0.00  0.00    +0.000 OA
ATOM     21  C   UNL     1      53.764   5.815   8.703  0.00  0.00    +0.000 A 
ATOM     22  H   UNL     1      53.022   4.654   5.717  0.00  0.00    +0.000 HD
ENDBRANCH   9  12
ENDBRANCH   7  10
ENDBRANCH   1   7
BRANCH   4  23
ATOM     23  C   UNL     1      45.791   5.424  13.526  0.00  0.00    +0.000 C 
BRANCH  23  24
ATOM     24  N   UNL     1      44.915   5.040  12.442  0.00  0.00    +0.000 N 
ATOM     25  C   UNL     1      44.775   3.714  12.067  0.00  0.00    +0.000 C 
ATOM     26  O   UNL     1      45.359   2.796  12.635  0.00  0.00    +0.000 OA
ATOM     27  H   UNL     1      44.545   5.760  11.834  0.00  0.00    +0.000 HD
BRANCH  25  28
ATOM     28  C   UNL     1      43.801   3.523  10.879  0.00  0.00    +0.000 C 
ATOM     29  C   UNL     1      44.030   4.469   9.712  0.00  0.00    +0.000 C 
ATOM     30  C   UNL     1      45.182   3.828   8.964  0.00  0.00    +0.000 C 
ATOM     31  C   UNL     1      45.020   2.338   9.224  0.00  0.00    +0.000 C 
ATOM     32  N   UNL     1      44.001   2.188  10.272  0.00  0.00    +0.000 NA
ATOM     33  H   UNL     1      44.326   1.524  10.976  0.00  0.00    +0.000 HD
ENDBRANCH  25  28
ENDBRANCH  23  24
ENDBRANCH   4  23
TORSDOF 6
ENDMDL
MODEL 6
REMARK VINA RESULT:    -7.030      3.609      8.895
REMARK INTER + INTRA:         -10.481
REMARK INTER:                  -9.329
REMARK INTRA:                  -1.151
REMARK UNBOUND:                -0.985
REMARK  Name = 
REMARK  6 active torsions:
REMARK  status: ('A' for Active; 'I' for Inactive)
REMARK    1  A    between atoms: C_2  and  C_20
REMARK    2  A    between atoms: N_3  and  C_4
REMARK    3  A    between atoms: C_4  and  C_5
REMARK    4  A    between atoms: C_8  and  C_9
REMARK    5  A    between atoms: C_9  and  N_10
REMARK    6  A    between atoms: C_11  and  C_13
REMARK                            x       y       z     vdW  Elec       q    Type
REMARK                         _______ _______ _______ _____ _____    ______ ____
ROOT
ATOM      1  C   UNL     1      48.961   7.874  13.211  0.00  0.00    +0.000 A 
ATOM      2  C   UNL     1      48.322   7.264  14.298  0.00  0.00    +0.000 A 
ATOM      3  C   UNL     1      49.023   6.979  15.477  0.00  0.00    +0.000 A 
ATOM      4  C   UNL     1      50.377   7.321  15.602  0.00  0.00    +0.000 A 
ATOM      5  C   UNL     1      51.008   7.960  14.527  0.00  0.00    +0.000 A 
ATOM      6  C   UNL     1      50.305   8.243  13.347  0.00  0.00    +0.000 A 
ENDROOT
BRANCH   1   7
ATOM      7  C   UNL     1      48.224   8.103  11.915  0.00  0.00    +0.000 C 
BRANCH   7  10
ATOM      8  O   UNL     1      45.487   7.813  11.796  0.00  0.00    +0.000 OA
ATOM      9  C   UNL     1      46.180   6.897  11.355  0.00  0.00    +0.000 C 
ATOM     10  N   UNL     1      47.553   6.922  11.435  0.00  0.00    +0.000 N 
ATOM     11  H   UNL     1      48.097   6.267  10.882  0.00  0.00    +0.000 HD
BRANCH   9  12
ATOM     12  C   UNL     1      45.568   5.709  10.749  0.00  0.00    +0.000 A 
ATOM     13  C   UNL     1      45.769   5.438   9.403  0.00  0.00    +0.000 A 
ATOM     14  S   UNL     1      44.992   4.017   8.866  0.00  0.00    +0.000 S 
ATOM     15  C   UNL     1      44.400   3.686  10.426  0.00  0.00    +0.000 A 
ATOM     16  N   UNL     1      43.672   2.564  10.677  0.00  0.00    +0.000 NA
ATOM     17  C   UNL     1      43.327   2.421  11.913  0.00  0.00    +0.000 A 
ATOM     18  N   UNL     1      43.631   3.302  12.919  0.00  0.00    +0.000 N 
ATOM     19  C   UNL     1      44.321   4.471  12.703  0.00  0.00    +0.000 A 
ATOM     20  O   UNL     1      44.512   5.274  13.610  0.00  0.00    +0.000 OA
ATOM     21  C   UNL     1      44.763   4.664  11.335  0.00  0.00    +0.000 A 
ATOM     22  H   UNL     1      43.313   3.137  13.862  0.00  0.00    +0.000 HD
ENDBRANCH   9  12
ENDBRANCH   7  10
ENDBRANCH   1   7
BRANCH   4  23
ATOM     23  C   UNL     1      51.149   6.982  16.854  0.00  0.00    +0.000 C 
BRANCH  23  24
ATOM     24  N   UNL     1      50.337   6.253  17.802  0.00  0.00    +0.000 N 
ATOM     25  C   UNL     1      50.344   4.868  17.839  0.00  0.00    +0.000 C 
ATOM     26  O   UNL     1      51.042   4.186  17.096  0.00  0.00    +0.000 OA
ATOM     27  H   UNL     1      49.622   6.751  18.317  0.00  0.00    +0.000 HD
BRANCH  25  28
ATOM     28  C   UNL     1      49.394   4.290  18.917  0.00  0.00    +0.000 C 
ATOM     29  C   UNL     1      48.085   5.043  19.081  0.00  0.00    +0.000 C 
ATOM     30  C   UNL     1      47.233   4.513  17.944  0.00  0.00    +0.000 C 
ATOM     31  C   UNL     1      47.725   3.089  17.735  0.00  0.00    +0.000 C 
ATOM     32  N   UNL     1      48.954   2.932  18.525  0.00  0.00    +0.000 NA
ATOM     33  H   UNL     1      49.671   2.477  17.960  0.00  0.00    +0.000 HD
ENDBRANCH  25  28
ENDBRANCH  23  24
ENDBRANCH   4  23
TORSDOF 6
ENDMDL
MODEL 7
REMARK VINA RESULT:    -6.849      2.698      3.517
REMARK INTER + INTRA:         -10.236
REMARK INTER:                  -9.169
REMARK INTRA:                  -1.067
REMARK UNBOUND:                -0.985
REMARK  Name = 
REMARK  6 active torsions:
REMARK  status: ('A' for Active; 'I' for Inactive)
REMARK    1  A    between atoms: C_2  and  C_20
REMARK    2  A    between atoms: N_3  and  C_4
REMARK    3  A    between atoms: C_4  and  C_5
REMARK    4  A    between atoms: C_8  and  C_9
REMARK    5  A    between atoms: C_9  and  N_10
REMARK    6  A    between atoms: C_11  and  C_13
REMARK                            x       y       z     vdW  Elec       q    Type
REMARK                         _______ _______ _______ _____ _____    ______ ____
ROOT
ATOM      1  C   UNL     1      47.722   4.393  15.951  0.00  0.00    +0.000 A 
ATOM      2  C   UNL     1      47.072   3.897  14.813  0.00  0.00    +0.000 A 
ATOM      3  C   UNL     1      46.994   4.661  13.641  0.00  0.00    +0.000 A 
ATOM      4  C   UNL     1      47.586   5.930  13.575  0.00  0.00    +0.000 A 
ATOM      5  C   UNL     1      48.263   6.413  14.703  0.00  0.00    +0.000 A 
ATOM      6  C   UNL     1      48.340   5.648  15.876  0.00  0.00    +0.000 A 
ENDROOT
BRANCH   1   7
ATOM      7  C   UNL     1      47.733   3.603  17.236  0.00  0.00    +0.000 C 
BRANCH   7  10
ATOM      8  O   UNL     1      49.374   1.718  16.076  0.00  0.00    +0.000 OA
ATOM      9  C   UNL     1      49.830   2.379  17.008  0.00  0.00    +0.000 C 
ATOM     10  N   UNL     1      49.064   3.293  17.693  0.00  0.00    +0.000 N 
ATOM     11  H   UNL     1      49.517   3.965  18.304  0.00  0.00    +0.000 HD
BRANCH   9  12
ATOM     12  C   UNL     1      51.215   2.197  17.458  0.00  0.00    +0.000 A 
ATOM     13  C   UNL     1      51.727   0.917  17.617  0.00  0.00    +0.000 A 
ATOM     14  S   UNL     1      53.351   0.889  18.139  0.00  0.00    +0.000 S 
ATOM     15  C   UNL     1      53.444   2.588  18.122  0.00  0.00    +0.000 A 
ATOM     16  N   UNL     1      54.602   3.231  18.433  0.00  0.00    +0.000 NA
ATOM     17  C   UNL     1      54.537   4.517  18.336  0.00  0.00    +0.000 A 
ATOM     18  N   UNL     1      53.419   5.219  17.969  0.00  0.00    +0.000 N 
ATOM     19  C   UNL     1      52.215   4.616  17.694  0.00  0.00    +0.000 A 
ATOM     20  O   UNL     1      51.213   5.278  17.442  0.00  0.00    +0.000 OA
ATOM     21  C   UNL     1      52.242   3.167  17.755  0.00  0.00    +0.000 A 
ATOM     22  H   UNL     1      53.433   6.227  17.931  0.00  0.00    +0.000 HD
ENDBRANCH   9  12
ENDBRANCH   7  10
ENDBRANCH   1   7
BRANCH   4  23
ATOM     23  C   UNL     1      47.472   6.775  12.329  0.00  0.00    +0.000 C 
BRANCH  23  24
ATOM     24  N   UNL     1      46.369   6.351  11.496  0.00  0.00    +0.000 N 
ATOM     25  C   UNL     1      45.109   6.911  11.632  0.00  0.00    +0.000 C 
ATOM     26  O   UNL     1      44.859   7.800  12.440  0.00  0.00    +0.000 OA
ATOM     27  H   UNL     1      46.473   5.513  10.938  0.00  0.00    +0.000 HD
BRANCH  25  28
ATOM     28  C   UNL     1      44.073   6.306  10.654  0.00  0.00    +0.000 C 
ATOM     29  C   UNL     1      44.110   4.791  10.546  0.00  0.00    +0.000 C 
ATOM     30  C   UNL     1      43.332   4.335  11.765  0.00  0.00    +0.000 C 
ATOM     31  C   UNL     1      42.324   5.448  12.008  0.00  0.00    +0.000 C 
ATOM     32  N   UNL     1      42.701   6.574  11.143  0.00  0.00    +0.000 NA
ATOM     33  H   UNL     1      42.680   7.442  11.677  0.00  0.00    +0.000 HD
ENDBRANCH  25  28
ENDBRANCH  23  24
ENDBRANCH   4  23
TORSDOF 6
ENDMDL
MODEL 8
REMARK VINA RESULT:    -6.768      3.641      9.626
REMARK INTER + INTRA:         -10.127
REMARK INTER:                  -9.169
REMARK INTRA:                  -0.958
REMARK UNBOUND:                -0.985
REMARK  Name = 
REMARK  6 active torsions:
REMARK  status: ('A' for Active; 'I' for Inactive)
REMARK    1  A    between atoms: C_2  and  C_20
REMARK    2  A    between atoms: N_3  and  C_4
REMARK    3  A    between atoms: C_4  and  C_5
REMARK    4  A    between atoms: C_8  and  C_9
REMARK    5  A    between atoms: C_9  and  N_10
REMARK    6  A    between atoms: C_11  and  C_13
REMARK                            x       y       z     vdW  Elec       q    Type
REMARK                         _______ _______ _______ _____ _____    ______ ____
ROOT
ATOM      1  C   UNL     1      48.949   3.994  16.999  0.00  0.00    +0.000 A 
ATOM      2  C   UNL     1      49.483   5.289  17.024  0.00  0.00    +0.000 A 
ATOM      3  C   UNL     1      50.805   5.512  17.429  0.00  0.00    +0.000 A 
ATOM      4  C   UNL     1      51.630   4.440  17.798  0.00  0.00    +0.000 A 
ATOM      5  C   UNL     1      51.105   3.142  17.742  0.00  0.00    +0.000 A 
ATOM      6  C   UNL     1      49.781   2.920  17.338  0.00  0.00    +0.000 A 
ENDROOT
BRANCH   1   7
ATOM      7  C   UNL     1      47.501   3.766  16.642  0.00  0.00    +0.000 C 
BRANCH   7  10
ATOM      8  O   UNL     1      47.148   3.277  13.954  0.00  0.00    +0.000 OA
ATOM      9  C   UNL     1      46.797   4.373  14.387  0.00  0.00    +0.000 C 
ATOM     10  N   UNL     1      46.997   4.734  15.699  0.00  0.00    +0.000 N 
ATOM     11  H   UNL     1      46.514   5.543  16.074  0.00  0.00    +0.000 HD
BRANCH   9  12
ATOM     12  C   UNL     1      46.173   5.370  13.509  0.00  0.00    +0.000 A 
ATOM     13  C   UNL     1      46.874   6.516  13.157  0.00  0.00    +0.000 A 
ATOM     14  S   UNL     1      46.004   7.562  12.127  0.00  0.00    +0.000 S 
ATOM     15  C   UNL     1      44.679   6.496  12.073  0.00  0.00    +0.000 A 
ATOM     16  N   UNL     1      43.584   6.776  11.316  0.00  0.00    +0.000 NA
ATOM     17  C   UNL     1      42.676   5.858  11.337  0.00  0.00    +0.000 A 
ATOM     18  N   UNL     1      42.756   4.693  12.054  0.00  0.00    +0.000 N 
ATOM     19  C   UNL     1      43.820   4.391  12.871  0.00  0.00    +0.000 A 
ATOM     20  O   UNL     1      43.827   3.375  13.559  0.00  0.00    +0.000 OA
ATOM     21  C   UNL     1      44.886   5.375  12.857  0.00  0.00    +0.000 A 
ATOM     22  H   UNL     1      41.999   4.026  12.040  0.00  0.00    +0.000 HD
ENDBRANCH   9  12
ENDBRANCH   7  10
ENDBRANCH   1   7
BRANCH   4  23
ATOM     23  C   UNL     1      53.043   4.676  18.273  0.00  0.00    +0.000 C 
BRANCH  23  24
ATOM     24  N   UNL     1      53.755   3.434  18.472  0.00  0.00    +0.000 N 
ATOM     25  C   UNL     1      54.830   3.086  17.671  0.00  0.00    +0.000 C 
ATOM     26  O   UNL     1      55.250   3.806  16.771  0.00  0.00    +0.000 OA
ATOM     27  H   UNL     1      53.351   2.732  19.078  0.00  0.00    +0.000 HD
BRANCH  25  28
ATOM     28  C   UNL     1      55.438   1.711  18.043  0.00  0.00    +0.000 C 
ATOM     29  C   UNL     1      54.491   0.774  18.773  0.00  0.00    +0.000 C 
ATOM     30  C   UNL     1      53.656   0.181  17.654  0.00  0.00    +0.000 C 
ATOM     31  C   UNL     1      54.587   0.171  16.452  0.00  0.00    +0.000 C 
ATOM     32  N   UNL     1      55.774   0.959  16.813  0.00  0.00    +0.000 NA
ATOM     33  H   UNL     1      56.004   1.602  16.056  0.00  0.00    +0.000 HD
ENDBRANCH  25  28
ENDBRANCH  23  24
ENDBRANCH   4  23
TORSDOF 6
ENDMDL
MODEL 9
REMARK VINA RESULT:    -6.743      3.213      9.090
REMARK INTER + INTRA:         -10.093
REMARK INTER:                  -8.830
REMARK INTRA:                  -1.263
REMARK UNBOUND:                -0.985
REMARK  Name = 
REMARK  6 active torsions:
REMARK  status: ('A' for Active; 'I' for Inactive)
REMARK    1  A    between atoms: C_2  and  C_20
REMARK    2  A    between atoms: N_3  and  C_4
REMARK    3  A    between atoms: C_4  and  C_5
REMARK    4  A    between atoms: C_8  and  C_9
REMARK    5  A    between atoms: C_9  and  N_10
REMARK    6  A    between atoms: C_11  and  C_13
REMARK                            x       y       z     vdW  Elec       q    Type
REMARK                         _______ _______ _______ _____ _____    ______ ____
ROOT
ATOM      1  C   UNL     1      48.530   7.963  13.180  0.00  0.00    +0.000 A 
ATOM      2  C   UNL     1      47.907   8.283  14.393  0.00  0.00    +0.000 A 
ATOM      3  C   UNL     1      48.636   8.311  15.589  0.00  0.00    +0.000 A 
ATOM      4  C   UNL     1      50.012   8.041  15.593  0.00  0.00    +0.000 A 
ATOM      5  C   UNL     1      50.640   7.752  14.374  0.00  0.00    +0.000 A 
ATOM      6  C   UNL     1      49.909   7.723  13.179  0.00  0.00    +0.000 A 
ENDROOT
BRANCH   1   7
ATOM      7  C   UNL     1      47.725   7.853  11.908  0.00  0.00    +0.000 C 
BRANCH   7  10
ATOM      8  O   UNL     1      45.001   7.508  12.138  0.00  0.00    +0.000 OA
ATOM      9  C   UNL     1      45.681   6.525  11.846  0.00  0.00    +0.000 C 
ATOM     10  N   UNL     1      47.053   6.585  11.777  0.00  0.00    +0.000 N 
ATOM     11  H   UNL     1      47.564   5.828  11.333  0.00  0.00    +0.000 HD
BRANCH   9  12
ATOM     12  C   UNL     1      45.055   5.223  11.589  0.00  0.00    +0.000 A 
ATOM     13  C   UNL     1      44.326   4.596  12.590  0.00  0.00    +0.000 A 
ATOM     14  S   UNL     1      43.664   3.096  12.120  0.00  0.00    +0.000 S 
ATOM     15  C   UNL     1      44.286   3.253  10.544  0.00  0.00    +0.000 A 
ATOM     16  N   UNL     1      44.042   2.309   9.596  0.00  0.00    +0.000 NA
ATOM     17  C   UNL     1      44.539   2.581   8.435  0.00  0.00    +0.000 A 
ATOM     18  N   UNL     1      45.267   3.704   8.139  0.00  0.00    +0.000 N 
ATOM     19  C   UNL     1      45.580   4.660   9.076  0.00  0.00    +0.000 A 
ATOM     20  O   UNL     1      46.298   5.615   8.797  0.00  0.00    +0.000 OA
ATOM     21  C   UNL     1      45.016   4.419  10.391  0.00  0.00    +0.000 A 
ATOM     22  H   UNL     1      45.643   3.845   7.214  0.00  0.00    +0.000 HD
ENDBRANCH   9  12
ENDBRANCH   7  10
ENDBRANCH   1   7
BRANCH   4  23
ATOM     23  C   UNL     1      50.796   8.030  16.883  0.00  0.00    +0.000 C 
BRANCH  23  24
ATOM     24  N   UNL     1      50.232   7.109  17.844  0.00  0.00    +0.000 N 
ATOM     25  C   UNL     1      50.497   5.751  17.779  0.00  0.00    +0.000 C 
ATOM     26  O   UNL     1      51.231   5.256  16.928  0.00  0.00    +0.000 OA
ATOM     27  H   UNL     1      49.493   7.433  18.454  0.00  0.00    +0.000 HD
BRANCH  25  28
ATOM     28  C   UNL     1      49.784   4.944  18.891  0.00  0.00    +0.000 C 
ATOM     29  C   UNL     1      48.367   5.399  19.198  0.00  0.00    +0.000 C 
ATOM     30  C   UNL     1      47.547   4.748  18.101  0.00  0.00    +0.000 C 
ATOM     31  C   UNL     1      48.301   3.468  17.774  0.00  0.00    +0.000 C 
ATOM     32  N   UNL     1      49.600   3.541  18.457  0.00  0.00    +0.000 NA
ATOM     33  H   UNL     1      50.343   3.269  17.814  0.00  0.00    +0.000 HD
ENDBRANCH  25  28
ENDBRANCH  23  24
ENDBRANCH   4  23
TORSDOF 6
ENDMDL
