MODEL 1
REMARK VINA RESULT:    -7.942      0.000      0.000
REMARK INTER + INTRA:         -11.063
REMARK INTER:                 -10.263
REMARK INTRA:                  -0.800
REMARK UNBOUND:                -0.800
REMARK  Name = 
REMARK  5 active torsions:
REMARK  status: ('A' for Active; 'I' for Inactive)
REMARK    1  A    between atoms: C_2  and  C_17
REMARK    2  A    between atoms: N_3  and  C_4
REMARK    3  A    between atoms: C_4  and  C_5
REMARK    4  A    between atoms: C_8  and  C_9
REMARK    5  A    between atoms: C_9  and  N_10
REMARK                            x       y       z     vdW  Elec       q    Type
REMARK                         _______ _______ _______ _____ _____    ______ ____
ROOT
ATOM      1  O   UNL     1      48.268   7.211  12.707  0.00  0.00    +0.000 OA
ATOM      2  C   UNL     1      47.638   6.702  13.633  0.00  0.00    +0.000 C 
ATOM      3  N   UNL     1      46.277   6.552  13.569  0.00  0.00    +0.000 N 
ATOM      4  H   UNL     1      45.781   6.020  14.280  0.00  0.00    +0.000 HD
ENDROOT
BRANCH   2   5
ATOM      5  C   UNL     1      48.310   6.288  14.876  0.00  0.00    +0.000 A 
ATOM      6  C   UNL     1      49.345   7.065  15.380  0.00  0.00    +0.000 A 
ATOM      7  S   UNL     1      49.923   6.542  16.896  0.00  0.00    +0.000 S 
ATOM      8  C   UNL     1      48.823   5.245  16.925  0.00  0.00    +0.000 A 
ATOM      9  N   UNL     1      48.749   4.417  18.002  0.00  0.00    +0.000 NA
ATOM     10  C   UNL     1      47.897   3.455  17.878  0.00  0.00    +0.000 A 
ATOM     11  N   UNL     1      47.130   3.232  16.765  0.00  0.00    +0.000 N 
ATOM     12  C   UNL     1      47.168   4.044  15.658  0.00  0.00    +0.000 A 
ATOM     13  O   UNL     1      46.479   3.808  14.670  0.00  0.00    +0.000 OA
ATOM     14  C   UNL     1      48.072   5.173  15.765  0.00  0.00    +0.000 A 
ATOM     15  H   UNL     1      46.505   2.441  16.717  0.00  0.00    +0.000 HD
ENDBRANCH   2   5
BRANCH   3  16
ATOM     16  C   UNL     1      45.528   7.058  12.450  0.00  0.00    +0.000 C 
BRANCH  16  17
ATOM     17  C   UNL     1      45.312   6.015  11.394  0.00  0.00    +0.000 A 
ATOM     18  C   UNL     1      44.473   4.916  11.598  0.00  0.00    +0.000 A 
ATOM     19  C   UNL     1      44.282   3.993  10.570  0.00  0.00    +0.000 A 
ATOM     20  C   UNL     1      44.932   4.189   9.351  0.00  0.00    +0.000 A 
ATOM     21  N   UNL     1      45.772   5.235   9.146  0.00  0.00    +0.000 NA
ATOM     22  C   UNL     1      45.954   6.105  10.165  0.00  0.00    +0.000 A 
BRANCH  20  23
ATOM     23  C   UNL     1      44.676   3.269   8.187  0.00  0.00    +0.000 C 
BRANCH  23  24
ATOM     24  N   UNL     1      45.907   2.751   7.604  0.00  0.00    +0.000 N 
ATOM     25  C   UNL     1      46.571   3.311   6.541  0.00  0.00    +0.000 A 
ATOM     26  C   UNL     1      47.600   2.466   6.186  0.00  0.00    +0.000 A 
ATOM     27  C   UNL     1      47.560   1.360   7.067  0.00  0.00    +0.000 A 
ATOM     28  C   UNL     1      46.505   1.559   7.933  0.00  0.00    +0.000 A 
ENDBRANCH  23  24
ENDBRANCH  20  23
ENDBRANCH  16  17
ENDBRANCH   3  16
TORSDOF 5
ENDMDL
MODEL 2
REMARK VINA RESULT:    -7.079      2.215      3.496
REMARK INTER + INTRA:          -9.947
REMARK INTER:                  -9.128
REMARK INTRA:                  -0.820
REMARK UNBOUND:                -0.800
REMARK  Name = 
REMARK  5 active torsions:
REMARK  status: ('A' for Active; 'I' for Inactive)
REMARK    1  A    between atoms: C_2  and  C_17
REMARK    2  A    between atoms: N_3  and  C_4
REMARK    3  A    between atoms: C_4  and  C_5
REMARK    4  A    between atoms: C_8  and  C_9
REMARK    5  A    between atoms: C_9  and  N_10
REMARK                            x       y       z     vdW  Elec       q    Type
REMARK                         _______ _______ _______ _____ _____    ______ ____
ROOT
ATOM      1  O   UNL     1      48.269   4.731  16.269  0.00  0.00    +0.000 OA
ATOM      2  C   UNL     1      48.090   5.724  15.566  0.00  0.00    +0.000 C 
ATOM      3  N   UNL     1      47.103   5.755  14.616  0.00  0.00    +0.000 N 
ATOM      4  H   UNL     1      46.881   6.619  14.127  0.00  0.00    +0.000 HD
ENDROOT
BRANCH   2   5
ATOM      5  C   UNL     1      48.969   6.900  15.671  0.00  0.00    +0.000 A 
ATOM      6  C   UNL     1      49.119   7.530  16.900  0.00  0.00    +0.000 A 
ATOM      7  S   UNL     1      50.278   8.780  16.897  0.00  0.00    +0.000 S 
ATOM      8  C   UNL     1      50.608   8.539  15.246  0.00  0.00    +0.000 A 
ATOM      9  N   UNL     1      51.574   9.260  14.615  0.00  0.00    +0.000 NA
ATOM     10  C   UNL     1      51.697   9.001  13.356  0.00  0.00    +0.000 A 
ATOM     11  N   UNL     1      50.926   8.102  12.666  0.00  0.00    +0.000 N 
ATOM     12  C   UNL     1      49.944   7.349  13.263  0.00  0.00    +0.000 A 
ATOM     13  O   UNL     1      49.260   6.565  12.613  0.00  0.00    +0.000 OA
ATOM     14  C   UNL     1      49.799   7.564  14.690  0.00  0.00    +0.000 A 
ATOM     15  H   UNL     1      51.050   7.969  11.674  0.00  0.00    +0.000 HD
ENDBRANCH   2   5
BRANCH   3  16
ATOM     16  C   UNL     1      46.292   4.596  14.353  0.00  0.00    +0.000 C 
BRANCH  16  17
ATOM     17  C   UNL     1      45.867   4.514  12.917  0.00  0.00    +0.000 A 
ATOM     18  C   UNL     1      46.064   5.571  12.024  0.00  0.00    +0.000 A 
ATOM     19  C   UNL     1      45.679   5.430  10.691  0.00  0.00    +0.000 A 
ATOM     20  C   UNL     1      45.106   4.228  10.273  0.00  0.00    +0.000 A 
ATOM     21  N   UNL     1      44.881   3.203  11.133  0.00  0.00    +0.000 NA
ATOM     22  C   UNL     1      45.247   3.372  12.424  0.00  0.00    +0.000 A 
BRANCH  20  23
ATOM     23  C   UNL     1      44.766   4.001   8.824  0.00  0.00    +0.000 C 
BRANCH  23  24
ATOM     24  N   UNL     1      45.785   3.228   8.126  0.00  0.00    +0.000 N 
ATOM     25  C   UNL     1      46.570   3.702   7.104  0.00  0.00    +0.000 A 
ATOM     26  C   UNL     1      47.303   2.648   6.604  0.00  0.00    +0.000 A 
ATOM     27  C   UNL     1      46.953   1.499   7.351  0.00  0.00    +0.000 A 
ATOM     28  C   UNL     1      46.013   1.883   8.284  0.00  0.00    +0.000 A 
ENDBRANCH  23  24
ENDBRANCH  20  23
ENDBRANCH  16  17
ENDBRANCH   3  16
TORSDOF 5
ENDMDL
MODEL 3
REMARK VINA RESULT:    -7.064      1.573      2.261
REMARK INTER + INTRA:          -9.929
REMARK INTER:                  -9.047
REMARK INTRA:                  -0.882
REMARK UNBOUND:                -0.800
REMARK  Name = 
REMARK  5 active torsions:
REMARK  status: ('A' for Active; 'I' for Inactive)
REMARK    1  A    between atoms: C_2  and  C_17
REMARK    2  A    between atoms: N_3  and  C_4
REMARK    3  A    between atoms: C_4  and  C_5
REMARK    4  A    between atoms: C_8  and  C_9
REMARK    5  A    between atoms: C_9  and  N_10
REMARK                            x       y       z     vdW  Elec       q    Type
REMARK                         _______ _______ _______ _____ _____    ______ ____
ROOT
ATOM      1  O   UNL     1      50.041   7.538  14.253  0.00  0.00    +0.000 OA
ATOM      2  C   UNL     1      49.180   7.112  15.021  0.00  0.00    +0.000 C 
ATOM      3  N   UNL     1      47.846   7.229  14.730  0.00  0.00    +0.000 N 
ATOM      4  H   UNL     1      47.147   6.766  15.306  0.00  0.00    +0.000 HD
ENDROOT
BRANCH   2   5
ATOM      5  C   UNL     1      49.543   6.513  16.316  0.00  0.00    +0.000 A 
ATOM      6  C   UNL     1      50.443   7.174  17.142  0.00  0.00    +0.000 A 
ATOM      7  S   UNL     1      50.650   6.435  18.664  0.00  0.00    +0.000 S 
ATOM      8  C   UNL     1      49.559   5.193  18.267  0.00  0.00    +0.000 A 
ATOM      9  N   UNL     1      49.229   4.237  19.177  0.00  0.00    +0.000 NA
ATOM     10  C   UNL     1      48.417   3.335  18.735  0.00  0.00    +0.000 A 
ATOM     11  N   UNL     1      47.924   3.291  17.457  0.00  0.00    +0.000 N 
ATOM     12  C   UNL     1      48.225   4.237  16.507  0.00  0.00    +0.000 A 
ATOM     13  O   UNL     1      47.780   4.160  15.367  0.00  0.00    +0.000 OA
ATOM     14  C   UNL     1      49.094   5.304  16.969  0.00  0.00    +0.000 A 
ATOM     15  H   UNL     1      47.318   2.540  17.162  0.00  0.00    +0.000 HD
ENDBRANCH   2   5
BRANCH   3  16
ATOM     16  C   UNL     1      47.404   7.926  13.552  0.00  0.00    +0.000 C 
BRANCH  16  17
ATOM     17  C   UNL     1      46.392   7.141  12.773  0.00  0.00    +0.000 A 
ATOM     18  C   UNL     1      45.322   7.756  12.116  0.00  0.00    +0.000 A 
ATOM     19  C   UNL     1      44.427   6.982  11.378  0.00  0.00    +0.000 A 
ATOM     20  C   UNL     1      44.621   5.601  11.307  0.00  0.00    +0.000 A 
ATOM     21  N   UNL     1      45.637   4.985  11.962  0.00  0.00    +0.000 NA
ATOM     22  C   UNL     1      46.480   5.757  12.685  0.00  0.00    +0.000 A 
BRANCH  20  23
ATOM     23  C   UNL     1      43.735   4.743  10.443  0.00  0.00    +0.000 C 
BRANCH  23  24
ATOM     24  N   UNL     1      44.494   3.832   9.597  0.00  0.00    +0.000 N 
ATOM     25  C   UNL     1      45.154   4.191   8.448  0.00  0.00    +0.000 A 
ATOM     26  C   UNL     1      45.627   3.043   7.851  0.00  0.00    +0.000 A 
ATOM     27  C   UNL     1      45.244   1.953   8.668  0.00  0.00    +0.000 A 
ATOM     28  C   UNL     1      44.544   2.467   9.739  0.00  0.00    +0.000 A 
ENDBRANCH  23  24
ENDBRANCH  20  23
ENDBRANCH  16  17
ENDBRANCH   3  16
TORSDOF 5
ENDMDL
MODEL 4
REMARK VINA RESULT:    -6.951      1.638      2.306
REMARK INTER + INTRA:          -9.782
REMARK INTER:                  -8.888
REMARK INTRA:                  -0.894
REMARK UNBOUND:                -0.800
REMARK  Name = 
REMARK  5 active torsions:
REMARK  status: ('A' for Active; 'I' for Inactive)
REMARK    1  A    between atoms: C_2  and  C_17
REMARK    2  A    between atoms: N_3  and  C_4
REMARK    3  A    between atoms: C_4  and  C_5
REMARK    4  A    between atoms: C_8  and  C_9
REMARK    5  A    between atoms: C_9  and  N_10
REMARK                            x       y       z     vdW  Elec       q    Type
REMARK                         _______ _______ _______ _____ _____    ______ ____
ROOT
ATOM      1  O   UNL     1      46.317   8.242  13.238  0.00  0.00    +0.000 OA
ATOM      2  C   UNL     1      47.048   7.272  13.433  0.00  0.00    +0.000 C 
ATOM      3  N   UNL     1      46.591   5.991  13.263  0.00  0.00    +0.000 N 
ATOM      4  H   UNL     1      47.233   5.202  13.304  0.00  0.00    +0.000 HD
ENDROOT
BRANCH   2   5
ATOM      5  C   UNL     1      48.427   7.443  13.919  0.00  0.00    +0.000 A 
ATOM      6  C   UNL     1      49.265   8.349  13.281  0.00  0.00    +0.000 A 
ATOM      7  S   UNL     1      50.776   8.544  14.045  0.00  0.00    +0.000 S 
ATOM      8  C   UNL     1      50.373   7.409  15.246  0.00  0.00    +0.000 A 
ATOM      9  N   UNL     1      51.227   7.146  16.273  0.00  0.00    +0.000 NA
ATOM     10  C   UNL     1      50.812   6.240  17.094  0.00  0.00    +0.000 A 
ATOM     11  N   UNL     1      49.630   5.558  16.969  0.00  0.00    +0.000 N 
ATOM     12  C   UNL     1      48.735   5.794  15.953  0.00  0.00    +0.000 A 
ATOM     13  O   UNL     1      47.693   5.154  15.861  0.00  0.00    +0.000 OA
ATOM     14  C   UNL     1      49.130   6.842  15.030  0.00  0.00    +0.000 A 
ATOM     15  H   UNL     1      49.377   4.836  17.627  0.00  0.00    +0.000 HD
ENDBRANCH   2   5
BRANCH   3  16
ATOM     16  C   UNL     1      45.217   5.734  12.926  0.00  0.00    +0.000 C 
BRANCH  16  17
ATOM     17  C   UNL     1      45.064   5.195  11.535  0.00  0.00    +0.000 A 
ATOM     18  C   UNL     1      45.833   5.671  10.467  0.00  0.00    +0.000 A 
ATOM     19  C   UNL     1      45.673   5.112   9.199  0.00  0.00    +0.000 A 
ATOM     20  C   UNL     1      44.748   4.082   9.021  0.00  0.00    +0.000 A 
ATOM     21  N   UNL     1      43.974   3.629  10.040  0.00  0.00    +0.000 NA
ATOM     22  C   UNL     1      44.136   4.200  11.256  0.00  0.00    +0.000 A 
BRANCH  20  23
ATOM     23  C   UNL     1      44.616   3.389   7.692  0.00  0.00    +0.000 C 
BRANCH  23  24
ATOM     24  N   UNL     1      45.852   2.739   7.275  0.00  0.00    +0.000 N 
ATOM     25  C   UNL     1      46.406   1.640   7.883  0.00  0.00    +0.000 A 
ATOM     26  C   UNL     1      47.636   1.407   7.306  0.00  0.00    +0.000 A 
ATOM     27  C   UNL     1      47.831   2.397   6.315  0.00  0.00    +0.000 A 
ATOM     28  C   UNL     1      46.716   3.208   6.316  0.00  0.00    +0.000 A 
ENDBRANCH  23  24
ENDBRANCH  20  23
ENDBRANCH  16  17
ENDBRANCH   3  16
TORSDOF 5
ENDMDL
MODEL 5
REMARK VINA RESULT:    -6.809      2.820      3.842
REMARK INTER + INTRA:          -9.600
REMARK INTER:                  -8.765
REMARK INTRA:                  -0.834
REMARK UNBOUND:                -0.800
REMARK  Name = 
REMARK  5 active torsions:
REMARK  status: ('A' for Active; 'I' for Inactive)
REMARK    1  A    between atoms: C_2  and  C_17
REMARK    2  A    between atoms: N_3  and  C_4
REMARK    3  A    between atoms: C_4  and  C_5
REMARK    4  A    between atoms: C_8  and  C_9
REMARK    5  A    between atoms: C_9  and  N_10
REMARK                            x       y       z     vdW  Elec       q    Type
REMARK                         _______ _______ _______ _____ _____    ______ ____
ROOT
ATOM      1  O   UNL     1      50.014   5.910  15.938  0.00  0.00    +0.000 OA
ATOM      2  C   UNL     1      48.872   6.237  16.260  0.00  0.00    +0.000 C 
ATOM      3  N   UNL     1      47.937   6.577  15.318  0.00  0.00    +0.000 N 
ATOM      4  H   UNL     1      46.965   6.724  15.581  0.00  0.00    +0.000 HD
ENDROOT
BRANCH   2   5
ATOM      5  C   UNL     1      48.480   6.341  17.675  0.00  0.00    +0.000 A 
ATOM      6  C   UNL     1      48.497   5.202  18.471  0.00  0.00    +0.000 A 
ATOM      7  S   UNL     1      48.161   5.505  20.114  0.00  0.00    +0.000 S 
ATOM      8  C   UNL     1      47.961   7.168  19.819  0.00  0.00    +0.000 A 
ATOM      9  N   UNL     1      47.714   8.033  20.840  0.00  0.00    +0.000 NA
ATOM     10  C   UNL     1      47.549   9.260  20.473  0.00  0.00    +0.000 A 
ATOM     11  N   UNL     1      47.587   9.697  19.175  0.00  0.00    +0.000 N 
ATOM     12  C   UNL     1      47.839   8.861  18.113  0.00  0.00    +0.000 A 
ATOM     13  O   UNL     1      47.850   9.280  16.960  0.00  0.00    +0.000 OA
ATOM     14  C   UNL     1      48.083   7.477  18.476  0.00  0.00    +0.000 A 
ATOM     15  H   UNL     1      47.417  10.665  18.948  0.00  0.00    +0.000 HD
ENDBRANCH   2   5
BRANCH   3  16
ATOM     16  C   UNL     1      48.280   6.637  13.922  0.00  0.00    +0.000 C 
BRANCH  16  17
ATOM     17  C   UNL     1      47.157   6.181  13.040  0.00  0.00    +0.000 A 
ATOM     18  C   UNL     1      46.696   6.952  11.968  0.00  0.00    +0.000 A 
ATOM     19  C   UNL     1      45.669   6.465  11.159  0.00  0.00    +0.000 A 
ATOM     20  C   UNL     1      45.123   5.210  11.435  0.00  0.00    +0.000 A 
ATOM     21  N   UNL     1      45.539   4.462  12.488  0.00  0.00    +0.000 NA
ATOM     22  C   UNL     1      46.524   4.965  13.268  0.00  0.00    +0.000 A 
BRANCH  20  23
ATOM     23  C   UNL     1      44.082   4.609  10.529  0.00  0.00    +0.000 C 
BRANCH  23  24
ATOM     24  N   UNL     1      44.655   3.695   9.550  0.00  0.00    +0.000 N 
ATOM     25  C   UNL     1      44.693   2.328   9.677  0.00  0.00    +0.000 A 
ATOM     26  C   UNL     1      45.436   1.822   8.633  0.00  0.00    +0.000 A 
ATOM     27  C   UNL     1      45.859   2.918   7.846  0.00  0.00    +0.000 A 
ATOM     28  C   UNL     1      45.365   4.064   8.433  0.00  0.00    +0.000 A 
ENDBRANCH  23  24
ENDBRANCH  20  23
ENDBRANCH  16  17
ENDBRANCH   3  16
TORSDOF 5
ENDMDL
MODEL 6
REMARK VINA RESULT:    -6.598      3.812      8.525
REMARK INTER + INTRA:          -9.327
REMARK INTER:                  -8.503
REMARK INTRA:                  -0.824
REMARK UNBOUND:                -0.800
REMARK  Name = 
REMARK  5 active torsions:
REMARK  status: ('A' for Active; 'I' for Inactive)
REMARK    1  A    between atoms: C_2  and  C_17
REMARK    2  A    between atoms: N_3  and  C_4
REMARK    3  A    between atoms: C_4  and  C_5
REMARK    4  A    between atoms: C_8  and  C_9
REMARK    5  A    between atoms: C_9  and  N_10
REMARK                            x       y       z     vdW  Elec       q    Type
REMARK                         _______ _______ _______ _____ _____    ______ ____
ROOT
ATOM      1  O   UNL     1      47.253   3.152  14.074  0.00  0.00    +0.000 OA
ATOM      2  C   UNL     1      46.859   4.217  14.549  0.00  0.00    +0.000 C 
ATOM      3  N   UNL     1      46.848   4.430  15.903  0.00  0.00    +0.000 N 
ATOM      4  H   UNL     1      46.641   5.352  16.281  0.00  0.00    +0.000 HD
ENDROOT
BRANCH   2   5
ATOM      5  C   UNL     1      46.325   5.284  13.689  0.00  0.00    +0.000 A 
ATOM      6  C   UNL     1      47.104   6.405  13.432  0.00  0.00    +0.000 A 
ATOM      7  S   UNL     1      46.412   7.481  12.305  0.00  0.00    +0.000 S 
ATOM      8  C   UNL     1      45.035   6.497  12.134  0.00  0.00    +0.000 A 
ATOM      9  N   UNL     1      44.053   6.820  11.250  0.00  0.00    +0.000 NA
ATOM     10  C   UNL     1      43.049   6.007  11.246  0.00  0.00    +0.000 A 
ATOM     11  N   UNL     1      42.930   4.913  12.063  0.00  0.00    +0.000 N 
ATOM     12  C   UNL     1      43.899   4.546  12.965  0.00  0.00    +0.000 A 
ATOM     13  O   UNL     1      43.754   3.570  13.694  0.00  0.00    +0.000 OA
ATOM     14  C   UNL     1      45.073   5.398  12.973  0.00  0.00    +0.000 A 
ATOM     15  H   UNL     1      42.104   4.334  12.035  0.00  0.00    +0.000 HD
ENDBRANCH   2   5
BRANCH   3  16
ATOM     16  C   UNL     1      47.221   3.387  16.820  0.00  0.00    +0.000 C 
BRANCH  16  17
ATOM     17  C   UNL     1      48.594   3.593  17.387  0.00  0.00    +0.000 A 
ATOM     18  C   UNL     1      49.660   2.743  17.077  0.00  0.00    +0.000 A 
ATOM     19  C   UNL     1      50.924   2.999  17.606  0.00  0.00    +0.000 A 
ATOM     20  C   UNL     1      51.103   4.107  18.435  0.00  0.00    +0.000 A 
ATOM     21  N   UNL     1      50.073   4.926  18.770  0.00  0.00    +0.000 NA
ATOM     22  C   UNL     1      48.853   4.645  18.257  0.00  0.00    +0.000 A 
BRANCH  20  23
ATOM     23  C   UNL     1      52.470   4.473  18.948  0.00  0.00    +0.000 C 
BRANCH  23  24
ATOM     24  N   UNL     1      53.333   5.009  17.903  0.00  0.00    +0.000 N 
ATOM     25  C   UNL     1      53.077   6.147  17.179  0.00  0.00    +0.000 A 
ATOM     26  C   UNL     1      54.034   6.251  16.193  0.00  0.00    +0.000 A 
ATOM     27  C   UNL     1      54.899   5.141  16.327  0.00  0.00    +0.000 A 
ATOM     28  C   UNL     1      54.444   4.388  17.389  0.00  0.00    +0.000 A 
ENDBRANCH  23  24
ENDBRANCH  20  23
ENDBRANCH  16  17
ENDBRANCH   3  16
TORSDOF 5
ENDMDL
MODEL 7
REMARK VINA RESULT:    -6.530      3.618      7.919
REMARK INTER + INTRA:          -9.239
REMARK INTER:                  -8.302
REMARK INTRA:                  -0.936
REMARK UNBOUND:                -0.800
REMARK  Name = 
REMARK  5 active torsions:
REMARK  status: ('A' for Active; 'I' for Inactive)
REMARK    1  A    between atoms: C_2  and  C_17
REMARK    2  A    between atoms: N_3  and  C_4
REMARK    3  A    between atoms: C_4  and  C_5
REMARK    4  A    between atoms: C_8  and  C_9
REMARK    5  A    between atoms: C_9  and  N_10
REMARK                            x       y       z     vdW  Elec       q    Type
REMARK                         _______ _______ _______ _____ _____    ______ ____
ROOT
ATOM      1  O   UNL     1      47.272   7.774  11.834  0.00  0.00    +0.000 OA
ATOM      2  C   UNL     1      46.637   7.080  12.628  0.00  0.00    +0.000 C 
ATOM      3  N   UNL     1      47.115   6.821  13.886  0.00  0.00    +0.000 N 
ATOM      4  H   UNL     1      46.530   6.354  14.576  0.00  0.00    +0.000 HD
ENDROOT
BRANCH   2   5
ATOM      5  C   UNL     1      45.368   6.446  12.238  0.00  0.00    +0.000 A 
ATOM      6  C   UNL     1      44.351   7.230  11.706  0.00  0.00    +0.000 A 
ATOM      7  S   UNL     1      43.003   6.336  11.169  0.00  0.00    +0.000 S 
ATOM      8  C   UNL     1      43.720   4.870  11.647  0.00  0.00    +0.000 A 
ATOM      9  N   UNL     1      43.102   3.681  11.408  0.00  0.00    +0.000 NA
ATOM     10  C   UNL     1      43.739   2.649  11.853  0.00  0.00    +0.000 A 
ATOM     11  N   UNL     1      44.927   2.701  12.534  0.00  0.00    +0.000 N 
ATOM     12  C   UNL     1      45.589   3.878  12.791  0.00  0.00    +0.000 A 
ATOM     13  O   UNL     1      46.644   3.891  13.418  0.00  0.00    +0.000 OA
ATOM     14  C   UNL     1      44.941   5.065  12.267  0.00  0.00    +0.000 A 
ATOM     15  H   UNL     1      45.360   1.860  12.885  0.00  0.00    +0.000 HD
ENDBRANCH   2   5
BRANCH   3  16
ATOM     16  C   UNL     1      48.412   7.287  14.296  0.00  0.00    +0.000 C 
BRANCH  16  17
ATOM     17  C   UNL     1      48.940   6.530  15.479  0.00  0.00    +0.000 A 
ATOM     18  C   UNL     1      48.133   5.667  16.226  0.00  0.00    +0.000 A 
ATOM     19  C   UNL     1      48.682   4.962  17.297  0.00  0.00    +0.000 A 
ATOM     20  C   UNL     1      50.034   5.131  17.600  0.00  0.00    +0.000 A 
ATOM     21  N   UNL     1      50.824   5.988  16.904  0.00  0.00    +0.000 NA
ATOM     22  C   UNL     1      50.262   6.672  15.881  0.00  0.00    +0.000 A 
BRANCH  20  23
ATOM     23  C   UNL     1      50.687   4.318  18.686  0.00  0.00    +0.000 C 
BRANCH  23  24
ATOM     24  N   UNL     1      51.474   3.212  18.157  0.00  0.00    +0.000 N 
ATOM     25  C   UNL     1      50.955   2.103  17.536  0.00  0.00    +0.000 A 
ATOM     26  C   UNL     1      51.986   1.218  17.309  0.00  0.00    +0.000 A 
ATOM     27  C   UNL     1      53.169   1.812  17.806  0.00  0.00    +0.000 A 
ATOM     28  C   UNL     1      52.827   3.043  18.326  0.00  0.00    +0.000 A 
ENDBRANCH  23  24
ENDBRANCH  20  23
ENDBRANCH  16  17
ENDBRANCH   3  16
TORSDOF 5
ENDMDL
MODEL 8
REMARK VINA RESULT:    -6.446      3.186      4.736
REMARK INTER + INTRA:          -9.130
REMARK INTER:                  -8.181
REMARK INTRA:                  -0.950
REMARK UNBOUND:                -0.800
REMARK  Name = 
REMARK  5 active torsions:
REMARK  status: ('A' for Active; 'I' for Inactive)
REMARK    1  A    between atoms: C_2  and  C_17
REMARK    2  A    between atoms: N_3  and  C_4
REMARK    3  A    between atoms: C_4  and  C_5
REMARK    4  A    between atoms: C_8  and  C_9
REMARK    5  A    between atoms: C_9  and  N_10
REMARK                            x       y       z     vdW  Elec       q    Type
REMARK                         _______ _______ _______ _____ _____    ______ ____
ROOT
ATOM      1  O   UNL     1      49.949   6.477  15.564  0.00  0.00    +0.000 OA
ATOM      2  C   UNL     1      49.523   7.285  14.741  0.00  0.00    +0.000 C 
ATOM      3  N   UNL     1      48.332   7.081  14.094  0.00  0.00    +0.000 N 
ATOM      4  H   UNL     1      47.928   7.811  13.510  0.00  0.00    +0.000 HD
ENDROOT
BRANCH   2   5
ATOM      5  C   UNL     1      50.304   8.475  14.367  0.00  0.00    +0.000 A 
ATOM      6  C   UNL     1      50.681   9.379  15.353  0.00  0.00    +0.000 A 
ATOM      7  S   UNL     1      51.703  10.623  14.793  0.00  0.00    +0.000 S 
ATOM      8  C   UNL     1      51.663  10.011  13.206  0.00  0.00    +0.000 A 
ATOM      9  N   UNL     1      52.396  10.590  12.217  0.00  0.00    +0.000 NA
ATOM     10  C   UNL     1      52.247  10.047  11.055  0.00  0.00    +0.000 A 
ATOM     11  N   UNL     1      51.413   8.993  10.788  0.00  0.00    +0.000 N 
ATOM     12  C   UNL     1      50.659   8.374  11.756  0.00  0.00    +0.000 A 
ATOM     13  O   UNL     1      49.910   7.442  11.482  0.00  0.00    +0.000 OA
ATOM     14  C   UNL     1      50.830   8.913  13.093  0.00  0.00    +0.000 A 
ATOM     15  H   UNL     1      51.316   8.634   9.850  0.00  0.00    +0.000 HD
ENDBRANCH   2   5
BRANCH   3  16
ATOM     16  C   UNL     1      47.576   5.875  14.297  0.00  0.00    +0.000 C 
BRANCH  16  17
ATOM     17  C   UNL     1      46.706   5.544  13.122  0.00  0.00    +0.000 A 
ATOM     18  C   UNL     1      46.674   6.344  11.975  0.00  0.00    +0.000 A 
ATOM     19  C   UNL     1      45.871   5.973  10.897  0.00  0.00    +0.000 A 
ATOM     20  C   UNL     1      45.114   4.803  10.983  0.00  0.00    +0.000 A 
ATOM     21  N   UNL     1      45.111   4.032  12.100  0.00  0.00    +0.000 NA
ATOM     22  C   UNL     1      45.885   4.424  13.138  0.00  0.00    +0.000 A 
BRANCH  20  23
ATOM     23  C   UNL     1      44.311   4.319   9.806  0.00  0.00    +0.000 C 
BRANCH  23  24
ATOM     24  N   UNL     1      45.068   3.418   8.947  0.00  0.00    +0.000 N 
ATOM     25  C   UNL     1      45.178   2.062   9.132  0.00  0.00    +0.000 A 
ATOM     26  C   UNL     1      46.085   1.578   8.215  0.00  0.00    +0.000 A 
ATOM     27  C   UNL     1      46.535   2.676   7.446  0.00  0.00    +0.000 A 
ATOM     28  C   UNL     1      45.893   3.802   7.918  0.00  0.00    +0.000 A 
ENDBRANCH  23  24
ENDBRANCH  20  23
ENDBRANCH  16  17
ENDBRANCH   3  16
TORSDOF 5
ENDMDL
MODEL 9
REMARK VINA RESULT:    -6.433      3.577      9.300
REMARK INTER + INTRA:          -9.113
REMARK INTER:                  -8.190
REMARK INTRA:                  -0.922
REMARK UNBOUND:                -0.800
REMARK  Name = 
REMARK  5 active torsions:
REMARK  status: ('A' for Active; 'I' for Inactive)
REMARK    1  A    between atoms: C_2  and  C_17
REMARK    2  A    between atoms: N_3  and  C_4
REMARK    3  A    between atoms: C_4  and  C_5
REMARK    4  A    between atoms: C_8  and  C_9
REMARK    5  A    between atoms: C_9  and  N_10
REMARK                            x       y       z     vdW  Elec       q    Type
REMARK                         _______ _______ _______ _____ _____    ______ ____
ROOT
ATOM      1  O   UNL     1      48.326   5.818  13.807  0.00  0.00    +0.000 OA
ATOM      2  C   UNL     1      47.163   5.468  14.002  0.00  0.00    +0.000 C 
ATOM      3  N   UNL     1      46.807   4.778  15.131  0.00  0.00    +0.000 N 
ATOM      4  H   UNL     1      45.828   4.602  15.345  0.00  0.00    +0.000 HD
ENDROOT
BRANCH   2   5
ATOM      5  C   UNL     1      46.114   5.721  13.001  0.00  0.00    +0.000 A 
ATOM      6  C   UNL     1      45.767   7.031  12.694  0.00  0.00    +0.000 A 
ATOM      7  S   UNL     1      44.647   7.165  11.417  0.00  0.00    +0.000 S 
ATOM      8  C   UNL     1      44.567   5.475  11.240  0.00  0.00    +0.000 A 
ATOM      9  N   UNL     1      43.816   4.912  10.256  0.00  0.00    +0.000 NA
ATOM     10  C   UNL     1      43.818   3.620  10.256  0.00  0.00    +0.000 A 
ATOM     11  N   UNL     1      44.485   2.842  11.165  0.00  0.00    +0.000 N 
ATOM     12  C   UNL     1      45.260   3.368  12.171  0.00  0.00    +0.000 A 
ATOM     13  O   UNL     1      45.831   2.644  12.980  0.00  0.00    +0.000 OA
ATOM     14  C   UNL     1      45.334   4.817  12.184  0.00  0.00    +0.000 A 
ATOM     15  H   UNL     1      44.421   1.836  11.132  0.00  0.00    +0.000 HD
ENDBRANCH   2   5
BRANCH   3  16
ATOM     16  C   UNL     1      47.797   4.369  16.091  0.00  0.00    +0.000 C 
BRANCH  16  17
ATOM     17  C   UNL     1      47.893   5.318  17.248  0.00  0.00    +0.000 A 
ATOM     18  C   UNL     1      47.053   5.217  18.361  0.00  0.00    +0.000 A 
ATOM     19  C   UNL     1      47.206   6.106  19.425  0.00  0.00    +0.000 A 
ATOM     20  C   UNL     1      48.202   7.080  19.358  0.00  0.00    +0.000 A 
ATOM     21  N   UNL     1      49.007   7.211  18.273  0.00  0.00    +0.000 NA
ATOM     22  C   UNL     1      48.826   6.347  17.248  0.00  0.00    +0.000 A 
BRANCH  20  23
ATOM     23  C   UNL     1      48.463   7.996  20.525  0.00  0.00    +0.000 C 
BRANCH  23  24
ATOM     24  N   UNL     1      48.021   9.361  20.273  0.00  0.00    +0.000 N 
ATOM     25  C   UNL     1      46.710   9.756  20.164  0.00  0.00    +0.000 A 
ATOM     26  C   UNL     1      46.693  11.079  19.781  0.00  0.00    +0.000 A 
ATOM     27  C   UNL     1      48.038  11.500  19.657  0.00  0.00    +0.000 A 
ATOM     28  C   UNL     1      48.839  10.420  19.965  0.00  0.00    +0.000 A 
ENDBRANCH  23  24
ENDBRANCH  20  23
ENDBRANCH  16  17
ENDBRANCH   3  16
TORSDOF 5
ENDMDL
