MODEL 1
REMARK VINA RESULT:    -8.250      0.000      0.000
REMARK INTER + INTRA:         -14.278
REMARK INTER:                 -12.591
REMARK INTRA:                  -1.687
REMARK UNBOUND:                -1.687
REMARK  Name = 
REMARK  10 active torsions:
REMARK  status: ('A' for Active; 'I' for Inactive)
REMARK    1  A    between atoms: C_1  and  C_2
REMARK    2  A    between atoms: C_2  and  N_3
REMARK    3  A    between atoms: C_2  and  C_25
REMARK    4  A    between atoms: N_3  and  C_4
REMARK    5  A    between atoms: C_4  and  C_5
REMARK    6  A    between atoms: C_8  and  C_9
REMARK    7  A    between atoms: C_9  and  N_10
REMARK    8  A    between atoms: C_11  and  C_13
REMARK    9  A    between atoms: C_29  and  O_30
REMARK   10  A    between atoms: O_30  and  C_31
REMARK                            x       y       z     vdW  Elec       q    Type
REMARK                         _______ _______ _______ _____ _____    ______ ____
ROOT
ATOM      1  C   UNL     1      47.769   6.125  14.533  0.00  0.00    +0.000 A 
ATOM      2  C   UNL     1      48.548   6.401  15.665  0.00  0.00    +0.000 A 
ATOM      3  C   UNL     1      48.667   5.462  16.695  0.00  0.00    +0.000 A 
ATOM      4  C   UNL     1      48.010   4.228  16.615  0.00  0.00    +0.000 A 
ATOM      5  C   UNL     1      47.191   3.972  15.508  0.00  0.00    +0.000 A 
ATOM      6  C   UNL     1      47.079   4.905  14.474  0.00  0.00    +0.000 A 
ENDROOT
BRANCH   1   7
ATOM      7  C   UNL     1      47.669   7.116  13.391  0.00  0.00    +0.000 C 
BRANCH   7   8
ATOM      8  N   UNL     1      47.430   6.435  12.118  0.00  0.00    +0.000 NA
ATOM      9  H   UNL     1      48.195   6.654  11.480  0.00  0.00    +0.000 HD
BRANCH   8  11
ATOM     10  C   UNL     1      45.186   7.498  12.427  0.00  0.00    +0.000 C 
ATOM     11  C   UNL     1      46.169   6.810  11.466  0.00  0.00    +0.000 C 
BRANCH  11  12
ATOM     12  C   UNL     1      45.495   5.571  10.888  0.00  0.00    +0.000 A 
ATOM     13  C   UNL     1      44.657   4.772  11.680  0.00  0.00    +0.000 A 
ATOM     14  C   UNL     1      43.994   3.674  11.136  0.00  0.00    +0.000 A 
ATOM     15  C   UNL     1      44.149   3.358   9.785  0.00  0.00    +0.000 A 
ATOM     16  C   UNL     1      44.950   4.157   8.972  0.00  0.00    +0.000 A 
ATOM     17  C   UNL     1      45.651   5.233   9.534  0.00  0.00    +0.000 A 
BRANCH  16  18
ATOM     18  O   UNL     1      45.159   3.967   7.639  0.00  0.00    +0.000 OA
BRANCH  18  19
ATOM     19  C   UNL     1      46.347   3.308   7.221  0.00  0.00    +0.000 C 
ATOM     20  F   UNL     1      46.660   2.208   7.936  0.00  0.00    +0.000 F 
ATOM     21  F   UNL     1      46.193   2.927   5.931  0.00  0.00    +0.000 F 
ATOM     22  F   UNL     1      47.385   4.174   7.278  0.00  0.00    +0.000 F 
ENDBRANCH  18  19
ENDBRANCH  16  18
ENDBRANCH  11  12
ENDBRANCH   8  11
ENDBRANCH   7   8
ENDBRANCH   1   7
BRANCH   4  23
ATOM     23  C   UNL     1      48.128   3.213  17.723  0.00  0.00    +0.000 C 
BRANCH  23  24
ATOM     24  N   UNL     1      49.510   2.921  17.986  0.00  0.00    +0.000 N 
ATOM     25  C   UNL     1      50.269   2.159  17.135  0.00  0.00    +0.000 C 
ATOM     26  O   UNL     1      49.828   1.726  16.074  0.00  0.00    +0.000 OA
ATOM     27  H   UNL     1      49.822   3.057  18.939  0.00  0.00    +0.000 HD
BRANCH  25  28
ATOM     28  C   UNL     1      51.668   1.957  17.531  0.00  0.00    +0.000 A 
ATOM     29  C   UNL     1      52.142   0.671  17.753  0.00  0.00    +0.000 A 
ATOM     30  S   UNL     1      53.808   0.612  18.110  0.00  0.00    +0.000 S 
ATOM     31  C   UNL     1      53.940   2.307  18.040  0.00  0.00    +0.000 A 
ATOM     32  N   UNL     1      55.133   2.930  18.253  0.00  0.00    +0.000 NA
ATOM     33  C   UNL     1      55.083   4.216  18.200  0.00  0.00    +0.000 A 
ATOM     34  N   UNL     1      53.950   4.941  17.947  0.00  0.00    +0.000 N 
ATOM     35  C   UNL     1      52.730   4.362  17.710  0.00  0.00    +0.000 A 
ATOM     36  O   UNL     1      51.735   5.040  17.479  0.00  0.00    +0.000 OA
ATOM     37  C   UNL     1      52.730   2.909  17.750  0.00  0.00    +0.000 A 
ATOM     38  H   UNL     1      53.973   5.949  17.924  0.00  0.00    +0.000 HD
ENDBRANCH  25  28
ENDBRANCH  23  24
ENDBRANCH   4  23
TORSDOF 9
ENDMDL
MODEL 2
REMARK VINA RESULT:    -8.065      1.438      2.508
REMARK INTER + INTRA:         -13.996
REMARK INTER:                 -12.836
REMARK INTRA:                  -1.159
REMARK UNBOUND:                -1.687
REMARK  Name = 
REMARK  10 active torsions:
REMARK  status: ('A' for Active; 'I' for Inactive)
REMARK    1  A    between atoms: C_1  and  C_2
REMARK    2  A    between atoms: C_2  and  N_3
REMARK    3  A    between atoms: C_2  and  C_25
REMARK    4  A    between atoms: N_3  and  C_4
REMARK    5  A    between atoms: C_4  and  C_5
REMARK    6  A    between atoms: C_8  and  C_9
REMARK    7  A    between atoms: C_9  and  N_10
REMARK    8  A    between atoms: C_11  and  C_13
REMARK    9  A    between atoms: C_29  and  O_30
REMARK   10  A    between atoms: O_30  and  C_31
REMARK                            x       y       z     vdW  Elec       q    Type
REMARK                         _______ _______ _______ _____ _____    ______ ____
ROOT
ATOM      1  C   UNL     1      47.136   5.148  14.194  0.00  0.00    +0.000 A 
ATOM      2  C   UNL     1      47.903   6.320  14.132  0.00  0.00    +0.000 A 
ATOM      3  C   UNL     1      48.679   6.723  15.224  0.00  0.00    +0.000 A 
ATOM      4  C   UNL     1      48.705   5.963  16.400  0.00  0.00    +0.000 A 
ATOM      5  C   UNL     1      47.900   4.819  16.481  0.00  0.00    +0.000 A 
ATOM      6  C   UNL     1      47.132   4.412  15.387  0.00  0.00    +0.000 A 
ENDROOT
BRANCH   1   7
ATOM      7  C   UNL     1      46.327   4.679  13.002  0.00  0.00    +0.000 C 
BRANCH   7   8
ATOM      8  N   UNL     1      46.177   5.744  12.011  0.00  0.00    +0.000 NA
ATOM      9  H   UNL     1      46.217   6.644  12.488  0.00  0.00    +0.000 HD
BRANCH   8  11
ATOM     10  C   UNL     1      43.689   5.523  12.156  0.00  0.00    +0.000 C 
ATOM     11  C   UNL     1      44.922   5.684  11.252  0.00  0.00    +0.000 C 
BRANCH  11  12
ATOM     12  C   UNL     1      44.961   4.513  10.275  0.00  0.00    +0.000 A 
ATOM     13  C   UNL     1      44.317   3.303  10.576  0.00  0.00    +0.000 A 
ATOM     14  C   UNL     1      44.303   2.255   9.658  0.00  0.00    +0.000 A 
ATOM     15  C   UNL     1      44.927   2.399   8.417  0.00  0.00    +0.000 A 
ATOM     16  C   UNL     1      45.543   3.603   8.084  0.00  0.00    +0.000 A 
ATOM     17  C   UNL     1      45.595   4.639   9.028  0.00  0.00    +0.000 A 
BRANCH  16  18
ATOM     18  O   UNL     1      46.160   3.873   6.900  0.00  0.00    +0.000 OA
BRANCH  18  19
ATOM     19  C   UNL     1      47.018   2.889   6.336  0.00  0.00    +0.000 C 
ATOM     20  F   UNL     1      46.562   1.623   6.437  0.00  0.00    +0.000 F 
ATOM     21  F   UNL     1      47.174   3.162   5.019  0.00  0.00    +0.000 F 
ATOM     22  F   UNL     1      48.233   2.962   6.924  0.00  0.00    +0.000 F 
ENDBRANCH  18  19
ENDBRANCH  16  18
ENDBRANCH  11  12
ENDBRANCH   8  11
ENDBRANCH   7   8
ENDBRANCH   1   7
BRANCH   4  23
ATOM     23  C   UNL     1      49.533   6.392  17.584  0.00  0.00    +0.000 C 
BRANCH  23  24
ATOM     24  N   UNL     1      50.511   5.387  17.898  0.00  0.00    +0.000 N 
ATOM     25  C   UNL     1      51.757   5.377  17.323  0.00  0.00    +0.000 C 
ATOM     26  O   UNL     1      52.126   6.254  16.547  0.00  0.00    +0.000 OA
ATOM     27  H   UNL     1      50.162   4.543  18.335  0.00  0.00    +0.000 HD
BRANCH  25  28
ATOM     28  C   UNL     1      52.652   4.295  17.751  0.00  0.00    +0.000 A 
ATOM     29  C   UNL     1      53.927   4.597  18.208  0.00  0.00    +0.000 A 
ATOM     30  S   UNL     1      54.795   3.234  18.755  0.00  0.00    +0.000 S 
ATOM     31  C   UNL     1      53.518   2.187  18.344  0.00  0.00    +0.000 A 
ATOM     32  N   UNL     1      53.609   0.845  18.561  0.00  0.00    +0.000 NA
ATOM     33  C   UNL     1      52.583   0.168  18.176  0.00  0.00    +0.000 A 
ATOM     34  N   UNL     1      51.467   0.709  17.597  0.00  0.00    +0.000 N 
ATOM     35  C   UNL     1      51.318   2.054  17.372  0.00  0.00    +0.000 A 
ATOM     36  O   UNL     1      50.302   2.507  16.859  0.00  0.00    +0.000 OA
ATOM     37  C   UNL     1      52.446   2.867  17.796  0.00  0.00    +0.000 A 
ATOM     38  H   UNL     1      50.696   0.126  17.311  0.00  0.00    +0.000 HD
ENDBRANCH  25  28
ENDBRANCH  23  24
ENDBRANCH   4  23
TORSDOF 9
ENDMDL
MODEL 3
REMARK VINA RESULT:    -7.992      4.055      8.727
REMARK INTER + INTRA:         -13.884
REMARK INTER:                 -10.311
REMARK INTRA:                  -3.573
REMARK UNBOUND:                -1.687
REMARK  Name = 
REMARK  10 active torsions:
REMARK  status: ('A' for Active; 'I' for Inactive)
REMARK    1  A    between atoms: C_1  and  C_2
REMARK    2  A    between atoms: C_2  and  N_3
REMARK    3  A    between atoms: C_2  and  C_25
REMARK    4  A    between atoms: N_3  and  C_4
REMARK    5  A    between atoms: C_4  and  C_5
REMARK    6  A    between atoms: C_8  and  C_9
REMARK    7  A    between atoms: C_9  and  N_10
REMARK    8  A    between atoms: C_11  and  C_13
REMARK    9  A    between atoms: C_29  and  O_30
REMARK   10  A    between atoms: O_30  and  C_31
REMARK                            x       y       z     vdW  Elec       q    Type
REMARK                         _______ _______ _______ _____ _____    ______ ____
ROOT
ATOM      1  C   UNL     1      49.538   8.476  14.682  0.00  0.00    +0.000 A 
ATOM      2  C   UNL     1      49.850   8.172  13.349  0.00  0.00    +0.000 A 
ATOM      3  C   UNL     1      48.845   8.097  12.379  0.00  0.00    +0.000 A 
ATOM      4  C   UNL     1      47.506   8.324  12.721  0.00  0.00    +0.000 A 
ATOM      5  C   UNL     1      47.187   8.578  14.061  0.00  0.00    +0.000 A 
ATOM      6  C   UNL     1      48.192   8.663  15.028  0.00  0.00    +0.000 A 
ENDROOT
BRANCH   1   7
ATOM      7  C   UNL     1      50.623   8.605  15.731  0.00  0.00    +0.000 C 
BRANCH   7   8
ATOM      8  N   UNL     1      50.114   8.278  17.062  0.00  0.00    +0.000 NA
ATOM      9  H   UNL     1      50.475   8.960  17.728  0.00  0.00    +0.000 HD
BRANCH   8  11
ATOM     10  C   UNL     1      51.610   6.306  16.697  0.00  0.00    +0.000 C 
ATOM     11  C   UNL     1      50.486   6.938  17.533  0.00  0.00    +0.000 C 
BRANCH  11  12
ATOM     12  C   UNL     1      49.272   6.016  17.488  0.00  0.00    +0.000 A 
ATOM     13  C   UNL     1      48.342   5.999  18.538  0.00  0.00    +0.000 A 
ATOM     14  C   UNL     1      47.202   5.201  18.469  0.00  0.00    +0.000 A 
ATOM     15  C   UNL     1      46.966   4.408  17.345  0.00  0.00    +0.000 A 
ATOM     16  C   UNL     1      47.859   4.434  16.276  0.00  0.00    +0.000 A 
ATOM     17  C   UNL     1      49.027   5.204  16.368  0.00  0.00    +0.000 A 
BRANCH  16  18
ATOM     18  O   UNL     1      47.725   3.728  15.118  0.00  0.00    +0.000 OA
BRANCH  18  19
ATOM     19  C   UNL     1      47.033   4.326  14.029  0.00  0.00    +0.000 C 
ATOM     20  F   UNL     1      46.007   5.124  14.387  0.00  0.00    +0.000 F 
ATOM     21  F   UNL     1      47.912   5.080  13.327  0.00  0.00    +0.000 F 
ATOM     22  F   UNL     1      46.566   3.357  13.209  0.00  0.00    +0.000 F 
ENDBRANCH  18  19
ENDBRANCH  16  18
ENDBRANCH  11  12
ENDBRANCH   8  11
ENDBRANCH   7   8
ENDBRANCH   1   7
BRANCH   4  23
ATOM     23  C   UNL     1      46.415   8.239  11.685  0.00  0.00    +0.000 C 
BRANCH  23  24
ATOM     24  N   UNL     1      46.014   6.871  11.495  0.00  0.00    +0.000 N 
ATOM     25  C   UNL     1      44.696   6.508  11.387  0.00  0.00    +0.000 C 
ATOM     26  O   UNL     1      43.787   7.332  11.394  0.00  0.00    +0.000 OA
ATOM     27  H   UNL     1      46.705   6.167  11.720  0.00  0.00    +0.000 HD
BRANCH  25  28
ATOM     28  C   UNL     1      44.442   5.076  11.183  0.00  0.00    +0.000 A 
ATOM     29  C   UNL     1      43.710   4.366  12.125  0.00  0.00    +0.000 A 
ATOM     30  S   UNL     1      43.427   2.743  11.685  0.00  0.00    +0.000 S 
ATOM     31  C   UNL     1      44.324   2.918  10.249  0.00  0.00    +0.000 A 
ATOM     32  N   UNL     1      44.478   1.877   9.384  0.00  0.00    +0.000 NA
ATOM     33  C   UNL     1      45.204   2.139   8.353  0.00  0.00    +0.000 A 
ATOM     34  N   UNL     1      45.790   3.351   8.102  0.00  0.00    +0.000 N 
ATOM     35  C   UNL     1      45.651   4.434   8.932  0.00  0.00    +0.000 A 
ATOM     36  O   UNL     1      46.182   5.508   8.673  0.00  0.00    +0.000 OA
ATOM     37  C   UNL     1      44.833   4.195  10.109  0.00  0.00    +0.000 A 
ATOM     38  H   UNL     1      46.353   3.494   7.278  0.00  0.00    +0.000 HD
ENDBRANCH  25  28
ENDBRANCH  23  24
ENDBRANCH   4  23
TORSDOF 9
ENDMDL
MODEL 4
REMARK VINA RESULT:    -7.515      2.811      4.200
REMARK INTER + INTRA:         -13.157
REMARK INTER:                 -11.294
REMARK INTRA:                  -1.863
REMARK UNBOUND:                -1.687
REMARK  Name = 
REMARK  10 active torsions:
REMARK  status: ('A' for Active; 'I' for Inactive)
REMARK    1  A    between atoms: C_1  and  C_2
REMARK    2  A    between atoms: C_2  and  N_3
REMARK    3  A    between atoms: C_2  and  C_25
REMARK    4  A    between atoms: N_3  and  C_4
REMARK    5  A    between atoms: C_4  and  C_5
REMARK    6  A    between atoms: C_8  and  C_9
REMARK    7  A    between atoms: C_9  and  N_10
REMARK    8  A    between atoms: C_11  and  C_13
REMARK    9  A    between atoms: C_29  and  O_30
REMARK   10  A    between atoms: O_30  and  C_31
REMARK                            x       y       z     vdW  Elec       q    Type
REMARK                         _______ _______ _______ _____ _____    ______ ____
ROOT
ATOM      1  C   UNL     1      46.175   8.047  12.123  0.00  0.00    +0.000 A 
ATOM      2  C   UNL     1      47.132   7.131  11.663  0.00  0.00    +0.000 A 
ATOM      3  C   UNL     1      48.418   7.105  12.213  0.00  0.00    +0.000 A 
ATOM      4  C   UNL     1      48.774   7.994  13.235  0.00  0.00    +0.000 A 
ATOM      5  C   UNL     1      47.836   8.943  13.660  0.00  0.00    +0.000 A 
ATOM      6  C   UNL     1      46.548   8.963  13.117  0.00  0.00    +0.000 A 
ENDROOT
BRANCH   1   7
ATOM      7  C   UNL     1      44.766   8.054  11.566  0.00  0.00    +0.000 C 
BRANCH   7   8
ATOM      8  N   UNL     1      44.557   6.941  10.640  0.00  0.00    +0.000 NA
ATOM      9  H   UNL     1      44.127   7.299   9.788  0.00  0.00    +0.000 HD
BRANCH   8  11
ATOM     10  C   UNL     1      43.842   5.701  12.693  0.00  0.00    +0.000 C 
ATOM     11  C   UNL     1      43.701   5.874  11.172  0.00  0.00    +0.000 C 
BRANCH  11  12
ATOM     12  C   UNL     1      44.044   4.549  10.500  0.00  0.00    +0.000 A 
ATOM     13  C   UNL     1      43.820   3.329  11.158  0.00  0.00    +0.000 A 
ATOM     14  C   UNL     1      44.078   2.117  10.521  0.00  0.00    +0.000 A 
ATOM     15  C   UNL     1      44.559   2.100   9.211  0.00  0.00    +0.000 A 
ATOM     16  C   UNL     1      44.758   3.297   8.527  0.00  0.00    +0.000 A 
ATOM     17  C   UNL     1      44.541   4.516   9.187  0.00  0.00    +0.000 A 
BRANCH  16  18
ATOM     18  O   UNL     1      45.198   3.409   7.243  0.00  0.00    +0.000 OA
BRANCH  18  19
ATOM     19  C   UNL     1      46.597   3.374   6.994  0.00  0.00    +0.000 C 
ATOM     20  F   UNL     1      47.236   2.313   7.528  0.00  0.00    +0.000 F 
ATOM     21  F   UNL     1      46.792   3.337   5.654  0.00  0.00    +0.000 F 
ATOM     22  F   UNL     1      47.166   4.507   7.467  0.00  0.00    +0.000 F 
ENDBRANCH  18  19
ENDBRANCH  16  18
ENDBRANCH  11  12
ENDBRANCH   8  11
ENDBRANCH   7   8
ENDBRANCH   1   7
BRANCH   4  23
ATOM     23  C   UNL     1      50.159   7.978  13.829  0.00  0.00    +0.000 C 
BRANCH  23  24
ATOM     24  N   UNL     1      50.220   7.048  14.924  0.00  0.00    +0.000 N 
ATOM     25  C   UNL     1      50.106   7.453  16.230  0.00  0.00    +0.000 C 
ATOM     26  O   UNL     1      49.894   8.622  16.538  0.00  0.00    +0.000 OA
ATOM     27  H   UNL     1      50.622   6.142  14.720  0.00  0.00    +0.000 HD
BRANCH  25  28
ATOM     28  C   UNL     1      50.176   6.388  17.239  0.00  0.00    +0.000 A 
ATOM     29  C   UNL     1      51.135   6.449  18.240  0.00  0.00    +0.000 A 
ATOM     30  S   UNL     1      51.012   5.186  19.379  0.00  0.00    +0.000 S 
ATOM     31  C   UNL     1      49.710   4.481  18.540  0.00  0.00    +0.000 A 
ATOM     32  N   UNL     1      49.114   3.343  18.992  0.00  0.00    +0.000 NA
ATOM     33  C   UNL     1      48.162   2.903  18.245  0.00  0.00    +0.000 A 
ATOM     34  N   UNL     1      47.744   3.498  17.085  0.00  0.00    +0.000 N 
ATOM     35  C   UNL     1      48.300   4.652  16.595  0.00  0.00    +0.000 A 
ATOM     36  O   UNL     1      47.897   5.164  15.557  0.00  0.00    +0.000 OA
ATOM     37  C   UNL     1      49.376   5.198  17.406  0.00  0.00    +0.000 A 
ATOM     38  H   UNL     1      46.995   3.102  16.539  0.00  0.00    +0.000 HD
ENDBRANCH  25  28
ENDBRANCH  23  24
ENDBRANCH   4  23
TORSDOF 9
ENDMDL
MODEL 5
REMARK VINA RESULT:    -7.454      5.639      6.815
REMARK INTER + INTRA:         -13.063
REMARK INTER:                 -11.943
REMARK INTRA:                  -1.120
REMARK UNBOUND:                -1.687
REMARK  Name = 
REMARK  10 active torsions:
REMARK  status: ('A' for Active; 'I' for Inactive)
REMARK    1  A    between atoms: C_1  and  C_2
REMARK    2  A    between atoms: C_2  and  N_3
REMARK    3  A    between atoms: C_2  and  C_25
REMARK    4  A    between atoms: N_3  and  C_4
REMARK    5  A    between atoms: C_4  and  C_5
REMARK    6  A    between atoms: C_8  and  C_9
REMARK    7  A    between atoms: C_9  and  N_10
REMARK    8  A    between atoms: C_11  and  C_13
REMARK    9  A    between atoms: C_29  and  O_30
REMARK   10  A    between atoms: O_30  and  C_31
REMARK                            x       y       z     vdW  Elec       q    Type
REMARK                         _______ _______ _______ _____ _____    ______ ____
ROOT
ATOM      1  C   UNL     1      46.927   7.685  12.435  0.00  0.00    +0.000 A 
ATOM      2  C   UNL     1      47.067   9.060  12.202  0.00  0.00    +0.000 A 
ATOM      3  C   UNL     1      48.292   9.594  11.789  0.00  0.00    +0.000 A 
ATOM      4  C   UNL     1      49.403   8.763  11.600  0.00  0.00    +0.000 A 
ATOM      5  C   UNL     1      49.279   7.397  11.880  0.00  0.00    +0.000 A 
ATOM      6  C   UNL     1      48.053   6.862  12.284  0.00  0.00    +0.000 A 
ENDROOT
BRANCH   1   7
ATOM      7  C   UNL     1      45.593   7.091  12.840  0.00  0.00    +0.000 C 
BRANCH   7   8
ATOM      8  N   UNL     1      45.384   5.785  12.214  0.00  0.00    +0.000 NA
ATOM      9  H   UNL     1      46.290   5.395  11.957  0.00  0.00    +0.000 HD
BRANCH   8  11
ATOM     10  C   UNL     1      43.043   5.865  11.334  0.00  0.00    +0.000 C 
ATOM     11  C   UNL     1      44.545   5.826  11.010  0.00  0.00    +0.000 C 
BRANCH  11  12
ATOM     12  C   UNL     1      44.822   4.603  10.142  0.00  0.00    +0.000 A 
ATOM     13  C   UNL     1      44.356   3.334  10.519  0.00  0.00    +0.000 A 
ATOM     14  C   UNL     1      44.558   2.227   9.696  0.00  0.00    +0.000 A 
ATOM     15  C   UNL     1      45.223   2.369   8.477  0.00  0.00    +0.000 A 
ATOM     16  C   UNL     1      45.664   3.625   8.068  0.00  0.00    +0.000 A 
ATOM     17  C   UNL     1      45.499   4.728   8.919  0.00  0.00    +0.000 A 
BRANCH  16  18
ATOM     18  O   UNL     1      46.299   3.895   6.893  0.00  0.00    +0.000 OA
BRANCH  18  19
ATOM     19  C   UNL     1      47.084   2.874   6.291  0.00  0.00    +0.000 C 
ATOM     20  F   UNL     1      46.505   1.656   6.277  0.00  0.00    +0.000 F 
ATOM     21  F   UNL     1      47.328   3.225   5.006  0.00  0.00    +0.000 F 
ATOM     22  F   UNL     1      48.272   2.785   6.931  0.00  0.00    +0.000 F 
ENDBRANCH  18  19
ENDBRANCH  16  18
ENDBRANCH  11  12
ENDBRANCH   8  11
ENDBRANCH   7   8
ENDBRANCH   1   7
BRANCH   4  23
ATOM     23  C   UNL     1      50.729   9.329  11.160  0.00  0.00    +0.000 C 
BRANCH  23  24
ATOM     24  N   UNL     1      51.662   8.267  10.899  0.00  0.00    +0.000 N 
ATOM     25  C   UNL     1      52.555   8.322   9.858  0.00  0.00    +0.000 C 
ATOM     26  O   UNL     1      52.644   9.300   9.123  0.00  0.00    +0.000 OA
ATOM     27  H   UNL     1      51.454   7.374  11.326  0.00  0.00    +0.000 HD
BRANCH  25  28
ATOM     28  C   UNL     1      53.453   7.168   9.724  0.00  0.00    +0.000 A 
ATOM     29  C   UNL     1      54.321   6.848  10.758  0.00  0.00    +0.000 A 
ATOM     30  S   UNL     1      55.221   5.426  10.477  0.00  0.00    +0.000 S 
ATOM     31  C   UNL     1      54.523   5.223   8.938  0.00  0.00    +0.000 A 
ATOM     32  N   UNL     1      54.861   4.169   8.144  0.00  0.00    +0.000 NA
ATOM     33  C   UNL     1      54.281   4.154   6.995  0.00  0.00    +0.000 A 
ATOM     34  N   UNL     1      53.385   5.096   6.563  0.00  0.00    +0.000 N 
ATOM     35  C   UNL     1      52.998   6.166   7.329  0.00  0.00    +0.000 A 
ATOM     36  O   UNL     1      52.188   6.987   6.916  0.00  0.00    +0.000 OA
ATOM     37  C   UNL     1      53.619   6.226   8.643  0.00  0.00    +0.000 A 
ATOM     38  H   UNL     1      52.967   5.033   5.648  0.00  0.00    +0.000 HD
ENDBRANCH  25  28
ENDBRANCH  23  24
ENDBRANCH   4  23
TORSDOF 9
ENDMDL
MODEL 6
REMARK VINA RESULT:    -7.306      4.396      9.269
REMARK INTER + INTRA:         -12.838
REMARK INTER:                 -10.523
REMARK INTRA:                  -2.315
REMARK UNBOUND:                -1.687
REMARK  Name = 
REMARK  10 active torsions:
REMARK  status: ('A' for Active; 'I' for Inactive)
REMARK    1  A    between atoms: C_1  and  C_2
REMARK    2  A    between atoms: C_2  and  N_3
REMARK    3  A    between atoms: C_2  and  C_25
REMARK    4  A    between atoms: N_3  and  C_4
REMARK    5  A    between atoms: C_4  and  C_5
REMARK    6  A    between atoms: C_8  and  C_9
REMARK    7  A    between atoms: C_9  and  N_10
REMARK    8  A    between atoms: C_11  and  C_13
REMARK    9  A    between atoms: C_29  and  O_30
REMARK   10  A    between atoms: O_30  and  C_31
REMARK                            x       y       z     vdW  Elec       q    Type
REMARK                         _______ _______ _______ _____ _____    ______ ____
ROOT
ATOM      1  C   UNL     1      50.464   8.350  14.302  0.00  0.00    +0.000 A 
ATOM      2  C   UNL     1      49.355   8.917  14.947  0.00  0.00    +0.000 A 
ATOM      3  C   UNL     1      48.098   8.920  14.334  0.00  0.00    +0.000 A 
ATOM      4  C   UNL     1      47.923   8.357  13.064  0.00  0.00    +0.000 A 
ATOM      5  C   UNL     1      49.039   7.836  12.398  0.00  0.00    +0.000 A 
ATOM      6  C   UNL     1      50.293   7.824  13.014  0.00  0.00    +0.000 A 
ENDROOT
BRANCH   1   7
ATOM      7  C   UNL     1      51.820   8.301  14.976  0.00  0.00    +0.000 C 
BRANCH   7   8
ATOM      8  N   UNL     1      51.713   8.589  16.406  0.00  0.00    +0.000 NA
ATOM      9  H   UNL     1      52.432   9.266  16.659  0.00  0.00    +0.000 HD
BRANCH   8  11
ATOM     10  C   UNL     1      52.771   6.335  16.643  0.00  0.00    +0.000 C 
ATOM     11  C   UNL     1      51.869   7.411  17.267  0.00  0.00    +0.000 C 
BRANCH  11  12
ATOM     12  C   UNL     1      50.505   6.793  17.555  0.00  0.00    +0.000 A 
ATOM     13  C   UNL     1      49.616   7.399  18.456  0.00  0.00    +0.000 A 
ATOM     14  C   UNL     1      48.347   6.866  18.673  0.00  0.00    +0.000 A 
ATOM     15  C   UNL     1      47.939   5.721  17.989  0.00  0.00    +0.000 A 
ATOM     16  C   UNL     1      48.792   5.122  17.065  0.00  0.00    +0.000 A 
ATOM     17  C   UNL     1      50.085   5.634  16.883  0.00  0.00    +0.000 A 
BRANCH  16  18
ATOM     18  O   UNL     1      48.499   4.020  16.319  0.00  0.00    +0.000 OA
BRANCH  18  19
ATOM     19  C   UNL     1      48.422   2.756  16.966  0.00  0.00    +0.000 C 
ATOM     20  F   UNL     1      47.191   2.427  17.408  0.00  0.00    +0.000 F 
ATOM     21  F   UNL     1      48.810   1.802  16.088  0.00  0.00    +0.000 F 
ATOM     22  F   UNL     1      49.280   2.735  18.011  0.00  0.00    +0.000 F 
ENDBRANCH  18  19
ENDBRANCH  16  18
ENDBRANCH  11  12
ENDBRANCH   8  11
ENDBRANCH   7   8
ENDBRANCH   1   7
BRANCH   4  23
ATOM     23  C   UNL     1      46.573   8.361  12.393  0.00  0.00    +0.000 C 
BRANCH  23  24
ATOM     24  N   UNL     1      46.113   7.014  12.191  0.00  0.00    +0.000 N 
ATOM     25  C   UNL     1      44.890   6.738  11.633  0.00  0.00    +0.000 C 
ATOM     26  O   UNL     1      44.142   7.621  11.226  0.00  0.00    +0.000 OA
ATOM     27  H   UNL     1      46.589   6.295  12.721  0.00  0.00    +0.000 HD
BRANCH  25  28
ATOM     28  C   UNL     1      44.564   5.315  11.480  0.00  0.00    +0.000 A 
ATOM     29  C   UNL     1      43.888   4.651  12.494  0.00  0.00    +0.000 A 
ATOM     30  S   UNL     1      43.505   3.033  12.112  0.00  0.00    +0.000 S 
ATOM     31  C   UNL     1      44.281   3.148  10.602  0.00  0.00    +0.000 A 
ATOM     32  N   UNL     1      44.320   2.088   9.747  0.00  0.00    +0.000 NA
ATOM     33  C   UNL     1      44.965   2.304   8.653  0.00  0.00    +0.000 A 
ATOM     34  N   UNL     1      45.574   3.487   8.329  0.00  0.00    +0.000 N 
ATOM     35  C   UNL     1      45.550   4.588   9.147  0.00  0.00    +0.000 A 
ATOM     36  O   UNL     1      46.099   5.635   8.823  0.00  0.00    +0.000 OA
ATOM     37  C   UNL     1      44.826   4.402  10.394  0.00  0.00    +0.000 A 
ATOM     38  H   UNL     1      46.070   3.594   7.459  0.00  0.00    +0.000 HD
ENDBRANCH  25  28
ENDBRANCH  23  24
ENDBRANCH   4  23
TORSDOF 9
ENDMDL
MODEL 7
REMARK VINA RESULT:    -7.254      5.949      7.583
REMARK INTER + INTRA:         -12.758
REMARK INTER:                 -11.271
REMARK INTRA:                  -1.487
REMARK UNBOUND:                -1.687
REMARK  Name = 
REMARK  10 active torsions:
REMARK  status: ('A' for Active; 'I' for Inactive)
REMARK    1  A    between atoms: C_1  and  C_2
REMARK    2  A    between atoms: C_2  and  N_3
REMARK    3  A    between atoms: C_2  and  C_25
REMARK    4  A    between atoms: N_3  and  C_4
REMARK    5  A    between atoms: C_4  and  C_5
REMARK    6  A    between atoms: C_8  and  C_9
REMARK    7  A    between atoms: C_9  and  N_10
REMARK    8  A    between atoms: C_11  and  C_13
REMARK    9  A    between atoms: C_29  and  O_30
REMARK   10  A    between atoms: O_30  and  C_31
REMARK                            x       y       z     vdW  Elec       q    Type
REMARK                         _______ _______ _______ _____ _____    ______ ____
ROOT
ATOM      1  C   UNL     1      48.019   8.170  12.383  0.00  0.00    +0.000 A 
ATOM      2  C   UNL     1      49.112   7.333  12.118  0.00  0.00    +0.000 A 
ATOM      3  C   UNL     1      50.310   7.858  11.623  0.00  0.00    +0.000 A 
ATOM      4  C   UNL     1      50.440   9.231  11.381  0.00  0.00    +0.000 A 
ATOM      5  C   UNL     1      49.333  10.061  11.597  0.00  0.00    +0.000 A 
ATOM      6  C   UNL     1      48.139   9.538  12.101  0.00  0.00    +0.000 A 
ENDROOT
BRANCH   1   7
ATOM      7  C   UNL     1      46.733   7.618  12.961  0.00  0.00    +0.000 C 
BRANCH   7   8
ATOM      8  N   UNL     1      46.370   6.348  12.331  0.00  0.00    +0.000 NA
ATOM      9  H   UNL     1      47.223   5.862  12.057  0.00  0.00    +0.000 HD
BRANCH   8  11
ATOM     10  C   UNL     1      44.222   7.259  11.426  0.00  0.00    +0.000 C 
ATOM     11  C   UNL     1      45.523   6.492  11.141  0.00  0.00    +0.000 C 
BRANCH  11  12
ATOM     12  C   UNL     1      45.163   5.117  10.590  0.00  0.00    +0.000 A 
ATOM     13  C   UNL     1      44.536   4.158  11.401  0.00  0.00    +0.000 A 
ATOM     14  C   UNL     1      44.154   2.923  10.881  0.00  0.00    +0.000 A 
ATOM     15  C   UNL     1      44.384   2.625   9.537  0.00  0.00    +0.000 A 
ATOM     16  C   UNL     1      44.974   3.573   8.705  0.00  0.00    +0.000 A 
ATOM     17  C   UNL     1      45.399   4.797   9.243  0.00  0.00    +0.000 A 
BRANCH  16  18
ATOM     18  O   UNL     1      45.226   3.411   7.376  0.00  0.00    +0.000 OA
BRANCH  18  19
ATOM     19  C   UNL     1      46.503   2.928   6.977  0.00  0.00    +0.000 C 
ATOM     20  F   UNL     1      46.886   1.787   7.585  0.00  0.00    +0.000 F 
ATOM     21  F   UNL     1      46.472   2.690   5.644  0.00  0.00    +0.000 F 
ATOM     22  F   UNL     1      47.435   3.879   7.209  0.00  0.00    +0.000 F 
ENDBRANCH  18  19
ENDBRANCH  16  18
ENDBRANCH  11  12
ENDBRANCH   8  11
ENDBRANCH   7   8
ENDBRANCH   1   7
BRANCH   4  23
ATOM     23  C   UNL     1      51.725   9.806  10.842  0.00  0.00    +0.000 C 
BRANCH  23  24
ATOM     24  N   UNL     1      52.064   9.183   9.591  0.00  0.00    +0.000 N 
ATOM     25  C   UNL     1      53.319   8.689   9.340  0.00  0.00    +0.000 C 
ATOM     26  O   UNL     1      54.209   8.704  10.184  0.00  0.00    +0.000 OA
ATOM     27  H   UNL     1      51.440   9.368   8.816  0.00  0.00    +0.000 HD
BRANCH  25  28
ATOM     28  C   UNL     1      53.511   8.069   8.023  0.00  0.00    +0.000 A 
ATOM     29  C   UNL     1      53.566   8.867   6.888  0.00  0.00    +0.000 A 
ATOM     30  S   UNL     1      53.890   7.995   5.458  0.00  0.00    +0.000 S 
ATOM     31  C   UNL     1      53.908   6.516   6.299  0.00  0.00    +0.000 A 
ATOM     32  N   UNL     1      54.141   5.340   5.651  0.00  0.00    +0.000 NA
ATOM     33  C   UNL     1      54.096   4.295   6.402  0.00  0.00    +0.000 A 
ATOM     34  N   UNL     1      53.845   4.314   7.748  0.00  0.00    +0.000 N 
ATOM     35  C   UNL     1      53.621   5.471   8.450  0.00  0.00    +0.000 A 
ATOM     36  O   UNL     1      53.407   5.454   9.656  0.00  0.00    +0.000 OA
ATOM     37  C   UNL     1      53.669   6.684   7.650  0.00  0.00    +0.000 A 
ATOM     38  H   UNL     1      53.818   3.460   8.283  0.00  0.00    +0.000 HD
ENDBRANCH  25  28
ENDBRANCH  23  24
ENDBRANCH   4  23
TORSDOF 9
ENDMDL
MODEL 8
REMARK VINA RESULT:    -7.120      4.232      9.083
REMARK INTER + INTRA:         -12.554
REMARK INTER:                 -10.044
REMARK INTRA:                  -2.510
REMARK UNBOUND:                -1.687
REMARK  Name = 
REMARK  10 active torsions:
REMARK  status: ('A' for Active; 'I' for Inactive)
REMARK    1  A    between atoms: C_1  and  C_2
REMARK    2  A    between atoms: C_2  and  N_3
REMARK    3  A    between atoms: C_2  and  C_25
REMARK    4  A    between atoms: N_3  and  C_4
REMARK    5  A    between atoms: C_4  and  C_5
REMARK    6  A    between atoms: C_8  and  C_9
REMARK    7  A    between atoms: C_9  and  N_10
REMARK    8  A    between atoms: C_11  and  C_13
REMARK    9  A    between atoms: C_29  and  O_30
REMARK   10  A    between atoms: O_30  and  C_31
REMARK                            x       y       z     vdW  Elec       q    Type
REMARK                         _______ _______ _______ _____ _____    ______ ____
ROOT
ATOM      1  C   UNL     1      51.394   3.537  17.693  0.00  0.00    +0.000 A 
ATOM      2  C   UNL     1      50.611   4.700  17.675  0.00  0.00    +0.000 A 
ATOM      3  C   UNL     1      49.244   4.636  17.387  0.00  0.00    +0.000 A 
ATOM      4  C   UNL     1      48.630   3.409  17.111  0.00  0.00    +0.000 A 
ATOM      5  C   UNL     1      49.420   2.252  17.080  0.00  0.00    +0.000 A 
ATOM      6  C   UNL     1      50.784   2.315  17.377  0.00  0.00    +0.000 A 
ENDROOT
BRANCH   1   7
ATOM      7  C   UNL     1      52.866   3.589  18.047  0.00  0.00    +0.000 C 
BRANCH   7   8
ATOM      8  N   UNL     1      53.378   4.957  17.982  0.00  0.00    +0.000 NA
ATOM      9  H   UNL     1      52.600   5.591  17.802  0.00  0.00    +0.000 HD
BRANCH   8  11
ATOM     10  C   UNL     1      55.775   5.508  17.518  0.00  0.00    +0.000 C 
ATOM     11  C   UNL     1      54.391   5.168  16.941  0.00  0.00    +0.000 C 
BRANCH  11  12
ATOM     12  C   UNL     1      53.960   6.303  16.018  0.00  0.00    +0.000 A 
ATOM     13  C   UNL     1      54.694   6.609  14.862  0.00  0.00    +0.000 A 
ATOM     14  C   UNL     1      54.266   7.606  13.988  0.00  0.00    +0.000 A 
ATOM     15  C   UNL     1      53.091   8.313  14.249  0.00  0.00    +0.000 A 
ATOM     16  C   UNL     1      52.329   8.004  15.373  0.00  0.00    +0.000 A 
ATOM     17  C   UNL     1      52.786   7.031  16.274  0.00  0.00    +0.000 A 
BRANCH  16  18
ATOM     18  O   UNL     1      51.156   8.602  15.720  0.00  0.00    +0.000 OA
BRANCH  18  19
ATOM     19  C   UNL     1      49.934   8.005  15.304  0.00  0.00    +0.000 C 
ATOM     20  F   UNL     1      50.065   6.770  14.776  0.00  0.00    +0.000 F 
ATOM     21  F   UNL     1      49.118   7.905  16.380  0.00  0.00    +0.000 F 
ATOM     22  F   UNL     1      49.331   8.805  14.396  0.00  0.00    +0.000 F 
ENDBRANCH  18  19
ENDBRANCH  16  18
ENDBRANCH  11  12
ENDBRANCH   8  11
ENDBRANCH   7   8
ENDBRANCH   1   7
BRANCH   4  23
ATOM     23  C   UNL     1      47.159   3.331  16.794  0.00  0.00    +0.000 C 
BRANCH  23  24
ATOM     24  N   UNL     1      46.803   4.334  15.828  0.00  0.00    +0.000 N 
ATOM     25  C   UNL     1      46.878   4.104  14.478  0.00  0.00    +0.000 C 
ATOM     26  O   UNL     1      47.202   3.014  14.016  0.00  0.00    +0.000 OA
ATOM     27  H   UNL     1      46.765   5.287  16.166  0.00  0.00    +0.000 HD
BRANCH  25  28
ATOM     28  C   UNL     1      46.471   5.219  13.615  0.00  0.00    +0.000 A 
ATOM     29  C   UNL     1      47.353   6.264  13.378  0.00  0.00    +0.000 A 
ATOM     30  S   UNL     1      46.755   7.424  12.279  0.00  0.00    +0.000 S 
ATOM     31  C   UNL     1      45.274   6.600  12.129  0.00  0.00    +0.000 A 
ATOM     32  N   UNL     1      44.286   7.068  11.316  0.00  0.00    +0.000 NA
ATOM     33  C   UNL     1      43.209   6.364  11.320  0.00  0.00    +0.000 A 
ATOM     34  N   UNL     1      43.025   5.227  12.061  0.00  0.00    +0.000 N 
ATOM     35  C   UNL     1      43.992   4.705  12.881  0.00  0.00    +0.000 A 
ATOM     36  O   UNL     1      43.799   3.680  13.525  0.00  0.00    +0.000 OA
ATOM     37  C   UNL     1      45.235   5.458  12.907  0.00  0.00    +0.000 A 
ATOM     38  H   UNL     1      42.154   4.720  12.026  0.00  0.00    +0.000 HD
ENDBRANCH  25  28
ENDBRANCH  23  24
ENDBRANCH   4  23
TORSDOF 9
ENDMDL
MODEL 9
REMARK VINA RESULT:    -6.861      5.518      6.848
REMARK INTER + INTRA:         -12.158
REMARK INTER:                 -10.587
REMARK INTRA:                  -1.570
REMARK UNBOUND:                -1.687
REMARK  Name = 
REMARK  10 active torsions:
REMARK  status: ('A' for Active; 'I' for Inactive)
REMARK    1  A    between atoms: C_1  and  C_2
REMARK    2  A    between atoms: C_2  and  N_3
REMARK    3  A    between atoms: C_2  and  C_25
REMARK    4  A    between atoms: N_3  and  C_4
REMARK    5  A    between atoms: C_4  and  C_5
REMARK    6  A    between atoms: C_8  and  C_9
REMARK    7  A    between atoms: C_9  and  N_10
REMARK    8  A    between atoms: C_11  and  C_13
REMARK    9  A    between atoms: C_29  and  O_30
REMARK   10  A    between atoms: O_30  and  C_31
REMARK                            x       y       z     vdW  Elec       q    Type
REMARK                         _______ _______ _______ _____ _____    ______ ____
ROOT
ATOM      1  C   UNL     1      46.867   7.709  12.791  0.00  0.00    +0.000 A 
ATOM      2  C   UNL     1      46.444   8.949  12.292  0.00  0.00    +0.000 A 
ATOM      3  C   UNL     1      47.374   9.944  11.971  0.00  0.00    +0.000 A 
ATOM      4  C   UNL     1      48.745   9.720  12.142  0.00  0.00    +0.000 A 
ATOM      5  C   UNL     1      49.166   8.501  12.688  0.00  0.00    +0.000 A 
ATOM      6  C   UNL     1      48.238   7.504  13.000  0.00  0.00    +0.000 A 
ENDROOT
BRANCH   1   7
ATOM      7  C   UNL     1      45.872   6.609  13.100  0.00  0.00    +0.000 C 
BRANCH   7   8
ATOM      8  N   UNL     1      45.945   5.536  12.108  0.00  0.00    +0.000 NA
ATOM      9  H   UNL     1      46.913   5.431  11.808  0.00  0.00    +0.000 HD
BRANCH   8  11
ATOM     10  C   UNL     1      43.675   6.164  11.263  0.00  0.00    +0.000 C 
ATOM     11  C   UNL     1      45.118   5.766  10.917  0.00  0.00    +0.000 C 
BRANCH  11  12
ATOM     12  C   UNL     1      45.080   4.505  10.060  0.00  0.00    +0.000 A 
ATOM     13  C   UNL     1      44.507   3.321  10.547  0.00  0.00    +0.000 A 
ATOM     14  C   UNL     1      44.419   2.186   9.743  0.00  0.00    +0.000 A 
ATOM     15  C   UNL     1      44.896   2.216   8.432  0.00  0.00    +0.000 A 
ATOM     16  C   UNL     1      45.439   3.390   7.916  0.00  0.00    +0.000 A 
ATOM     17  C   UNL     1      45.568   4.515   8.743  0.00  0.00    +0.000 A 
BRANCH  16  18
ATOM     18  O   UNL     1      45.913   3.551   6.649  0.00  0.00    +0.000 OA
BRANCH  18  19
ATOM     19  C   UNL     1      47.030   2.775   6.233  0.00  0.00    +0.000 C 
ATOM     20  F   UNL     1      47.473   3.052   4.989  0.00  0.00    +0.000 F 
ATOM     21  F   UNL     1      48.052   3.003   7.091  0.00  0.00    +0.000 F 
ATOM     22  F   UNL     1      46.713   1.462   6.300  0.00  0.00    +0.000 F 
ENDBRANCH  18  19
ENDBRANCH  16  18
ENDBRANCH  11  12
ENDBRANCH   8  11
ENDBRANCH   7   8
ENDBRANCH   1   7
BRANCH   4  23
ATOM     23  C   UNL     1      49.754  10.788  11.805  0.00  0.00    +0.000 C 
BRANCH  23  24
ATOM     24  N   UNL     1      51.009  10.191  11.440  0.00  0.00    +0.000 N 
ATOM     25  C   UNL     1      51.628  10.467  10.248  0.00  0.00    +0.000 C 
ATOM     26  O   UNL     1      51.174  11.278   9.447  0.00  0.00    +0.000 OA
ATOM     27  H   UNL     1      51.277   9.362  11.956  0.00  0.00    +0.000 HD
BRANCH  25  28
ATOM     28  C   UNL     1      52.911   9.790  10.020  0.00  0.00    +0.000 A 
ATOM     29  C   UNL     1      54.042  10.539   9.728  0.00  0.00    +0.000 A 
ATOM     30  S   UNL     1      55.461   9.604   9.590  0.00  0.00    +0.000 S 
ATOM     31  C   UNL     1      54.602   8.159   9.856  0.00  0.00    +0.000 A 
ATOM     32  N   UNL     1      55.236   6.954   9.870  0.00  0.00    +0.000 NA
ATOM     33  C   UNL     1      54.462   5.942  10.053  0.00  0.00    +0.000 A 
ATOM     34  N   UNL     1      53.106   6.021  10.229  0.00  0.00    +0.000 N 
ATOM     35  C   UNL     1      52.422   7.210  10.240  0.00  0.00    +0.000 A 
ATOM     36  O   UNL     1      51.209   7.247  10.408  0.00  0.00    +0.000 OA
ATOM     37  C   UNL     1      53.252   8.388  10.046  0.00  0.00    +0.000 A 
ATOM     38  H   UNL     1      52.551   5.190  10.362  0.00  0.00    +0.000 HD
ENDBRANCH  25  28
ENDBRANCH  23  24
ENDBRANCH   4  23
TORSDOF 9
ENDMDL
