MODEL 1
REMARK VINA RESULT:    -8.084      0.000      0.000
REMARK INTER + INTRA:         -11.140
REMARK INTER:                 -10.683
REMARK INTRA:                  -0.457
REMARK UNBOUND:                -0.457
REMARK  Name = 
REMARK  6 active torsions:
REMARK  status: ('A' for Active; 'I' for Inactive)
REMARK    1  A    between atoms: N_1  and  C_2
REMARK    2  A    between atoms: C_2  and  C_3
REMARK    3  A    between atoms: C_6  and  C_7
REMARK    4  A    between atoms: C_7  and  S_8
REMARK    5  A    between atoms: S_8  and  C_9
REMARK    6  A    between atoms: C_13  and  C_14
REMARK                            x       y       z     vdW  Elec       q    Type
REMARK                         _______ _______ _______ _____ _____    ______ ____
ROOT
ATOM      1  S   UNL     1      43.637   3.652  11.716  0.00  0.00    +0.000 S 
ENDROOT
BRANCH   1   2
ATOM      2  C   UNL     1      45.016   4.468  12.480  0.00  0.00    +0.000 A 
ATOM      3  N   UNL     1      45.337   5.668  11.994  0.00  0.00    +0.000 NA
ATOM      4  C   UNL     1      46.334   6.286  12.619  0.00  0.00    +0.000 A 
ATOM      5  N   UNL     1      47.006   5.821  13.663  0.00  0.00    +0.000 NA
ATOM      6  C   UNL     1      46.595   4.605  14.050  0.00  0.00    +0.000 A 
ATOM      7  N   UNL     1      45.620   3.882  13.501  0.00  0.00    +0.000 NA
BRANCH   6   8
ATOM      8  C   UNL     1      47.276   4.009  15.258  0.00  0.00    +0.000 C 
ATOM      9  N   UNL     1      47.233   4.755  16.412  0.00  0.00    +0.000 N 
ATOM     10  O   UNL     1      47.832   2.917  15.245  0.00  0.00    +0.000 OA
ATOM     11  H   UNL     1      46.752   5.646  16.441  0.00  0.00    +0.000 HD
ATOM     12  H   UNL     1      47.645   4.373  17.251  0.00  0.00    +0.000 HD
ENDBRANCH   6   8
ENDBRANCH   1   2
BRANCH   1  13
ATOM     13  C   UNL     1      43.731   4.364  10.041  0.00  0.00    +0.000 C 
BRANCH  13  17
ATOM     14  C   UNL     1      46.638   2.280   7.583  0.00  0.00    +0.000 A 
ATOM     15  C   UNL     1      46.464   3.666   7.466  0.00  0.00    +0.000 A 
ATOM     16  C   UNL     1      45.523   4.338   8.247  0.00  0.00    +0.000 A 
ATOM     17  C   UNL     1      44.715   3.636   9.152  0.00  0.00    +0.000 A 
ATOM     18  C   UNL     1      44.878   2.248   9.259  0.00  0.00    +0.000 A 
ATOM     19  C   UNL     1      45.829   1.576   8.484  0.00  0.00    +0.000 A 
BRANCH  14  20
ATOM     20  C   UNL     1      47.679   1.574   6.752  0.00  0.00    +0.000 C 
BRANCH  20  21
ATOM     21  N   UNL     1      48.676   2.509   6.241  0.00  0.00    +0.000 NA
ATOM     22  H   UNL     1      49.596   2.241   6.580  0.00  0.00    +0.000 HD
ATOM     23  H   UNL     1      48.480   3.434   6.622  0.00  0.00    +0.000 HD
ENDBRANCH  20  21
ENDBRANCH  14  20
ENDBRANCH  13  17
ENDBRANCH   1  13
TORSDOF 6
ENDMDL
MODEL 2
REMARK VINA RESULT:    -7.427      1.696      2.505
REMARK INTER + INTRA:         -10.272
REMARK INTER:                  -9.832
REMARK INTRA:                  -0.441
REMARK UNBOUND:                -0.457
REMARK  Name = 
REMARK  6 active torsions:
REMARK  status: ('A' for Active; 'I' for Inactive)
REMARK    1  A    between atoms: N_1  and  C_2
REMARK    2  A    between atoms: C_2  and  C_3
REMARK    3  A    between atoms: C_6  and  C_7
REMARK    4  A    between atoms: C_7  and  S_8
REMARK    5  A    between atoms: S_8  and  C_9
REMARK    6  A    between atoms: C_13  and  C_14
REMARK                            x       y       z     vdW  Elec       q    Type
REMARK                         _______ _______ _______ _____ _____    ______ ____
ROOT
ATOM      1  S   UNL     1      44.067   4.710  11.073  0.00  0.00    +0.000 S 
ENDROOT
BRANCH   1   2
ATOM      2  C   UNL     1      45.436   4.724  12.204  0.00  0.00    +0.000 A 
ATOM      3  N   UNL     1      45.672   3.587  12.861  0.00  0.00    +0.000 NA
ATOM      4  C   UNL     1      46.736   3.602  13.657  0.00  0.00    +0.000 A 
ATOM      5  N   UNL     1      47.561   4.624  13.834  0.00  0.00    +0.000 NA
ATOM      6  C   UNL     1      47.211   5.708  13.126  0.00  0.00    +0.000 A 
ATOM      7  N   UNL     1      46.167   5.821  12.308  0.00  0.00    +0.000 NA
BRANCH   6   8
ATOM      8  C   UNL     1      48.116   6.912  13.234  0.00  0.00    +0.000 C 
ATOM      9  N   UNL     1      49.350   6.803  12.637  0.00  0.00    +0.000 N 
ATOM     10  O   UNL     1      47.790   7.948  13.802  0.00  0.00    +0.000 OA
ATOM     11  H   UNL     1      49.618   5.961  12.142  0.00  0.00    +0.000 HD
ATOM     12  H   UNL     1      49.969   7.601  12.656  0.00  0.00    +0.000 HD
ENDBRANCH   6   8
ENDBRANCH   1   2
BRANCH   1  13
ATOM     13  C   UNL     1      44.205   3.013  10.422  0.00  0.00    +0.000 C 
BRANCH  13  17
ATOM     14  C   UNL     1      46.620   2.771   6.824  0.00  0.00    +0.000 A 
ATOM     15  C   UNL     1      46.345   1.622   7.580  0.00  0.00    +0.000 A 
ATOM     16  C   UNL     1      45.578   1.698   8.743  0.00  0.00    +0.000 A 
ATOM     17  C   UNL     1      45.083   2.930   9.192  0.00  0.00    +0.000 A 
ATOM     18  C   UNL     1      45.370   4.081   8.445  0.00  0.00    +0.000 A 
ATOM     19  C   UNL     1      46.130   4.003   7.273  0.00  0.00    +0.000 A 
BRANCH  14  20
ATOM     20  C   UNL     1      47.426   2.667   5.554  0.00  0.00    +0.000 C 
BRANCH  20  21
ATOM     21  N   UNL     1      48.560   1.763   5.716  0.00  0.00    +0.000 NA
ATOM     22  H   UNL     1      49.419   2.251   5.474  0.00  0.00    +0.000 HD
ATOM     23  H   UNL     1      48.462   0.996   5.052  0.00  0.00    +0.000 HD
ENDBRANCH  20  21
ENDBRANCH  14  20
ENDBRANCH  13  17
ENDBRANCH   1  13
TORSDOF 6
ENDMDL
MODEL 3
REMARK VINA RESULT:    -6.772      2.875      6.242
REMARK INTER + INTRA:          -9.406
REMARK INTER:                  -9.068
REMARK INTRA:                  -0.338
REMARK UNBOUND:                -0.457
REMARK  Name = 
REMARK  6 active torsions:
REMARK  status: ('A' for Active; 'I' for Inactive)
REMARK    1  A    between atoms: N_1  and  C_2
REMARK    2  A    between atoms: C_2  and  C_3
REMARK    3  A    between atoms: C_6  and  C_7
REMARK    4  A    between atoms: C_7  and  S_8
REMARK    5  A    between atoms: S_8  and  C_9
REMARK    6  A    between atoms: C_13  and  C_14
REMARK                            x       y       z     vdW  Elec       q    Type
REMARK                         _______ _______ _______ _____ _____    ______ ____
ROOT
ATOM      1  S   UNL     1      43.821   2.567  11.032  0.00  0.00    +0.000 S 
ENDROOT
BRANCH   1   2
ATOM      2  C   UNL     1      44.744   2.787   9.532  0.00  0.00    +0.000 A 
ATOM      3  N   UNL     1      44.675   3.994   8.966  0.00  0.00    +0.000 NA
ATOM      4  C   UNL     1      45.420   4.154   7.877  0.00  0.00    +0.000 A 
ATOM      5  N   UNL     1      46.210   3.238   7.333  0.00  0.00    +0.000 NA
ATOM      6  C   UNL     1      46.185   2.069   7.989  0.00  0.00    +0.000 A 
ATOM      7  N   UNL     1      45.475   1.782   9.078  0.00  0.00    +0.000 NA
BRANCH   6   8
ATOM      8  C   UNL     1      47.085   0.976   7.465  0.00  0.00    +0.000 C 
ATOM      9  N   UNL     1      46.692  -0.315   7.725  0.00  0.00    +0.000 N 
ATOM     10  O   UNL     1      48.108   1.198   6.826  0.00  0.00    +0.000 OA
ATOM     11  H   UNL     1      45.835  -0.509   8.227  0.00  0.00    +0.000 HD
ATOM     12  H   UNL     1      47.250  -1.073   7.358  0.00  0.00    +0.000 HD
ENDBRANCH   6   8
ENDBRANCH   1   2
BRANCH   1  13
ATOM     13  C   UNL     1      43.473   4.306  11.453  0.00  0.00    +0.000 C 
BRANCH  13  17
ATOM     14  C   UNL     1      46.946   6.265  13.166  0.00  0.00    +0.000 A 
ATOM     15  C   UNL     1      46.541   5.002  13.619  0.00  0.00    +0.000 A 
ATOM     16  C   UNL     1      45.419   4.373  13.078  0.00  0.00    +0.000 A 
ATOM     17  C   UNL     1      44.659   5.003  12.083  0.00  0.00    +0.000 A 
ATOM     18  C   UNL     1      45.054   6.273  11.640  0.00  0.00    +0.000 A 
ATOM     19  C   UNL     1      46.185   6.898  12.175  0.00  0.00    +0.000 A 
BRANCH  14  20
ATOM     20  C   UNL     1      48.177   6.918  13.742  0.00  0.00    +0.000 C 
BRANCH  20  21
ATOM     21  N   UNL     1      49.359   6.630  12.935  0.00  0.00    +0.000 NA
ATOM     22  H   UNL     1      49.328   7.182  12.082  0.00  0.00    +0.000 HD
ATOM     23  H   UNL     1      49.328   5.651  12.652  0.00  0.00    +0.000 HD
ENDBRANCH  20  21
ENDBRANCH  14  20
ENDBRANCH  13  17
ENDBRANCH   1  13
TORSDOF 6
ENDMDL
MODEL 4
REMARK VINA RESULT:    -6.159      3.046      6.897
REMARK INTER + INTRA:          -8.596
REMARK INTER:                  -8.262
REMARK INTRA:                  -0.334
REMARK UNBOUND:                -0.457
REMARK  Name = 
REMARK  6 active torsions:
REMARK  status: ('A' for Active; 'I' for Inactive)
REMARK    1  A    between atoms: N_1  and  C_2
REMARK    2  A    between atoms: C_2  and  C_3
REMARK    3  A    between atoms: C_6  and  C_7
REMARK    4  A    between atoms: C_7  and  S_8
REMARK    5  A    between atoms: S_8  and  C_9
REMARK    6  A    between atoms: C_13  and  C_14
REMARK                            x       y       z     vdW  Elec       q    Type
REMARK                         _______ _______ _______ _____ _____    ______ ____
ROOT
ATOM      1  S   UNL     1      45.676   7.476  12.418  0.00  0.00    +0.000 S 
ENDROOT
BRANCH   1   2
ATOM      2  C   UNL     1      44.813   6.104  11.693  0.00  0.00    +0.000 A 
ATOM      3  N   UNL     1      43.715   5.692  12.330  0.00  0.00    +0.000 NA
ATOM      4  C   UNL     1      43.053   4.703  11.739  0.00  0.00    +0.000 A 
ATOM      5  N   UNL     1      43.384   4.120  10.595  0.00  0.00    +0.000 NA
ATOM      6  C   UNL     1      44.509   4.616  10.060  0.00  0.00    +0.000 A 
ATOM      7  N   UNL     1      45.264   5.593  10.559  0.00  0.00    +0.000 NA
BRANCH   6   8
ATOM      8  C   UNL     1      44.943   4.040   8.734  0.00  0.00    +0.000 C 
ATOM      9  N   UNL     1      44.338   2.866   8.352  0.00  0.00    +0.000 N 
ATOM     10  O   UNL     1      45.775   4.575   8.010  0.00  0.00    +0.000 OA
ATOM     11  H   UNL     1      43.630   2.431   8.930  0.00  0.00    +0.000 HD
ATOM     12  H   UNL     1      44.576   2.469   7.454  0.00  0.00    +0.000 HD
ENDBRANCH   6   8
ENDBRANCH   1   2
BRANCH   1  13
ATOM     13  C   UNL     1      47.346   6.763  12.566  0.00  0.00    +0.000 C 
BRANCH  13  17
ATOM     14  C   UNL     1      47.756   4.497  16.245  0.00  0.00    +0.000 A 
ATOM     15  C   UNL     1      48.390   5.739  16.095  0.00  0.00    +0.000 A 
ATOM     16  C   UNL     1      48.269   6.465  14.909  0.00  0.00    +0.000 A 
ATOM     17  C   UNL     1      47.527   5.958  13.834  0.00  0.00    +0.000 A 
ATOM     18  C   UNL     1      46.905   4.710  13.978  0.00  0.00    +0.000 A 
ATOM     19  C   UNL     1      47.017   3.986  15.170  0.00  0.00    +0.000 A 
BRANCH  14  20
ATOM     20  C   UNL     1      47.873   3.739  17.543  0.00  0.00    +0.000 C 
BRANCH  20  21
ATOM     21  N   UNL     1      46.717   2.875  17.761  0.00  0.00    +0.000 NA
ATOM     22  H   UNL     1      45.905   3.447  17.978  0.00  0.00    +0.000 HD
ATOM     23  H   UNL     1      46.895   2.296  18.581  0.00  0.00    +0.000 HD
ENDBRANCH  20  21
ENDBRANCH  14  20
ENDBRANCH  13  17
ENDBRANCH   1  13
TORSDOF 6
ENDMDL
MODEL 5
REMARK VINA RESULT:    -6.105      3.509      4.648
REMARK INTER + INTRA:          -8.525
REMARK INTER:                  -8.065
REMARK INTRA:                  -0.460
REMARK UNBOUND:                -0.457
REMARK  Name = 
REMARK  6 active torsions:
REMARK  status: ('A' for Active; 'I' for Inactive)
REMARK    1  A    between atoms: N_1  and  C_2
REMARK    2  A    between atoms: C_2  and  C_3
REMARK    3  A    between atoms: C_6  and  C_7
REMARK    4  A    between atoms: C_7  and  S_8
REMARK    5  A    between atoms: S_8  and  C_9
REMARK    6  A    between atoms: C_13  and  C_14
REMARK                            x       y       z     vdW  Elec       q    Type
REMARK                         _______ _______ _______ _____ _____    ______ ____
ROOT
ATOM      1  S   UNL     1      48.558   6.995  13.303  0.00  0.00    +0.000 S 
ENDROOT
BRANCH   1   2
ATOM      2  C   UNL     1      48.533   6.422  14.983  0.00  0.00    +0.000 A 
ATOM      3  N   UNL     1      48.838   7.323  15.920  0.00  0.00    +0.000 NA
ATOM      4  C   UNL     1      48.755   6.888  17.173  0.00  0.00    +0.000 A 
ATOM      5  N   UNL     1      48.394   5.670  17.553  0.00  0.00    +0.000 NA
ATOM      6  C   UNL     1      48.122   4.859  16.520  0.00  0.00    +0.000 A 
ATOM      7  N   UNL     1      48.179   5.171  15.226  0.00  0.00    +0.000 NA
BRANCH   6   8
ATOM      8  C   UNL     1      47.662   3.461  16.856  0.00  0.00    +0.000 C 
ATOM      9  N   UNL     1      48.572   2.452  16.643  0.00  0.00    +0.000 N 
ATOM     10  O   UNL     1      46.551   3.211  17.309  0.00  0.00    +0.000 OA
ATOM     11  H   UNL     1      49.501   2.652  16.296  0.00  0.00    +0.000 HD
ATOM     12  H   UNL     1      48.313   1.508  16.891  0.00  0.00    +0.000 HD
ENDBRANCH   6   8
ENDBRANCH   1   2
BRANCH   1  13
ATOM     13  C   UNL     1      46.803   7.435  13.087  0.00  0.00    +0.000 C 
BRANCH  13  17
ATOM     14  C   UNL     1      44.580   4.163  11.302  0.00  0.00    +0.000 A 
ATOM     15  C   UNL     1      45.312   5.051  10.502  0.00  0.00    +0.000 A 
ATOM     16  C   UNL     1      46.020   6.111  11.071  0.00  0.00    +0.000 A 
ATOM     17  C   UNL     1      45.995   6.322  12.456  0.00  0.00    +0.000 A 
ATOM     18  C   UNL     1      45.251   5.443  13.256  0.00  0.00    +0.000 A 
ATOM     19  C   UNL     1      44.551   4.375  12.686  0.00  0.00    +0.000 A 
BRANCH  14  20
ATOM     20  C   UNL     1      43.845   3.007  10.673  0.00  0.00    +0.000 C 
BRANCH  20  21
ATOM     21  N   UNL     1      43.069   2.267  11.664  0.00  0.00    +0.000 NA
ATOM     22  H   UNL     1      43.099   1.275  11.443  0.00  0.00    +0.000 HD
ATOM     23  H   UNL     1      42.094   2.555  11.594  0.00  0.00    +0.000 HD
ENDBRANCH  20  21
ENDBRANCH  14  20
ENDBRANCH  13  17
ENDBRANCH   1  13
TORSDOF 6
ENDMDL
MODEL 6
REMARK VINA RESULT:    -6.062      2.895      6.643
REMARK INTER + INTRA:          -8.468
REMARK INTER:                  -8.039
REMARK INTRA:                  -0.429
REMARK UNBOUND:                -0.457
REMARK  Name = 
REMARK  6 active torsions:
REMARK  status: ('A' for Active; 'I' for Inactive)
REMARK    1  A    between atoms: N_1  and  C_2
REMARK    2  A    between atoms: C_2  and  C_3
REMARK    3  A    between atoms: C_6  and  C_7
REMARK    4  A    between atoms: C_7  and  S_8
REMARK    5  A    between atoms: S_8  and  C_9
REMARK    6  A    between atoms: C_13  and  C_14
REMARK                            x       y       z     vdW  Elec       q    Type
REMARK                         _______ _______ _______ _____ _____    ______ ____
ROOT
ATOM      1  S   UNL     1      44.119   4.685   9.537  0.00  0.00    +0.000 S 
ENDROOT
BRANCH   1   2
ATOM      2  C   UNL     1      45.008   3.289   8.893  0.00  0.00    +0.000 A 
ATOM      3  N   UNL     1      44.595   2.087   9.299  0.00  0.00    +0.000 NA
ATOM      4  C   UNL     1      45.235   1.055   8.760  0.00  0.00    +0.000 A 
ATOM      5  N   UNL     1      46.215   1.126   7.869  0.00  0.00    +0.000 NA
ATOM      6  C   UNL     1      46.542   2.387   7.550  0.00  0.00    +0.000 A 
ATOM      7  N   UNL     1      45.986   3.499   8.028  0.00  0.00    +0.000 NA
BRANCH   6   8
ATOM      8  C   UNL     1      47.623   2.567   6.512  0.00  0.00    +0.000 C 
ATOM      9  N   UNL     1      47.324   3.397   5.458  0.00  0.00    +0.000 N 
ATOM     10  O   UNL     1      48.721   2.027   6.586  0.00  0.00    +0.000 OA
ATOM     11  H   UNL     1      46.430   3.870   5.403  0.00  0.00    +0.000 HD
ATOM     12  H   UNL     1      48.035   3.572   4.762  0.00  0.00    +0.000 HD
ENDBRANCH   6   8
ENDBRANCH   1   2
BRANCH   1  13
ATOM     13  C   UNL     1      44.267   4.364  11.325  0.00  0.00    +0.000 C 
BRANCH  13  17
ATOM     14  C   UNL     1      47.677   6.328  13.155  0.00  0.00    +0.000 A 
ATOM     15  C   UNL     1      47.186   6.757  11.914  0.00  0.00    +0.000 A 
ATOM     16  C   UNL     1      46.096   6.121  11.317  0.00  0.00    +0.000 A 
ATOM     17  C   UNL     1      45.482   5.024  11.938  0.00  0.00    +0.000 A 
ATOM     18  C   UNL     1      45.983   4.585  13.171  0.00  0.00    +0.000 A 
ATOM     19  C   UNL     1      47.069   5.230  13.775  0.00  0.00    +0.000 A 
BRANCH  14  20
ATOM     20  C   UNL     1      48.837   7.044  13.799  0.00  0.00    +0.000 C 
BRANCH  20  21
ATOM     21  N   UNL     1      49.187   6.445  15.082  0.00  0.00    +0.000 NA
ATOM     22  H   UNL     1      48.339   6.267  15.614  0.00  0.00    +0.000 HD
ATOM     23  H   UNL     1      49.733   7.119  15.618  0.00  0.00    +0.000 HD
ENDBRANCH  20  21
ENDBRANCH  14  20
ENDBRANCH  13  17
ENDBRANCH   1  13
TORSDOF 6
ENDMDL
MODEL 7
REMARK VINA RESULT:    -5.922      4.461      5.635
REMARK INTER + INTRA:          -8.284
REMARK INTER:                  -7.900
REMARK INTRA:                  -0.384
REMARK UNBOUND:                -0.457
REMARK  Name = 
REMARK  6 active torsions:
REMARK  status: ('A' for Active; 'I' for Inactive)
REMARK    1  A    between atoms: N_1  and  C_2
REMARK    2  A    between atoms: C_2  and  C_3
REMARK    3  A    between atoms: C_6  and  C_7
REMARK    4  A    between atoms: C_7  and  S_8
REMARK    5  A    between atoms: S_8  and  C_9
REMARK    6  A    between atoms: C_13  and  C_14
REMARK                            x       y       z     vdW  Elec       q    Type
REMARK                         _______ _______ _______ _____ _____    ______ ____
ROOT
ATOM      1  S   UNL     1      48.392   7.370  14.493  0.00  0.00    +0.000 S 
ENDROOT
BRANCH   1   2
ATOM      2  C   UNL     1      49.008   6.221  15.698  0.00  0.00    +0.000 A 
ATOM      3  N   UNL     1      50.281   6.377  16.066  0.00  0.00    +0.000 NA
ATOM      4  C   UNL     1      50.703   5.544  17.012  0.00  0.00    +0.000 A 
ATOM      5  N   UNL     1      49.977   4.607  17.606  0.00  0.00    +0.000 NA
ATOM      6  C   UNL     1      48.720   4.546  17.141  0.00  0.00    +0.000 A 
ATOM      7  N   UNL     1      48.184   5.313  16.194  0.00  0.00    +0.000 NA
BRANCH   6   8
ATOM      8  C   UNL     1      47.805   3.534  17.787  0.00  0.00    +0.000 C 
ATOM      9  N   UNL     1      48.257   2.957  18.950  0.00  0.00    +0.000 N 
ATOM     10  O   UNL     1      46.708   3.235  17.330  0.00  0.00    +0.000 OA
ATOM     11  H   UNL     1      49.150   3.218  19.350  0.00  0.00    +0.000 HD
ATOM     12  H   UNL     1      47.657   2.302  19.430  0.00  0.00    +0.000 HD
ENDBRANCH   6   8
ENDBRANCH   1   2
BRANCH   1  13
ATOM     13  C   UNL     1      48.262   6.275  13.042  0.00  0.00    +0.000 C 
BRANCH  13  17
ATOM     14  C   UNL     1      44.112   5.498  12.035  0.00  0.00    +0.000 A 
ATOM     15  C   UNL     1      44.729   4.823  13.099  0.00  0.00    +0.000 A 
ATOM     16  C   UNL     1      46.066   5.063  13.419  0.00  0.00    +0.000 A 
ATOM     17  C   UNL     1      46.828   5.969  12.668  0.00  0.00    +0.000 A 
ATOM     18  C   UNL     1      46.216   6.632  11.595  0.00  0.00    +0.000 A 
ATOM     19  C   UNL     1      44.872   6.400  11.281  0.00  0.00    +0.000 A 
BRANCH  14  20
ATOM     20  C   UNL     1      42.659   5.248  11.721  0.00  0.00    +0.000 C 
BRANCH  20  21
ATOM     21  N   UNL     1      41.882   6.482  11.777  0.00  0.00    +0.000 NA
ATOM     22  H   UNL     1      42.046   6.944  12.668  0.00  0.00    +0.000 HD
ATOM     23  H   UNL     1      40.891   6.245  11.747  0.00  0.00    +0.000 HD
ENDBRANCH  20  21
ENDBRANCH  14  20
ENDBRANCH  13  17
ENDBRANCH   1  13
TORSDOF 6
ENDMDL
MODEL 8
REMARK VINA RESULT:    -5.914      4.511      8.295
REMARK INTER + INTRA:          -8.273
REMARK INTER:                  -7.916
REMARK INTRA:                  -0.356
REMARK UNBOUND:                -0.457
REMARK  Name = 
REMARK  6 active torsions:
REMARK  status: ('A' for Active; 'I' for Inactive)
REMARK    1  A    between atoms: N_1  and  C_2
REMARK    2  A    between atoms: C_2  and  C_3
REMARK    3  A    between atoms: C_6  and  C_7
REMARK    4  A    between atoms: C_7  and  S_8
REMARK    5  A    between atoms: S_8  and  C_9
REMARK    6  A    between atoms: C_13  and  C_14
REMARK                            x       y       z     vdW  Elec       q    Type
REMARK                         _______ _______ _______ _____ _____    ______ ____
ROOT
ATOM      1  S   UNL     1      47.704   3.589  16.897  0.00  0.00    +0.000 S 
ENDROOT
BRANCH   1   2
ATOM      2  C   UNL     1      47.352   4.488  15.406  0.00  0.00    +0.000 A 
ATOM      3  N   UNL     1      48.117   5.553  15.163  0.00  0.00    +0.000 NA
ATOM      4  C   UNL     1      47.875   6.175  14.014  0.00  0.00    +0.000 A 
ATOM      5  N   UNL     1      46.967   5.823  13.114  0.00  0.00    +0.000 NA
ATOM      6  C   UNL     1      46.259   4.744  13.479  0.00  0.00    +0.000 A 
ATOM      7  N   UNL     1      46.398   4.044  14.604  0.00  0.00    +0.000 NA
BRANCH   6   8
ATOM      8  C   UNL     1      45.227   4.244  12.498  0.00  0.00    +0.000 C 
ATOM      9  N   UNL     1      44.988   2.891  12.501  0.00  0.00    +0.000 N 
ATOM     10  O   UNL     1      44.610   4.983  11.739  0.00  0.00    +0.000 OA
ATOM     11  H   UNL     1      45.472   2.276  13.144  0.00  0.00    +0.000 HD
ATOM     12  H   UNL     1      44.277   2.524  11.884  0.00  0.00    +0.000 HD
ENDBRANCH   6   8
ENDBRANCH   1   2
BRANCH   1  13
ATOM     13  C   UNL     1      49.235   4.426  17.422  0.00  0.00    +0.000 C 
BRANCH  13  17
ATOM     14  C   UNL     1      52.559   1.671  17.863  0.00  0.00    +0.000 A 
ATOM     15  C   UNL     1      52.710   3.029  18.175  0.00  0.00    +0.000 A 
ATOM     16  C   UNL     1      51.646   3.920  18.025  0.00  0.00    +0.000 A 
ATOM     17  C   UNL     1      50.409   3.479  17.537  0.00  0.00    +0.000 A 
ATOM     18  C   UNL     1      50.262   2.123  17.210  0.00  0.00    +0.000 A 
ATOM     19  C   UNL     1      51.325   1.228  17.371  0.00  0.00    +0.000 A 
BRANCH  14  20
ATOM     20  C   UNL     1      53.710   0.716  18.058  0.00  0.00    +0.000 C 
BRANCH  20  21
ATOM     21  N   UNL     1      53.243  -0.604  18.469  0.00  0.00    +0.000 NA
ATOM     22  H   UNL     1      53.327  -1.250  17.689  0.00  0.00    +0.000 HD
ATOM     23  H   UNL     1      52.251  -0.542  18.695  0.00  0.00    +0.000 HD
ENDBRANCH  20  21
ENDBRANCH  14  20
ENDBRANCH  13  17
ENDBRANCH   1  13
TORSDOF 6
ENDMDL
MODEL 9
REMARK VINA RESULT:    -5.754      3.523      7.906
REMARK INTER + INTRA:          -8.061
REMARK INTER:                  -7.763
REMARK INTRA:                  -0.298
REMARK UNBOUND:                -0.457
REMARK  Name = 
REMARK  6 active torsions:
REMARK  status: ('A' for Active; 'I' for Inactive)
REMARK    1  A    between atoms: N_1  and  C_2
REMARK    2  A    between atoms: C_2  and  C_3
REMARK    3  A    between atoms: C_6  and  C_7
REMARK    4  A    between atoms: C_7  and  S_8
REMARK    5  A    between atoms: S_8  and  C_9
REMARK    6  A    between atoms: C_13  and  C_14
REMARK                            x       y       z     vdW  Elec       q    Type
REMARK                         _______ _______ _______ _____ _____    ______ ____
ROOT
ATOM      1  S   UNL     1      47.215   5.697  13.541  0.00  0.00    +0.000 S 
ENDROOT
BRANCH   1   2
ATOM      2  C   UNL     1      45.730   5.490  12.591  0.00  0.00    +0.000 A 
ATOM      3  N   UNL     1      45.104   6.608  12.221  0.00  0.00    +0.000 NA
ATOM      4  C   UNL     1      44.028   6.431  11.460  0.00  0.00    +0.000 A 
ATOM      5  N   UNL     1      43.550   5.266  11.047  0.00  0.00    +0.000 NA
ATOM      6  C   UNL     1      44.262   4.220  11.492  0.00  0.00    +0.000 A 
ATOM      7  N   UNL     1      45.346   4.266  12.265  0.00  0.00    +0.000 NA
BRANCH   6   8
ATOM      8  C   UNL     1      43.816   2.851  11.039  0.00  0.00    +0.000 C 
ATOM      9  N   UNL     1      44.495   2.311   9.972  0.00  0.00    +0.000 N 
ATOM     10  O   UNL     1      42.912   2.226  11.582  0.00  0.00    +0.000 OA
ATOM     11  H   UNL     1      45.261   2.808   9.535  0.00  0.00    +0.000 HD
ATOM     12  H   UNL     1      44.250   1.381   9.664  0.00  0.00    +0.000 HD
ENDBRANCH   6   8
ENDBRANCH   1   2
BRANCH   1  13
ATOM     13  C   UNL     1      47.199   4.149  14.503  0.00  0.00    +0.000 C 
BRANCH  13  17
ATOM     14  C   UNL     1      48.583   4.679  18.583  0.00  0.00    +0.000 A 
ATOM     15  C   UNL     1      47.884   3.522  18.209  0.00  0.00    +0.000 A 
ATOM     16  C   UNL     1      47.429   3.353  16.901  0.00  0.00    +0.000 A 
ATOM     17  C   UNL     1      47.642   4.348  15.936  0.00  0.00    +0.000 A 
ATOM     18  C   UNL     1      48.327   5.511  16.313  0.00  0.00    +0.000 A 
ATOM     19  C   UNL     1      48.794   5.676  17.622  0.00  0.00    +0.000 A 
BRANCH  14  20
ATOM     20  C   UNL     1      49.094   4.833  19.993  0.00  0.00    +0.000 C 
BRANCH  20  21
ATOM     21  N   UNL     1      48.438   3.898  20.902  0.00  0.00    +0.000 NA
ATOM     22  H   UNL     1      49.117   3.217  21.232  0.00  0.00    +0.000 HD
ATOM     23  H   UNL     1      47.731   3.380  20.381  0.00  0.00    +0.000 HD
ENDBRANCH  20  21
ENDBRANCH  14  20
ENDBRANCH  13  17
ENDBRANCH   1  13
TORSDOF 6
ENDMDL
