MODEL 1
REMARK VINA RESULT:    -7.480      0.000      0.000
REMARK INTER + INTRA:         -10.700
REMARK INTER:                 -10.104
REMARK INTRA:                  -0.596
REMARK UNBOUND:                -0.596
REMARK  Name = 
REMARK  7 active torsions:
REMARK  status: ('A' for Active; 'I' for Inactive)
REMARK    1  A    between atoms: N_1  and  C_2
REMARK    2  A    between atoms: C_5  and  C_6
REMARK    3  A    between atoms: C_6  and  O_7
REMARK    4  A    between atoms: O_7  and  C_8
REMARK    5  A    between atoms: C_11  and  C_12
REMARK    6  A    between atoms: C_12  and  C_13
REMARK    7  A    between atoms: C_13  and  O_14
REMARK                            x       y       z     vdW  Elec       q    Type
REMARK                         _______ _______ _______ _____ _____    ______ ____
ROOT
ATOM      1  O   UNL     1      44.080   4.251   9.936  0.00  0.00    +0.000 OA
ENDROOT
BRANCH   1   2
ATOM      2  C   UNL     1      44.839   4.550  11.044  0.00  0.00    +0.000 A 
ATOM      3  C   UNL     1      44.732   3.736  12.156  0.00  0.00    +0.000 A 
ATOM      4  N   UNL     1      45.466   3.939  13.281  0.00  0.00    +0.000 NA
ATOM      5  C   UNL     1      46.300   5.013  13.255  0.00  0.00    +0.000 A 
ATOM      6  C   UNL     1      46.378   5.839  12.139  0.00  0.00    +0.000 A 
ATOM      7  N   UNL     1      45.655   5.627  11.018  0.00  0.00    +0.000 NA
BRANCH   5   8
ATOM      8  C   UNL     1      47.189   5.279  14.444  0.00  0.00    +0.000 C 
BRANCH   8   9
ATOM      9  C   UNL     1      47.150   4.175  15.497  0.00  0.00    +0.000 C 
BRANCH   9  10
ATOM     10  O   UNL     1      47.715   2.965  14.993  0.00  0.00    +0.000 OA
ATOM     11  H   UNL     1      47.717   3.076  14.017  0.00  0.00    +0.000 HD
ENDBRANCH   9  10
ENDBRANCH   8   9
ENDBRANCH   5   8
ENDBRANCH   1   2
BRANCH   1  12
ATOM     12  C   UNL     1      44.216   2.873   9.564  0.00  0.00    +0.000 C 
BRANCH  12  16
ATOM     13  C   UNL     1      47.131   1.961   6.439  0.00  0.00    +0.000 C 
ATOM     14  C   UNL     1      47.018   0.997   7.624  0.00  0.00    +0.000 C 
ATOM     15  C   UNL     1      45.718   1.213   8.397  0.00  0.00    +0.000 C 
ATOM     16  C   UNL     1      45.559   2.671   8.854  0.00  0.00    +0.000 C 
ATOM     17  C   UNL     1      45.681   3.630   7.661  0.00  0.00    +0.000 C 
ATOM     18  C   UNL     1      46.986   3.416   6.896  0.00  0.00    +0.000 C 
BRANCH  13  19
ATOM     19  N   UNL     1      48.410   1.783   5.753  0.00  0.00    +0.000 NA
ATOM     20  H   UNL     1      49.075   1.331   6.382  0.00  0.00    +0.000 HD
ATOM     21  H   UNL     1      48.812   2.692   5.529  0.00  0.00    +0.000 HD
ENDBRANCH  13  19
ENDBRANCH  12  16
ENDBRANCH   1  12
TORSDOF 7
ENDMDL
MODEL 2
REMARK VINA RESULT:    -7.123      1.303      1.730
REMARK INTER + INTRA:         -10.218
REMARK INTER:                  -9.596
REMARK INTRA:                  -0.622
REMARK UNBOUND:                -0.596
REMARK  Name = 
REMARK  7 active torsions:
REMARK  status: ('A' for Active; 'I' for Inactive)
REMARK    1  A    between atoms: N_1  and  C_2
REMARK    2  A    between atoms: C_5  and  C_6
REMARK    3  A    between atoms: C_6  and  O_7
REMARK    4  A    between atoms: O_7  and  C_8
REMARK    5  A    between atoms: C_11  and  C_12
REMARK    6  A    between atoms: C_12  and  C_13
REMARK    7  A    between atoms: C_13  and  O_14
REMARK                            x       y       z     vdW  Elec       q    Type
REMARK                         _______ _______ _______ _____ _____    ______ ____
ROOT
ATOM      1  O   UNL     1      44.166   4.207   9.882  0.00  0.00    +0.000 OA
ENDROOT
BRANCH   1   2
ATOM      2  C   UNL     1      44.973   4.535  10.948  0.00  0.00    +0.000 A 
ATOM      3  C   UNL     1      45.659   5.735  10.911  0.00  0.00    +0.000 A 
ATOM      4  N   UNL     1      46.452   6.152  11.932  0.00  0.00    +0.000 NA
ATOM      5  C   UNL     1      46.553   5.300  12.987  0.00  0.00    +0.000 A 
ATOM      6  C   UNL     1      45.879   4.083  12.998  0.00  0.00    +0.000 A 
ATOM      7  N   UNL     1      45.082   3.677  11.987  0.00  0.00    +0.000 NA
BRANCH   5   8
ATOM      8  C   UNL     1      47.373   5.710  14.185  0.00  0.00    +0.000 C 
BRANCH   8   9
ATOM      9  C   UNL     1      48.437   6.758  13.868  0.00  0.00    +0.000 C 
BRANCH   9  10
ATOM     10  O   UNL     1      49.264   6.340  12.783  0.00  0.00    +0.000 OA
ATOM     11  H   UNL     1      48.757   5.620  12.344  0.00  0.00    +0.000 HD
ENDBRANCH   9  10
ENDBRANCH   8   9
ENDBRANCH   5   8
ENDBRANCH   1   2
BRANCH   1  12
ATOM     12  C   UNL     1      44.350   2.841   9.487  0.00  0.00    +0.000 C 
BRANCH  12  16
ATOM     13  C   UNL     1      47.153   2.007   6.241  0.00  0.00    +0.000 C 
ATOM     14  C   UNL     1      47.187   1.100   7.475  0.00  0.00    +0.000 C 
ATOM     15  C   UNL     1      45.917   1.250   8.312  0.00  0.00    +0.000 C 
ATOM     16  C   UNL     1      45.663   2.712   8.709  0.00  0.00    +0.000 C 
ATOM     17  C   UNL     1      45.639   3.615   7.467  0.00  0.00    +0.000 C 
ATOM     18  C   UNL     1      46.913   3.468   6.636  0.00  0.00    +0.000 C 
BRANCH  13  19
ATOM     19  N   UNL     1      48.402   1.897   5.489  0.00  0.00    +0.000 NA
ATOM     20  H   UNL     1      48.257   2.228   4.535  0.00  0.00    +0.000 HD
ATOM     21  H   UNL     1      48.671   0.917   5.406  0.00  0.00    +0.000 HD
ENDBRANCH  13  19
ENDBRANCH  12  16
ENDBRANCH   1  12
TORSDOF 7
ENDMDL
MODEL 3
REMARK VINA RESULT:    -6.968      2.003      2.715
REMARK INTER + INTRA:         -10.008
REMARK INTER:                  -9.603
REMARK INTRA:                  -0.406
REMARK UNBOUND:                -0.596
REMARK  Name = 
REMARK  7 active torsions:
REMARK  status: ('A' for Active; 'I' for Inactive)
REMARK    1  A    between atoms: N_1  and  C_2
REMARK    2  A    between atoms: C_5  and  C_6
REMARK    3  A    between atoms: C_6  and  O_7
REMARK    4  A    between atoms: O_7  and  C_8
REMARK    5  A    between atoms: C_11  and  C_12
REMARK    6  A    between atoms: C_12  and  C_13
REMARK    7  A    between atoms: C_13  and  O_14
REMARK                            x       y       z     vdW  Elec       q    Type
REMARK                         _______ _______ _______ _____ _____    ______ ____
ROOT
ATOM      1  O   UNL     1      44.441   2.818  10.973  0.00  0.00    +0.000 OA
ENDROOT
BRANCH   1   2
ATOM      2  C   UNL     1      44.721   4.083  11.437  0.00  0.00    +0.000 A 
ATOM      3  C   UNL     1      45.522   4.213  12.556  0.00  0.00    +0.000 A 
ATOM      4  N   UNL     1      45.874   5.423  13.063  0.00  0.00    +0.000 NA
ATOM      5  C   UNL     1      45.365   6.505  12.415  0.00  0.00    +0.000 A 
ATOM      6  C   UNL     1      44.539   6.359  11.307  0.00  0.00    +0.000 A 
ATOM      7  N   UNL     1      44.200   5.155  10.798  0.00  0.00    +0.000 NA
BRANCH   5   8
ATOM      8  C   UNL     1      45.750   7.887  12.883  0.00  0.00    +0.000 C 
BRANCH   8   9
ATOM      9  C   UNL     1      45.193   9.006  12.006  0.00  0.00    +0.000 C 
BRANCH   9  10
ATOM     10  O   UNL     1      44.495   9.973  12.790  0.00  0.00    +0.000 OA
ATOM     11  H   UNL     1      44.784  10.842  12.433  0.00  0.00    +0.000 HD
ENDBRANCH   9  10
ENDBRANCH   8   9
ENDBRANCH   5   8
ENDBRANCH   1   2
BRANCH   1  12
ATOM     12  C   UNL     1      44.250   2.812   9.552  0.00  0.00    +0.000 C 
BRANCH  12  16
ATOM     13  C   UNL     1      47.207   1.994   6.440  0.00  0.00    +0.000 C 
ATOM     14  C   UNL     1      47.023   0.956   7.552  0.00  0.00    +0.000 C 
ATOM     15  C   UNL     1      45.712   1.174   8.307  0.00  0.00    +0.000 C 
ATOM     16  C   UNL     1      45.602   2.602   8.861  0.00  0.00    +0.000 C 
ATOM     17  C   UNL     1      45.796   3.635   7.742  0.00  0.00    +0.000 C 
ATOM     18  C   UNL     1      47.110   3.419   6.995  0.00  0.00    +0.000 C 
BRANCH  13  19
ATOM     19  N   UNL     1      48.495   1.809   5.774  0.00  0.00    +0.000 NA
ATOM     20  H   UNL     1      48.528   0.884   5.344  0.00  0.00    +0.000 HD
ATOM     21  H   UNL     1      49.246   1.822   6.464  0.00  0.00    +0.000 HD
ENDBRANCH  13  19
ENDBRANCH  12  16
ENDBRANCH   1  12
TORSDOF 7
ENDMDL
MODEL 4
REMARK VINA RESULT:    -6.941      2.464      6.243
REMARK INTER + INTRA:          -9.972
REMARK INTER:                  -9.640
REMARK INTRA:                  -0.332
REMARK UNBOUND:                -0.596
REMARK  Name = 
REMARK  7 active torsions:
REMARK  status: ('A' for Active; 'I' for Inactive)
REMARK    1  A    between atoms: N_1  and  C_2
REMARK    2  A    between atoms: C_5  and  C_6
REMARK    3  A    between atoms: C_6  and  O_7
REMARK    4  A    between atoms: O_7  and  C_8
REMARK    5  A    between atoms: C_11  and  C_12
REMARK    6  A    between atoms: C_12  and  C_13
REMARK    7  A    between atoms: C_13  and  O_14
REMARK                            x       y       z     vdW  Elec       q    Type
REMARK                         _______ _______ _______ _____ _____    ______ ____
ROOT
ATOM      1  O   UNL     1      43.557   4.722  10.095  0.00  0.00    +0.000 OA
ENDROOT
BRANCH   1   2
ATOM      2  C   UNL     1      44.424   3.948   9.358  0.00  0.00    +0.000 A 
ATOM      3  C   UNL     1      44.494   2.595   9.630  0.00  0.00    +0.000 A 
ATOM      4  N   UNL     1      45.298   1.752   8.932  0.00  0.00    +0.000 NA
ATOM      5  C   UNL     1      46.056   2.329   7.960  0.00  0.00    +0.000 A 
ATOM      6  C   UNL     1      45.995   3.696   7.716  0.00  0.00    +0.000 A 
ATOM      7  N   UNL     1      45.185   4.529   8.404  0.00  0.00    +0.000 NA
BRANCH   5   8
ATOM      8  C   UNL     1      46.938   1.456   7.103  0.00  0.00    +0.000 C 
BRANCH   8   9
ATOM      9  C   UNL     1      48.229   2.139   6.659  0.00  0.00    +0.000 C 
BRANCH   9  10
ATOM     10  O   UNL     1      48.577   1.762   5.327  0.00  0.00    +0.000 OA
ATOM     11  H   UNL     1      47.845   1.174   5.033  0.00  0.00    +0.000 HD
ENDBRANCH   9  10
ENDBRANCH   8   9
ENDBRANCH   5   8
ENDBRANCH   1   2
BRANCH   1  12
ATOM     12  C   UNL     1      43.354   4.177  11.405  0.00  0.00    +0.000 C 
BRANCH  12  16
ATOM     13  C   UNL     1      46.695   6.354  13.193  0.00  0.00    +0.000 C 
ATOM     14  C   UNL     1      46.329   4.986  13.778  0.00  0.00    +0.000 C 
ATOM     15  C   UNL     1      45.444   4.189  12.820  0.00  0.00    +0.000 C 
ATOM     16  C   UNL     1      44.185   4.972  12.418  0.00  0.00    +0.000 C 
ATOM     17  C   UNL     1      44.561   6.344  11.841  0.00  0.00    +0.000 C 
ATOM     18  C   UNL     1      45.439   7.141  12.805  0.00  0.00    +0.000 C 
BRANCH  13  19
ATOM     19  N   UNL     1      47.485   7.126  14.150  0.00  0.00    +0.000 NA
ATOM     20  H   UNL     1      46.925   7.317  14.982  0.00  0.00    +0.000 HD
ATOM     21  H   UNL     1      47.715   8.036  13.754  0.00  0.00    +0.000 HD
ENDBRANCH  13  19
ENDBRANCH  12  16
ENDBRANCH   1  12
TORSDOF 7
ENDMDL
MODEL 5
REMARK VINA RESULT:    -6.360      2.622      6.688
REMARK INTER + INTRA:          -9.187
REMARK INTER:                  -8.853
REMARK INTRA:                  -0.334
REMARK UNBOUND:                -0.596
REMARK  Name = 
REMARK  7 active torsions:
REMARK  status: ('A' for Active; 'I' for Inactive)
REMARK    1  A    between atoms: N_1  and  C_2
REMARK    2  A    between atoms: C_5  and  C_6
REMARK    3  A    between atoms: C_6  and  O_7
REMARK    4  A    between atoms: O_7  and  C_8
REMARK    5  A    between atoms: C_11  and  C_12
REMARK    6  A    between atoms: C_12  and  C_13
REMARK    7  A    between atoms: C_13  and  O_14
REMARK                            x       y       z     vdW  Elec       q    Type
REMARK                         _______ _______ _______ _____ _____    ______ ____
ROOT
ATOM      1  O   UNL     1      44.372   4.709  11.268  0.00  0.00    +0.000 OA
ENDROOT
BRANCH   1   2
ATOM      2  C   UNL     1      44.888   4.235  10.084  0.00  0.00    +0.000 A 
ATOM      3  C   UNL     1      45.581   5.111   9.269  0.00  0.00    +0.000 A 
ATOM      4  N   UNL     1      46.149   4.722   8.098  0.00  0.00    +0.000 NA
ATOM      5  C   UNL     1      45.972   3.416   7.761  0.00  0.00    +0.000 A 
ATOM      6  C   UNL     1      45.250   2.553   8.578  0.00  0.00    +0.000 A 
ATOM      7  N   UNL     1      44.696   2.940   9.746  0.00  0.00    +0.000 NA
BRANCH   5   8
ATOM      8  C   UNL     1      46.615   2.890   6.502  0.00  0.00    +0.000 C 
BRANCH   8   9
ATOM      9  C   UNL     1      47.688   1.834   6.759  0.00  0.00    +0.000 C 
BRANCH   9  10
ATOM     10  O   UNL     1      48.579   1.728   5.649  0.00  0.00    +0.000 OA
ATOM     11  H   UNL     1      49.107   0.918   5.827  0.00  0.00    +0.000 HD
ENDBRANCH   9  10
ENDBRANCH   8   9
ENDBRANCH   5   8
ENDBRANCH   1   2
BRANCH   1  12
ATOM     12  C   UNL     1      45.241   4.418  12.371  0.00  0.00    +0.000 C 
BRANCH  12  16
ATOM     13  C   UNL     1      46.982   8.402  12.806  0.00  0.00    +0.000 C 
ATOM     14  C   UNL     1      47.711   7.221  13.454  0.00  0.00    +0.000 C 
ATOM     15  C   UNL     1      47.228   5.887  12.885  0.00  0.00    +0.000 C 
ATOM     16  C   UNL     1      45.704   5.731  13.010  0.00  0.00    +0.000 C 
ATOM     17  C   UNL     1      44.982   6.923  12.366  0.00  0.00    +0.000 C 
ATOM     18  C   UNL     1      45.462   8.254  12.942  0.00  0.00    +0.000 C 
BRANCH  13  19
ATOM     19  N   UNL     1      47.411   9.663  13.409  0.00  0.00    +0.000 NA
ATOM     20  H   UNL     1      46.592  10.228  13.640  0.00  0.00    +0.000 HD
ATOM     21  H   UNL     1      47.942  10.207  12.731  0.00  0.00    +0.000 HD
ENDBRANCH  13  19
ENDBRANCH  12  16
ENDBRANCH   1  12
TORSDOF 7
ENDMDL
MODEL 6
REMARK VINA RESULT:    -5.997      2.259      2.869
REMARK INTER + INTRA:          -8.696
REMARK INTER:                  -8.007
REMARK INTRA:                  -0.689
REMARK UNBOUND:                -0.596
REMARK  Name = 
REMARK  7 active torsions:
REMARK  status: ('A' for Active; 'I' for Inactive)
REMARK    1  A    between atoms: N_1  and  C_2
REMARK    2  A    between atoms: C_5  and  C_6
REMARK    3  A    between atoms: C_6  and  O_7
REMARK    4  A    between atoms: O_7  and  C_8
REMARK    5  A    between atoms: C_11  and  C_12
REMARK    6  A    between atoms: C_12  and  C_13
REMARK    7  A    between atoms: C_13  and  O_14
REMARK                            x       y       z     vdW  Elec       q    Type
REMARK                         _______ _______ _______ _____ _____    ______ ____
ROOT
ATOM      1  O   UNL     1      44.748   4.113  11.154  0.00  0.00    +0.000 OA
ENDROOT
BRANCH   1   2
ATOM      2  C   UNL     1      45.215   5.288  11.698  0.00  0.00    +0.000 A 
ATOM      3  C   UNL     1      46.215   5.221  12.651  0.00  0.00    +0.000 A 
ATOM      4  N   UNL     1      46.757   6.330  13.217  0.00  0.00    +0.000 NA
ATOM      5  C   UNL     1      46.234   7.517  12.809  0.00  0.00    +0.000 A 
ATOM      6  C   UNL     1      45.209   7.568  11.869  0.00  0.00    +0.000 A 
ATOM      7  N   UNL     1      44.682   6.464  11.299  0.00  0.00    +0.000 NA
BRANCH   5   8
ATOM      8  C   UNL     1      46.814   8.799  13.350  0.00  0.00    +0.000 C 
BRANCH   8   9
ATOM      9  C   UNL     1      48.296   8.984  13.031  0.00  0.00    +0.000 C 
BRANCH   9  10
ATOM     10  O   UNL     1      48.640   8.339  11.805  0.00  0.00    +0.000 OA
ATOM     11  H   UNL     1      49.017   9.053  11.243  0.00  0.00    +0.000 HD
ENDBRANCH   9  10
ENDBRANCH   8   9
ENDBRANCH   5   8
ENDBRANCH   1   2
BRANCH   1  12
ATOM     12  C   UNL     1      44.028   4.351   9.937  0.00  0.00    +0.000 C 
BRANCH  12  16
ATOM     13  C   UNL     1      46.895   1.997   7.627  0.00  0.00    +0.000 C 
ATOM     14  C   UNL     1      46.442   3.345   7.058  0.00  0.00    +0.000 C 
ATOM     15  C   UNL     1      45.786   4.213   8.131  0.00  0.00    +0.000 C 
ATOM     16  C   UNL     1      44.621   3.485   8.821  0.00  0.00    +0.000 C 
ATOM     17  C   UNL     1      45.082   2.132   9.381  0.00  0.00    +0.000 C 
ATOM     18  C   UNL     1      45.731   1.265   8.304  0.00  0.00    +0.000 C 
BRANCH  13  19
ATOM     19  N   UNL     1      47.460   1.159   6.572  0.00  0.00    +0.000 NA
ATOM     20  H   UNL     1      47.144   1.494   5.662  0.00  0.00    +0.000 HD
ATOM     21  H   UNL     1      47.103   0.208   6.658  0.00  0.00    +0.000 HD
ENDBRANCH  13  19
ENDBRANCH  12  16
ENDBRANCH   1  12
TORSDOF 7
ENDMDL
MODEL 7
REMARK VINA RESULT:    -5.767      2.930      7.667
REMARK INTER + INTRA:          -8.387
REMARK INTER:                  -7.833
REMARK INTRA:                  -0.553
REMARK UNBOUND:                -0.596
REMARK  Name = 
REMARK  7 active torsions:
REMARK  status: ('A' for Active; 'I' for Inactive)
REMARK    1  A    between atoms: N_1  and  C_2
REMARK    2  A    between atoms: C_5  and  C_6
REMARK    3  A    between atoms: C_6  and  O_7
REMARK    4  A    between atoms: O_7  and  C_8
REMARK    5  A    between atoms: C_11  and  C_12
REMARK    6  A    between atoms: C_12  and  C_13
REMARK    7  A    between atoms: C_13  and  O_14
REMARK                            x       y       z     vdW  Elec       q    Type
REMARK                         _______ _______ _______ _____ _____    ______ ____
ROOT
ATOM      1  O   UNL     1      47.631   4.511  14.642  0.00  0.00    +0.000 OA
ENDROOT
BRANCH   1   2
ATOM      2  C   UNL     1      46.738   4.451  13.596  0.00  0.00    +0.000 A 
ATOM      3  C   UNL     1      46.491   5.603  12.873  0.00  0.00    +0.000 A 
ATOM      4  N   UNL     1      45.650   5.628  11.807  0.00  0.00    +0.000 NA
ATOM      5  C   UNL     1      45.039   4.449  11.510  0.00  0.00    +0.000 A 
ATOM      6  C   UNL     1      45.276   3.305  12.263  0.00  0.00    +0.000 A 
ATOM      7  N   UNL     1      46.123   3.281  13.315  0.00  0.00    +0.000 NA
BRANCH   5   8
ATOM      8  C   UNL     1      44.129   4.377  10.310  0.00  0.00    +0.000 C 
BRANCH   8   9
ATOM      9  C   UNL     1      44.873   4.212   8.986  0.00  0.00    +0.000 C 
BRANCH   9  10
ATOM     10  O   UNL     1      45.739   5.320   8.743  0.00  0.00    +0.000 OA
ATOM     11  H   UNL     1      46.549   5.125   9.265  0.00  0.00    +0.000 HD
ENDBRANCH   9  10
ENDBRANCH   8   9
ENDBRANCH   5   8
ENDBRANCH   1   2
BRANCH   1  12
ATOM     12  C   UNL     1      47.026   4.091  15.872  0.00  0.00    +0.000 C 
BRANCH  12  16
ATOM     13  C   UNL     1      50.983   3.260  17.531  0.00  0.00    +0.000 C 
ATOM     14  C   UNL     1      50.024   2.083  17.325  0.00  0.00    +0.000 C 
ATOM     15  C   UNL     1      48.878   2.454  16.385  0.00  0.00    +0.000 C 
ATOM     16  C   UNL     1      48.124   3.702  16.868  0.00  0.00    +0.000 C 
ATOM     17  C   UNL     1      49.093   4.874  17.079  0.00  0.00    +0.000 C 
ATOM     18  C   UNL     1      50.233   4.501  18.025  0.00  0.00    +0.000 C 
BRANCH  13  19
ATOM     19  N   UNL     1      52.034   2.905  18.482  0.00  0.00    +0.000 NA
ATOM     20  H   UNL     1      51.851   3.358  19.378  0.00  0.00    +0.000 HD
ATOM     21  H   UNL     1      52.929   3.272  18.162  0.00  0.00    +0.000 HD
ENDBRANCH  13  19
ENDBRANCH  12  16
ENDBRANCH   1  12
TORSDOF 7
ENDMDL
MODEL 8
REMARK VINA RESULT:    -5.754      2.882      4.269
REMARK INTER + INTRA:          -8.368
REMARK INTER:                  -7.726
REMARK INTRA:                  -0.642
REMARK UNBOUND:                -0.596
REMARK  Name = 
REMARK  7 active torsions:
REMARK  status: ('A' for Active; 'I' for Inactive)
REMARK    1  A    between atoms: N_1  and  C_2
REMARK    2  A    between atoms: C_5  and  C_6
REMARK    3  A    between atoms: C_6  and  O_7
REMARK    4  A    between atoms: O_7  and  C_8
REMARK    5  A    between atoms: C_11  and  C_12
REMARK    6  A    between atoms: C_12  and  C_13
REMARK    7  A    between atoms: C_13  and  O_14
REMARK                            x       y       z     vdW  Elec       q    Type
REMARK                         _______ _______ _______ _____ _____    ______ ____
ROOT
ATOM      1  O   UNL     1      47.045   6.341  12.941  0.00  0.00    +0.000 OA
ENDROOT
BRANCH   1   2
ATOM      2  C   UNL     1      47.354   5.641  14.085  0.00  0.00    +0.000 A 
ATOM      3  C   UNL     1      46.779   4.399  14.274  0.00  0.00    +0.000 A 
ATOM      4  N   UNL     1      47.052   3.627  15.357  0.00  0.00    +0.000 NA
ATOM      5  C   UNL     1      47.910   4.165  16.264  0.00  0.00    +0.000 A 
ATOM      6  C   UNL     1      48.461   5.428  16.074  0.00  0.00    +0.000 A 
ATOM      7  N   UNL     1      48.197   6.188  14.990  0.00  0.00    +0.000 NA
BRANCH   5   8
ATOM      8  C   UNL     1      48.307   3.352  17.471  0.00  0.00    +0.000 C 
BRANCH   8   9
ATOM      9  C   UNL     1      49.543   2.484  17.244  0.00  0.00    +0.000 C 
BRANCH   9  10
ATOM     10  O   UNL     1      49.455   1.779  16.006  0.00  0.00    +0.000 OA
ATOM     11  H   UNL     1      49.392   0.832  16.261  0.00  0.00    +0.000 HD
ENDBRANCH   9  10
ENDBRANCH   8   9
ENDBRANCH   5   8
ENDBRANCH   1   2
BRANCH   1  12
ATOM     12  C   UNL     1      45.646   6.649  12.878  0.00  0.00    +0.000 C 
BRANCH  12  16
ATOM     13  C   UNL     1      44.793   4.068   9.457  0.00  0.00    +0.000 C 
ATOM     14  C   UNL     1      45.685   5.292   9.232  0.00  0.00    +0.000 C 
ATOM     15  C   UNL     1      46.216   5.845  10.554  0.00  0.00    +0.000 C 
ATOM     16  C   UNL     1      45.081   6.163  11.539  0.00  0.00    +0.000 C 
ATOM     17  C   UNL     1      44.187   4.932  11.752  0.00  0.00    +0.000 C 
ATOM     18  C   UNL     1      43.652   4.387  10.429  0.00  0.00    +0.000 C 
BRANCH  13  19
ATOM     19  N   UNL     1      44.243   3.594   8.188  0.00  0.00    +0.000 NA
ATOM     20  H   UNL     1      43.640   2.788   8.356  0.00  0.00    +0.000 HD
ATOM     21  H   UNL     1      44.996   3.259   7.588  0.00  0.00    +0.000 HD
ENDBRANCH  13  19
ENDBRANCH  12  16
ENDBRANCH   1  12
TORSDOF 7
ENDMDL
MODEL 9
REMARK VINA RESULT:    -5.547      3.335      5.621
REMARK INTER + INTRA:          -8.089
REMARK INTER:                  -7.578
REMARK INTRA:                  -0.511
REMARK UNBOUND:                -0.596
REMARK  Name = 
REMARK  7 active torsions:
REMARK  status: ('A' for Active; 'I' for Inactive)
REMARK    1  A    between atoms: N_1  and  C_2
REMARK    2  A    between atoms: C_5  and  C_6
REMARK    3  A    between atoms: C_6  and  O_7
REMARK    4  A    between atoms: O_7  and  C_8
REMARK    5  A    between atoms: C_11  and  C_12
REMARK    6  A    between atoms: C_12  and  C_13
REMARK    7  A    between atoms: C_13  and  O_14
REMARK                            x       y       z     vdW  Elec       q    Type
REMARK                         _______ _______ _______ _____ _____    ______ ____
ROOT
ATOM      1  O   UNL     1      46.704   4.050  14.908  0.00  0.00    +0.000 OA
ENDROOT
BRANCH   1   2
ATOM      2  C   UNL     1      47.522   4.181  16.007  0.00  0.00    +0.000 A 
ATOM      3  C   UNL     1      47.421   3.246  17.020  0.00  0.00    +0.000 A 
ATOM      4  N   UNL     1      48.210   3.281  18.124  0.00  0.00    +0.000 NA
ATOM      5  C   UNL     1      49.093   4.314  18.187  0.00  0.00    +0.000 A 
ATOM      6  C   UNL     1      49.164   5.263  17.173  0.00  0.00    +0.000 A 
ATOM      7  N   UNL     1      48.386   5.218  16.071  0.00  0.00    +0.000 NA
BRANCH   5   8
ATOM      8  C   UNL     1      50.042   4.398  19.356  0.00  0.00    +0.000 C 
BRANCH   8   9
ATOM      9  C   UNL     1      49.363   4.775  20.670  0.00  0.00    +0.000 C 
BRANCH   9  10
ATOM     10  O   UNL     1      48.292   3.881  20.970  0.00  0.00    +0.000 OA
ATOM     11  H   UNL     1      47.575   4.456  21.319  0.00  0.00    +0.000 HD
ENDBRANCH   9  10
ENDBRANCH   8   9
ENDBRANCH   5   8
ENDBRANCH   1   2
BRANCH   1  12
ATOM     12  C   UNL     1      46.881   5.136  13.990  0.00  0.00    +0.000 C 
BRANCH  12  16
ATOM     13  C   UNL     1      44.816   4.445  10.201  0.00  0.00    +0.000 C 
ATOM     14  C   UNL     1      45.077   5.893  10.628  0.00  0.00    +0.000 C 
ATOM     15  C   UNL     1      46.136   5.969  11.727  0.00  0.00    +0.000 C 
ATOM     16  C   UNL     1      45.770   5.094  12.936  0.00  0.00    +0.000 C 
ATOM     17  C   UNL     1      45.503   3.647  12.498  0.00  0.00    +0.000 C 
ATOM     18  C   UNL     1      44.438   3.575  11.405  0.00  0.00    +0.000 C 
BRANCH  13  19
ATOM     19  N   UNL     1      43.755   4.389   9.198  0.00  0.00    +0.000 NA
ATOM     20  H   UNL     1      43.940   3.625   8.547  0.00  0.00    +0.000 HD
ATOM     21  H   UNL     1      43.764   5.240   8.637  0.00  0.00    +0.000 HD
ENDBRANCH  13  19
ENDBRANCH  12  16
ENDBRANCH   1  12
TORSDOF 7
ENDMDL
