MODEL 1
REMARK VINA RESULT:    -8.215      0.000      0.000
REMARK INTER + INTRA:         -12.248
REMARK INTER:                 -11.577
REMARK INTRA:                  -0.670
REMARK UNBOUND:                -0.670
REMARK  Name = 
REMARK  8 active torsions:
REMARK  status: ('A' for Active; 'I' for Inactive)
REMARK    1  A    between atoms: N_1  and  C_2
REMARK    2  A    between atoms: C_2  and  C_3
REMARK    3  A    between atoms: C_7  and  O_8
REMARK    4  A    between atoms: O_8  and  C_9
REMARK    5  A    between atoms: C_9  and  C_10
REMARK    6  A    between atoms: C_10  and  O_11
REMARK    7  A    between atoms: C_10  and  C_12
REMARK    8  A    between atoms: C_15  and  C_16
REMARK                            x       y       z     vdW  Elec       q    Type
REMARK                         _______ _______ _______ _____ _____    ______ ____
ROOT
ATOM      1  C   UNL     1      43.469   3.545  10.584  0.00  0.00    +0.000 C 
ENDROOT
BRANCH   1   2
ATOM      2  C   UNL     1      44.497   3.228   9.512  0.00  0.00    +0.000 A 
ATOM      3  C   UNL     1      45.144   4.245   8.787  0.00  0.00    +0.000 A 
ATOM      4  C   UNL     1      46.111   3.946   7.822  0.00  0.00    +0.000 A 
ATOM      5  C   UNL     1      46.465   2.619   7.562  0.00  0.00    +0.000 A 
ATOM      6  C   UNL     1      45.842   1.606   8.293  0.00  0.00    +0.000 A 
ATOM      7  F   UNL     1      46.154   0.316   8.099  0.00  0.00    +0.000 F 
ATOM      8  C   UNL     1      44.876   1.903   9.257  0.00  0.00    +0.000 A 
BRANCH   5   9
ATOM      9  C   UNL     1      47.489   2.355   6.519  0.00  0.00    +0.000 C 
ATOM     10  N   UNL     1      47.429   3.073   5.358  0.00  0.00    +0.000 N 
ATOM     11  O   UNL     1      48.373   1.521   6.687  0.00  0.00    +0.000 OA
ATOM     12  H   UNL     1      46.718   3.768   5.174  0.00  0.00    +0.000 HD
ATOM     13  H   UNL     1      48.130   2.890   4.653  0.00  0.00    +0.000 HD
ENDBRANCH   5   9
ENDBRANCH   1   2
BRANCH   1  14
ATOM     14  O   UNL     1      43.705   2.713  11.730  0.00  0.00    +0.000 OA
ATOM     15  H   UNL     1      44.477   3.070  12.198  0.00  0.00    +0.000 HD
ENDBRANCH   1  14
BRANCH   1  16
ATOM     16  C   UNL     1      43.419   5.032  11.008  0.00  0.00    +0.000 C 
BRANCH  16  17
ATOM     17  O   UNL     1      43.805   5.095  12.384  0.00  0.00    +0.000 OA
BRANCH  17  22
ATOM     18  C   UNL     1      46.894   5.041  14.290  0.00  0.00    +0.000 A 
ATOM     19  C   UNL     1      47.706   5.917  13.559  0.00  0.00    +0.000 A 
ATOM     20  C   UNL     1      47.217   6.543  12.411  0.00  0.00    +0.000 A 
ATOM     21  C   UNL     1      45.912   6.300  11.973  0.00  0.00    +0.000 A 
ATOM     22  C   UNL     1      45.090   5.433  12.689  0.00  0.00    +0.000 A 
ATOM     23  C   UNL     1      45.584   4.815  13.844  0.00  0.00    +0.000 A 
BRANCH  18  24
ATOM     24  C   UNL     1      47.423   4.320  15.503  0.00  0.00    +0.000 C 
BRANCH  24  25
ATOM     25  N   UNL     1      47.801   2.944  15.199  0.00  0.00    +0.000 NA
ATOM     26  H   UNL     1      48.651   2.952  14.638  0.00  0.00    +0.000 HD
ATOM     27  H   UNL     1      47.077   2.530  14.614  0.00  0.00    +0.000 HD
ENDBRANCH  24  25
ENDBRANCH  18  24
ENDBRANCH  17  22
ENDBRANCH  16  17
ENDBRANCH   1  16
TORSDOF 8
ENDMDL
MODEL 2
REMARK VINA RESULT:    -8.089      1.991      2.494
REMARK INTER + INTRA:         -12.069
REMARK INTER:                 -11.281
REMARK INTRA:                  -0.788
REMARK UNBOUND:                -0.670
REMARK  Name = 
REMARK  8 active torsions:
REMARK  status: ('A' for Active; 'I' for Inactive)
REMARK    1  A    between atoms: N_1  and  C_2
REMARK    2  A    between atoms: C_2  and  C_3
REMARK    3  A    between atoms: C_7  and  O_8
REMARK    4  A    between atoms: O_8  and  C_9
REMARK    5  A    between atoms: C_9  and  C_10
REMARK    6  A    between atoms: C_10  and  O_11
REMARK    7  A    between atoms: C_10  and  C_12
REMARK    8  A    between atoms: C_15  and  C_16
REMARK                            x       y       z     vdW  Elec       q    Type
REMARK                         _______ _______ _______ _____ _____    ______ ____
ROOT
ATOM      1  C   UNL     1      43.561   3.411  10.869  0.00  0.00    +0.000 C 
ENDROOT
BRANCH   1   2
ATOM      2  C   UNL     1      44.537   3.166   9.732  0.00  0.00    +0.000 A 
ATOM      3  C   UNL     1      45.144   4.229   9.039  0.00  0.00    +0.000 A 
ATOM      4  C   UNL     1      46.064   3.996   8.011  0.00  0.00    +0.000 A 
ATOM      5  C   UNL     1      46.410   2.689   7.655  0.00  0.00    +0.000 A 
ATOM      6  C   UNL     1      45.827   1.630   8.353  0.00  0.00    +0.000 A 
ATOM      7  F   UNL     1      46.135   0.356   8.067  0.00  0.00    +0.000 F 
ATOM      8  C   UNL     1      44.908   1.861   9.379  0.00  0.00    +0.000 A 
BRANCH   5   9
ATOM      9  C   UNL     1      47.384   2.495   6.550  0.00  0.00    +0.000 C 
ATOM     10  N   UNL     1      47.204   3.209   5.399  0.00  0.00    +0.000 N 
ATOM     11  O   UNL     1      48.329   1.722   6.658  0.00  0.00    +0.000 OA
ATOM     12  H   UNL     1      46.438   3.856   5.263  0.00  0.00    +0.000 HD
ATOM     13  H   UNL     1      47.871   3.075   4.651  0.00  0.00    +0.000 HD
ENDBRANCH   5   9
ENDBRANCH   1   2
BRANCH   1  14
ATOM     14  O   UNL     1      43.977   2.662  12.021  0.00  0.00    +0.000 OA
ATOM     15  H   UNL     1      44.616   3.206  12.510  0.00  0.00    +0.000 HD
ENDBRANCH   1  14
BRANCH   1  16
ATOM     16  C   UNL     1      43.369   4.899  11.242  0.00  0.00    +0.000 C 
BRANCH  16  17
ATOM     17  O   UNL     1      43.986   5.100  12.518  0.00  0.00    +0.000 OA
BRANCH  17  22
ATOM     18  C   UNL     1      46.059   8.078  12.385  0.00  0.00    +0.000 A 
ATOM     19  C   UNL     1      47.333   7.562  12.654  0.00  0.00    +0.000 A 
ATOM     20  C   UNL     1      47.510   6.195  12.880  0.00  0.00    +0.000 A 
ATOM     21  C   UNL     1      46.416   5.324  12.846  0.00  0.00    +0.000 A 
ATOM     22  C   UNL     1      45.143   5.821  12.579  0.00  0.00    +0.000 A 
ATOM     23  C   UNL     1      44.974   7.191  12.345  0.00  0.00    +0.000 A 
BRANCH  18  24
ATOM     24  C   UNL     1      45.846   9.556  12.188  0.00  0.00    +0.000 C 
BRANCH  24  25
ATOM     25  N   UNL     1      44.503   9.971  12.577  0.00  0.00    +0.000 NA
ATOM     26  H   UNL     1      44.113  10.557  11.842  0.00  0.00    +0.000 HD
ATOM     27  H   UNL     1      44.572  10.561  13.405  0.00  0.00    +0.000 HD
ENDBRANCH  24  25
ENDBRANCH  18  24
ENDBRANCH  17  22
ENDBRANCH  16  17
ENDBRANCH   1  16
TORSDOF 8
ENDMDL
MODEL 3
REMARK VINA RESULT:    -7.826      2.857      6.250
REMARK INTER + INTRA:         -11.699
REMARK INTER:                 -10.951
REMARK INTRA:                  -0.748
REMARK UNBOUND:                -0.670
REMARK  Name = 
REMARK  8 active torsions:
REMARK  status: ('A' for Active; 'I' for Inactive)
REMARK    1  A    between atoms: N_1  and  C_2
REMARK    2  A    between atoms: C_2  and  C_3
REMARK    3  A    between atoms: C_7  and  O_8
REMARK    4  A    between atoms: O_8  and  C_9
REMARK    5  A    between atoms: C_9  and  C_10
REMARK    6  A    between atoms: C_10  and  O_11
REMARK    7  A    between atoms: C_10  and  C_12
REMARK    8  A    between atoms: C_15  and  C_16
REMARK                            x       y       z     vdW  Elec       q    Type
REMARK                         _______ _______ _______ _____ _____    ______ ____
ROOT
ATOM      1  C   UNL     1      44.293   3.541  12.388  0.00  0.00    +0.000 C 
ENDROOT
BRANCH   1   2
ATOM      2  C   UNL     1      45.410   4.554  12.575  0.00  0.00    +0.000 A 
ATOM      3  C   UNL     1      45.651   5.569  11.632  0.00  0.00    +0.000 A 
ATOM      4  C   UNL     1      46.663   6.515  11.825  0.00  0.00    +0.000 A 
ATOM      5  C   UNL     1      47.457   6.476  12.975  0.00  0.00    +0.000 A 
ATOM      6  C   UNL     1      47.209   5.484  13.925  0.00  0.00    +0.000 A 
ATOM      7  F   UNL     1      47.927   5.409  15.055  0.00  0.00    +0.000 F 
ATOM      8  C   UNL     1      46.199   4.538  13.733  0.00  0.00    +0.000 A 
BRANCH   5   9
ATOM      9  C   UNL     1      48.525   7.497  13.127  0.00  0.00    +0.000 C 
ATOM     10  N   UNL     1      49.805   7.146  12.804  0.00  0.00    +0.000 N 
ATOM     11  O   UNL     1      48.276   8.630  13.527  0.00  0.00    +0.000 OA
ATOM     12  H   UNL     1      50.059   6.224  12.473  0.00  0.00    +0.000 HD
ATOM     13  H   UNL     1      50.528   7.845  12.907  0.00  0.00    +0.000 HD
ENDBRANCH   5   9
ENDBRANCH   1   2
BRANCH   1  14
ATOM     14  O   UNL     1      43.404   3.603  13.513  0.00  0.00    +0.000 OA
ATOM     15  H   UNL     1      43.946   3.590  14.318  0.00  0.00    +0.000 HD
ENDBRANCH   1  14
BRANCH   1  16
ATOM     16  C   UNL     1      43.498   3.698  11.071  0.00  0.00    +0.000 C 
BRANCH  16  17
ATOM     17  O   UNL     1      43.928   2.656  10.189  0.00  0.00    +0.000 OA
BRANCH  17  22
ATOM     18  C   UNL     1      46.500   1.979   7.717  0.00  0.00    +0.000 A 
ATOM     19  C   UNL     1      46.752   3.255   7.198  0.00  0.00    +0.000 A 
ATOM     20  C   UNL     1      46.058   4.366   7.681  0.00  0.00    +0.000 A 
ATOM     21  C   UNL     1      45.097   4.218   8.686  0.00  0.00    +0.000 A 
ATOM     22  C   UNL     1      44.835   2.957   9.214  0.00  0.00    +0.000 A 
ATOM     23  C   UNL     1      45.541   1.848   8.731  0.00  0.00    +0.000 A 
BRANCH  18  24
ATOM     24  C   UNL     1      47.206   0.764   7.171  0.00  0.00    +0.000 C 
BRANCH  24  25
ATOM     25  N   UNL     1      46.770  -0.462   7.829  0.00  0.00    +0.000 NA
ATOM     26  H   UNL     1      47.590  -0.997   8.106  0.00  0.00    +0.000 HD
ATOM     27  H   UNL     1      46.272  -1.036   7.149  0.00  0.00    +0.000 HD
ENDBRANCH  24  25
ENDBRANCH  18  24
ENDBRANCH  17  22
ENDBRANCH  16  17
ENDBRANCH   1  16
TORSDOF 8
ENDMDL
MODEL 4
REMARK VINA RESULT:    -7.683      1.793      2.123
REMARK INTER + INTRA:         -11.498
REMARK INTER:                 -10.750
REMARK INTRA:                  -0.748
REMARK UNBOUND:                -0.670
REMARK  Name = 
REMARK  8 active torsions:
REMARK  status: ('A' for Active; 'I' for Inactive)
REMARK    1  A    between atoms: N_1  and  C_2
REMARK    2  A    between atoms: C_2  and  C_3
REMARK    3  A    between atoms: C_7  and  O_8
REMARK    4  A    between atoms: O_8  and  C_9
REMARK    5  A    between atoms: C_9  and  C_10
REMARK    6  A    between atoms: C_10  and  O_11
REMARK    7  A    between atoms: C_10  and  C_12
REMARK    8  A    between atoms: C_15  and  C_16
REMARK                            x       y       z     vdW  Elec       q    Type
REMARK                         _______ _______ _______ _____ _____    ______ ____
ROOT
ATOM      1  C   UNL     1      43.857   3.693  10.742  0.00  0.00    +0.000 C 
ENDROOT
BRANCH   1   2
ATOM      2  C   UNL     1      44.758   3.384   9.559  0.00  0.00    +0.000 A 
ATOM      3  C   UNL     1      45.297   4.404   8.755  0.00  0.00    +0.000 A 
ATOM      4  C   UNL     1      46.149   4.113   7.685  0.00  0.00    +0.000 A 
ATOM      5  C   UNL     1      46.493   2.790   7.394  0.00  0.00    +0.000 A 
ATOM      6  C   UNL     1      45.977   1.773   8.201  0.00  0.00    +0.000 A 
ATOM      7  F   UNL     1      46.287   0.487   7.980  0.00  0.00    +0.000 F 
ATOM      8  C   UNL     1      45.126   2.063   9.270  0.00  0.00    +0.000 A 
BRANCH   5   9
ATOM      9  C   UNL     1      47.392   2.533   6.240  0.00  0.00    +0.000 C 
ATOM     10  N   UNL     1      48.662   2.099   6.496  0.00  0.00    +0.000 N 
ATOM     11  O   UNL     1      47.014   2.698   5.086  0.00  0.00    +0.000 OA
ATOM     12  H   UNL     1      49.018   1.951   7.431  0.00  0.00    +0.000 HD
ATOM     13  H   UNL     1      49.269   1.923   5.707  0.00  0.00    +0.000 HD
ENDBRANCH   5   9
ENDBRANCH   1   2
BRANCH   1  14
ATOM     14  O   UNL     1      43.441   2.464  11.356  0.00  0.00    +0.000 OA
ATOM     15  H   UNL     1      42.882   1.992  10.718  0.00  0.00    +0.000 HD
ENDBRANCH   1  14
BRANCH   1  16
ATOM     16  C   UNL     1      44.485   4.631  11.799  0.00  0.00    +0.000 C 
BRANCH  16  17
ATOM     17  O   UNL     1      44.071   5.964  11.483  0.00  0.00    +0.000 OA
BRANCH  17  22
ATOM     18  C   UNL     1      47.308   7.503  12.062  0.00  0.00    +0.000 A 
ATOM     19  C   UNL     1      46.981   8.863  12.119  0.00  0.00    +0.000 A 
ATOM     20  C   UNL     1      45.657   9.280  11.968  0.00  0.00    +0.000 A 
ATOM     21  C   UNL     1      44.640   8.344  11.751  0.00  0.00    +0.000 A 
ATOM     22  C   UNL     1      44.948   6.988  11.692  0.00  0.00    +0.000 A 
ATOM     23  C   UNL     1      46.277   6.576  11.854  0.00  0.00    +0.000 A 
BRANCH  18  24
ATOM     24  C   UNL     1      48.738   7.042  12.175  0.00  0.00    +0.000 C 
BRANCH  24  25
ATOM     25  N   UNL     1      48.952   6.205  13.350  0.00  0.00    +0.000 NA
ATOM     26  H   UNL     1      49.128   6.805  14.154  0.00  0.00    +0.000 HD
ATOM     27  H   UNL     1      49.801   5.659  13.210  0.00  0.00    +0.000 HD
ENDBRANCH  24  25
ENDBRANCH  18  24
ENDBRANCH  17  22
ENDBRANCH  16  17
ENDBRANCH   1  16
TORSDOF 8
ENDMDL
MODEL 5
REMARK VINA RESULT:    -7.082      2.851      6.728
REMARK INTER + INTRA:         -10.651
REMARK INTER:                 -10.384
REMARK INTRA:                  -0.267
REMARK UNBOUND:                -0.670
REMARK  Name = 
REMARK  8 active torsions:
REMARK  status: ('A' for Active; 'I' for Inactive)
REMARK    1  A    between atoms: N_1  and  C_2
REMARK    2  A    between atoms: C_2  and  C_3
REMARK    3  A    between atoms: C_7  and  O_8
REMARK    4  A    between atoms: O_8  and  C_9
REMARK    5  A    between atoms: C_9  and  C_10
REMARK    6  A    between atoms: C_10  and  O_11
REMARK    7  A    between atoms: C_10  and  C_12
REMARK    8  A    between atoms: C_15  and  C_16
REMARK                            x       y       z     vdW  Elec       q    Type
REMARK                         _______ _______ _______ _____ _____    ______ ____
ROOT
ATOM      1  C   UNL     1      44.871   3.664  11.336  0.00  0.00    +0.000 C 
ENDROOT
BRANCH   1   2
ATOM      2  C   UNL     1      45.676   4.800  11.942  0.00  0.00    +0.000 A 
ATOM      3  C   UNL     1      45.760   6.058  11.319  0.00  0.00    +0.000 A 
ATOM      4  C   UNL     1      46.480   7.109  11.898  0.00  0.00    +0.000 A 
ATOM      5  C   UNL     1      47.129   6.931  13.124  0.00  0.00    +0.000 A 
ATOM      6  C   UNL     1      47.031   5.691  13.757  0.00  0.00    +0.000 A 
ATOM      7  F   UNL     1      47.617   5.468  14.943  0.00  0.00    +0.000 F 
ATOM      8  C   UNL     1      46.313   4.641  13.180  0.00  0.00    +0.000 A 
BRANCH   5   9
ATOM      9  C   UNL     1      47.889   8.074  13.690  0.00  0.00    +0.000 C 
ATOM     10  N   UNL     1      47.306   8.806  14.686  0.00  0.00    +0.000 N 
ATOM     11  O   UNL     1      49.011   8.360  13.287  0.00  0.00    +0.000 OA
ATOM     12  H   UNL     1      46.382   8.610  15.049  0.00  0.00    +0.000 HD
ATOM     13  H   UNL     1      47.828   9.582  15.070  0.00  0.00    +0.000 HD
ENDBRANCH   5   9
ENDBRANCH   1   2
BRANCH   1  14
ATOM     14  O   UNL     1      44.351   2.836  12.388  0.00  0.00    +0.000 OA
ATOM     15  H   UNL     1      43.395   2.998  12.443  0.00  0.00    +0.000 HD
ENDBRANCH   1  14
BRANCH   1  16
ATOM     16  C   UNL     1      43.726   4.115  10.399  0.00  0.00    +0.000 C 
BRANCH  16  17
ATOM     17  O   UNL     1      44.256   4.156   9.070  0.00  0.00    +0.000 OA
BRANCH  17  22
ATOM     18  C   UNL     1      46.947   2.519   7.265  0.00  0.00    +0.000 A 
ATOM     19  C   UNL     1      46.743   1.173   7.591  0.00  0.00    +0.000 A 
ATOM     20  C   UNL     1      45.687   0.798   8.424  0.00  0.00    +0.000 A 
ATOM     21  C   UNL     1      44.822   1.764   8.949  0.00  0.00    +0.000 A 
ATOM     22  C   UNL     1      45.010   3.107   8.634  0.00  0.00    +0.000 A 
ATOM     23  C   UNL     1      46.066   3.474   7.791  0.00  0.00    +0.000 A 
BRANCH  18  24
ATOM     24  C   UNL     1      48.111   2.943   6.407  0.00  0.00    +0.000 C 
BRANCH  24  25
ATOM     25  N   UNL     1      48.486   1.913   5.446  0.00  0.00    +0.000 NA
ATOM     26  H   UNL     1      48.987   2.349   4.674  0.00  0.00    +0.000 HD
ATOM     27  H   UNL     1      47.637   1.516   5.047  0.00  0.00    +0.000 HD
ENDBRANCH  24  25
ENDBRANCH  18  24
ENDBRANCH  17  22
ENDBRANCH  16  17
ENDBRANCH   1  16
TORSDOF 8
ENDMDL
MODEL 6
REMARK VINA RESULT:    -6.710      4.929      8.421
REMARK INTER + INTRA:         -10.126
REMARK INTER:                  -9.734
REMARK INTRA:                  -0.393
REMARK UNBOUND:                -0.670
REMARK  Name = 
REMARK  8 active torsions:
REMARK  status: ('A' for Active; 'I' for Inactive)
REMARK    1  A    between atoms: N_1  and  C_2
REMARK    2  A    between atoms: C_2  and  C_3
REMARK    3  A    between atoms: C_7  and  O_8
REMARK    4  A    between atoms: O_8  and  C_9
REMARK    5  A    between atoms: C_9  and  C_10
REMARK    6  A    between atoms: C_10  and  O_11
REMARK    7  A    between atoms: C_10  and  C_12
REMARK    8  A    between atoms: C_15  and  C_16
REMARK                            x       y       z     vdW  Elec       q    Type
REMARK                         _______ _______ _______ _____ _____    ______ ____
ROOT
ATOM      1  C   UNL     1      47.482   3.457  16.730  0.00  0.00    +0.000 C 
ENDROOT
BRANCH   1   2
ATOM      2  C   UNL     1      48.952   3.354  17.096  0.00  0.00    +0.000 A 
ATOM      3  C   UNL     1      49.657   4.446  17.634  0.00  0.00    +0.000 A 
ATOM      4  C   UNL     1      51.003   4.336  17.995  0.00  0.00    +0.000 A 
ATOM      5  C   UNL     1      51.681   3.123  17.837  0.00  0.00    +0.000 A 
ATOM      6  C   UNL     1      50.981   2.029  17.324  0.00  0.00    +0.000 A 
ATOM      7  F   UNL     1      51.575   0.837  17.167  0.00  0.00    +0.000 F 
ATOM      8  C   UNL     1      49.637   2.139  16.962  0.00  0.00    +0.000 A 
BRANCH   5   9
ATOM      9  C   UNL     1      53.113   3.061  18.226  0.00  0.00    +0.000 C 
ATOM     10  N   UNL     1      53.463   2.252  19.269  0.00  0.00    +0.000 N 
ATOM     11  O   UNL     1      53.966   3.710  17.631  0.00  0.00    +0.000 OA
ATOM     12  H   UNL     1      52.795   1.700  19.791  0.00  0.00    +0.000 HD
ATOM     13  H   UNL     1      54.440   2.211  19.529  0.00  0.00    +0.000 HD
ENDBRANCH   5   9
ENDBRANCH   1   2
BRANCH   1  14
ATOM     14  O   UNL     1      46.728   3.833  17.893  0.00  0.00    +0.000 OA
ATOM     15  H   UNL     1      46.956   3.213  18.604  0.00  0.00    +0.000 HD
ENDBRANCH   1  14
BRANCH   1  16
ATOM     16  C   UNL     1      47.176   4.423  15.562  0.00  0.00    +0.000 C 
BRANCH  16  17
ATOM     17  O   UNL     1      46.890   3.622  14.412  0.00  0.00    +0.000 OA
BRANCH  17  22
ATOM     18  C   UNL     1      44.815   3.885  11.444  0.00  0.00    +0.000 A 
ATOM     19  C   UNL     1      45.082   5.191  11.013  0.00  0.00    +0.000 A 
ATOM     20  C   UNL     1      45.974   6.000  11.719  0.00  0.00    +0.000 A 
ATOM     21  C   UNL     1      46.608   5.520  12.870  0.00  0.00    +0.000 A 
ATOM     22  C   UNL     1      46.355   4.224  13.311  0.00  0.00    +0.000 A 
ATOM     23  C   UNL     1      45.466   3.415  12.593  0.00  0.00    +0.000 A 
BRANCH  18  24
ATOM     24  C   UNL     1      43.818   3.017  10.721  0.00  0.00    +0.000 C 
BRANCH  24  25
ATOM     25  N   UNL     1      43.033   2.203  11.641  0.00  0.00    +0.000 NA
ATOM     26  H   UNL     1      43.551   2.096  12.511  0.00  0.00    +0.000 HD
ATOM     27  H   UNL     1      42.938   1.268  11.249  0.00  0.00    +0.000 HD
ENDBRANCH  24  25
ENDBRANCH  18  24
ENDBRANCH  17  22
ENDBRANCH  16  17
ENDBRANCH   1  16
TORSDOF 8
ENDMDL
MODEL 7
REMARK VINA RESULT:    -6.579      5.179      8.600
REMARK INTER + INTRA:          -9.942
REMARK INTER:                  -9.522
REMARK INTRA:                  -0.419
REMARK UNBOUND:                -0.670
REMARK  Name = 
REMARK  8 active torsions:
REMARK  status: ('A' for Active; 'I' for Inactive)
REMARK    1  A    between atoms: N_1  and  C_2
REMARK    2  A    between atoms: C_2  and  C_3
REMARK    3  A    between atoms: C_7  and  O_8
REMARK    4  A    between atoms: O_8  and  C_9
REMARK    5  A    between atoms: C_9  and  C_10
REMARK    6  A    between atoms: C_10  and  O_11
REMARK    7  A    between atoms: C_10  and  C_12
REMARK    8  A    between atoms: C_15  and  C_16
REMARK                            x       y       z     vdW  Elec       q    Type
REMARK                         _______ _______ _______ _____ _____    ______ ____
ROOT
ATOM      1  C   UNL     1      47.483   3.390  16.791  0.00  0.00    +0.000 C 
ENDROOT
BRANCH   1   2
ATOM      2  C   UNL     1      48.944   3.232  17.173  0.00  0.00    +0.000 A 
ATOM      3  C   UNL     1      49.649   2.042  16.918  0.00  0.00    +0.000 A 
ATOM      4  C   UNL     1      51.003   1.915  17.247  0.00  0.00    +0.000 A 
ATOM      5  C   UNL     1      51.692   2.981  17.832  0.00  0.00    +0.000 A 
ATOM      6  C   UNL     1      51.003   4.172  18.068  0.00  0.00    +0.000 A 
ATOM      7  F   UNL     1      51.618   5.234  18.610  0.00  0.00    +0.000 F 
ATOM      8  C   UNL     1      49.652   4.301  17.741  0.00  0.00    +0.000 A 
BRANCH   5   9
ATOM      9  C   UNL     1      53.125   2.791  18.172  0.00  0.00    +0.000 C 
ATOM     10  N   UNL     1      53.439   1.933  19.187  0.00  0.00    +0.000 N 
ATOM     11  O   UNL     1      54.011   3.378  17.561  0.00  0.00    +0.000 OA
ATOM     12  H   UNL     1      52.744   1.428  19.721  0.00  0.00    +0.000 HD
ATOM     13  H   UNL     1      54.417   1.805  19.413  0.00  0.00    +0.000 HD
ENDBRANCH   5   9
ENDBRANCH   1   2
BRANCH   1  14
ATOM     14  O   UNL     1      46.727   3.772  17.950  0.00  0.00    +0.000 OA
ATOM     15  H   UNL     1      46.877   3.098  18.633  0.00  0.00    +0.000 HD
ENDBRANCH   1  14
BRANCH   1  16
ATOM     16  C   UNL     1      47.225   4.385  15.635  0.00  0.00    +0.000 C 
BRANCH  16  17
ATOM     17  O   UNL     1      46.872   3.615  14.482  0.00  0.00    +0.000 OA
BRANCH  17  22
ATOM     18  C   UNL     1      44.815   4.057  11.523  0.00  0.00    +0.000 A 
ATOM     19  C   UNL     1      45.182   5.340  11.099  0.00  0.00    +0.000 A 
ATOM     20  C   UNL     1      46.136   6.074  11.806  0.00  0.00    +0.000 A 
ATOM     21  C   UNL     1      46.734   5.539  12.952  0.00  0.00    +0.000 A 
ATOM     22  C   UNL     1      46.382   4.264  13.387  0.00  0.00    +0.000 A 
ATOM     23  C   UNL     1      45.431   3.531  12.668  0.00  0.00    +0.000 A 
BRANCH  18  24
ATOM     24  C   UNL     1      43.752   3.273  10.798  0.00  0.00    +0.000 C 
BRANCH  24  25
ATOM     25  N   UNL     1      43.084   2.318  11.675  0.00  0.00    +0.000 NA
ATOM     26  H   UNL     1      42.459   2.824  12.299  0.00  0.00    +0.000 HD
ATOM     27  H   UNL     1      43.784   1.877  12.269  0.00  0.00    +0.000 HD
ENDBRANCH  24  25
ENDBRANCH  18  24
ENDBRANCH  17  22
ENDBRANCH  16  17
ENDBRANCH   1  16
TORSDOF 8
ENDMDL
MODEL 8
REMARK VINA RESULT:    -6.432      3.209      5.406
REMARK INTER + INTRA:          -9.734
REMARK INTER:                  -8.954
REMARK INTRA:                  -0.780
REMARK UNBOUND:                -0.670
REMARK  Name = 
REMARK  8 active torsions:
REMARK  status: ('A' for Active; 'I' for Inactive)
REMARK    1  A    between atoms: N_1  and  C_2
REMARK    2  A    between atoms: C_2  and  C_3
REMARK    3  A    between atoms: C_7  and  O_8
REMARK    4  A    between atoms: O_8  and  C_9
REMARK    5  A    between atoms: C_9  and  C_10
REMARK    6  A    between atoms: C_10  and  O_11
REMARK    7  A    between atoms: C_10  and  C_12
REMARK    8  A    between atoms: C_15  and  C_16
REMARK                            x       y       z     vdW  Elec       q    Type
REMARK                         _______ _______ _______ _____ _____    ______ ____
ROOT
ATOM      1  C   UNL     1      47.554   7.706  13.261  0.00  0.00    +0.000 C 
ENDROOT
BRANCH   1   2
ATOM      2  C   UNL     1      46.710   6.590  12.670  0.00  0.00    +0.000 A 
ATOM      3  C   UNL     1      46.061   5.645  13.485  0.00  0.00    +0.000 A 
ATOM      4  C   UNL     1      45.261   4.638  12.935  0.00  0.00    +0.000 A 
ATOM      5  C   UNL     1      45.081   4.555  11.551  0.00  0.00    +0.000 A 
ATOM      6  C   UNL     1      45.706   5.503  10.738  0.00  0.00    +0.000 A 
ATOM      7  F   UNL     1      45.554   5.482   9.405  0.00  0.00    +0.000 F 
ATOM      8  C   UNL     1      46.505   6.508  11.286  0.00  0.00    +0.000 A 
BRANCH   5   9
ATOM      9  C   UNL     1      44.231   3.460  11.016  0.00  0.00    +0.000 C 
ATOM     10  N   UNL     1      44.839   2.451  10.324  0.00  0.00    +0.000 N 
ATOM     11  O   UNL     1      43.018   3.450  11.190  0.00  0.00    +0.000 OA
ATOM     12  H   UNL     1      45.836   2.418  10.154  0.00  0.00    +0.000 HD
ATOM     13  H   UNL     1      44.256   1.708   9.964  0.00  0.00    +0.000 HD
ENDBRANCH   5   9
ENDBRANCH   1   2
BRANCH   1  14
ATOM     14  O   UNL     1      46.748   8.491  14.152  0.00  0.00    +0.000 OA
ATOM     15  H   UNL     1      47.339   8.881  14.816  0.00  0.00    +0.000 HD
ENDBRANCH   1  14
BRANCH   1  16
ATOM     16  C   UNL     1      48.835   7.227  13.984  0.00  0.00    +0.000 C 
BRANCH  16  17
ATOM     17  O   UNL     1      48.581   7.296  15.390  0.00  0.00    +0.000 OA
BRANCH  17  22
ATOM     18  C   UNL     1      48.753   4.096  17.097  0.00  0.00    +0.000 A 
ATOM     19  C   UNL     1      49.972   4.192  17.780  0.00  0.00    +0.000 A 
ATOM     20  C   UNL     1      50.751   5.346  17.677  0.00  0.00    +0.000 A 
ATOM     21  C   UNL     1      50.329   6.419  16.885  0.00  0.00    +0.000 A 
ATOM     22  C   UNL     1      49.119   6.340  16.200  0.00  0.00    +0.000 A 
ATOM     23  C   UNL     1      48.338   5.183  16.315  0.00  0.00    +0.000 A 
BRANCH  18  24
ATOM     24  C   UNL     1      47.925   2.839  17.159  0.00  0.00    +0.000 C 
BRANCH  24  25
ATOM     25  N   UNL     1      46.557   3.106  17.588  0.00  0.00    +0.000 NA
ATOM     26  H   UNL     1      46.574   3.464  18.541  0.00  0.00    +0.000 HD
ATOM     27  H   UNL     1      46.049   2.224  17.624  0.00  0.00    +0.000 HD
ENDBRANCH  24  25
ENDBRANCH  18  24
ENDBRANCH  17  22
ENDBRANCH  16  17
ENDBRANCH   1  16
TORSDOF 8
ENDMDL
MODEL 9
REMARK VINA RESULT:    -6.265      4.109      5.864
REMARK INTER + INTRA:          -9.500
REMARK INTER:                  -8.781
REMARK INTRA:                  -0.719
REMARK UNBOUND:                -0.670
REMARK  Name = 
REMARK  8 active torsions:
REMARK  status: ('A' for Active; 'I' for Inactive)
REMARK    1  A    between atoms: N_1  and  C_2
REMARK    2  A    between atoms: C_2  and  C_3
REMARK    3  A    between atoms: C_7  and  O_8
REMARK    4  A    between atoms: O_8  and  C_9
REMARK    5  A    between atoms: C_9  and  C_10
REMARK    6  A    between atoms: C_10  and  O_11
REMARK    7  A    between atoms: C_10  and  C_12
REMARK    8  A    between atoms: C_15  and  C_16
REMARK                            x       y       z     vdW  Elec       q    Type
REMARK                         _______ _______ _______ _____ _____    ______ ____
ROOT
ATOM      1  C   UNL     1      48.676   6.517  13.546  0.00  0.00    +0.000 C 
ENDROOT
BRANCH   1   2
ATOM      2  C   UNL     1      47.297   6.295  12.950  0.00  0.00    +0.000 A 
ATOM      3  C   UNL     1      46.885   6.954  11.778  0.00  0.00    +0.000 A 
ATOM      4  C   UNL     1      45.624   6.722  11.219  0.00  0.00    +0.000 A 
ATOM      5  C   UNL     1      44.743   5.815  11.813  0.00  0.00    +0.000 A 
ATOM      6  C   UNL     1      45.154   5.141  12.965  0.00  0.00    +0.000 A 
ATOM      7  F   UNL     1      44.358   4.245  13.567  0.00  0.00    +0.000 F 
ATOM      8  C   UNL     1      46.413   5.372  13.524  0.00  0.00    +0.000 A 
BRANCH   5   9
ATOM      9  C   UNL     1      43.412   5.613  11.186  0.00  0.00    +0.000 C 
ATOM     10  N   UNL     1      42.342   6.281  11.712  0.00  0.00    +0.000 N 
ATOM     11  O   UNL     1      43.265   4.873  10.220  0.00  0.00    +0.000 OA
ATOM     12  H   UNL     1      42.414   6.899  12.509  0.00  0.00    +0.000 HD
ATOM     13  H   UNL     1      41.439   6.141  11.280  0.00  0.00    +0.000 HD
ENDBRANCH   5   9
ENDBRANCH   1   2
BRANCH   1  14
ATOM     14  O   UNL     1      49.638   6.635  12.487  0.00  0.00    +0.000 OA
ATOM     15  H   UNL     1      50.474   6.933  12.881  0.00  0.00    +0.000 HD
ENDBRANCH   1  14
BRANCH   1  16
ATOM     16  C   UNL     1      48.777   7.733  14.496  0.00  0.00    +0.000 C 
BRANCH  16  17
ATOM     17  O   UNL     1      48.386   7.289  15.798  0.00  0.00    +0.000 OA
BRANCH  17  22
ATOM     18  C   UNL     1      48.915   4.042  17.335  0.00  0.00    +0.000 A 
ATOM     19  C   UNL     1      50.289   4.064  17.603  0.00  0.00    +0.000 A 
ATOM     20  C   UNL     1      51.057   5.182  17.272  0.00  0.00    +0.000 A 
ATOM     21  C   UNL     1      50.465   6.293  16.662  0.00  0.00    +0.000 A 
ATOM     22  C   UNL     1      49.100   6.288  16.390  0.00  0.00    +0.000 A 
ATOM     23  C   UNL     1      48.334   5.167  16.732  0.00  0.00    +0.000 A 
BRANCH  18  24
ATOM     24  C   UNL     1      48.082   2.824  17.641  0.00  0.00    +0.000 C 
BRANCH  24  25
ATOM     25  N   UNL     1      46.653   3.109  17.576  0.00  0.00    +0.000 NA
ATOM     26  H   UNL     1      46.394   3.682  18.377  0.00  0.00    +0.000 HD
ATOM     27  H   UNL     1      46.142   2.233  17.676  0.00  0.00    +0.000 HD
ENDBRANCH  24  25
ENDBRANCH  18  24
ENDBRANCH  17  22
ENDBRANCH  16  17
ENDBRANCH   1  16
TORSDOF 8
ENDMDL
