MODEL 1
REMARK VINA RESULT:    -8.684      0.000      0.000
REMARK INTER + INTRA:         -11.852
REMARK INTER:                 -11.223
REMARK INTRA:                  -0.629
REMARK UNBOUND:                -0.629
REMARK  Name = 
REMARK  5 active torsions:
REMARK  status: ('A' for Active; 'I' for Inactive)
REMARK    1  A    between atoms: C_2  and  C_4
REMARK    2  A    between atoms: C_7  and  N_8
REMARK    3  A    between atoms: N_8  and  C_9
REMARK    4  A    between atoms: C_9  and  C_10
REMARK    5  A    between atoms: C_14  and  C_15
REMARK                            x       y       z     vdW  Elec       q    Type
REMARK                         _______ _______ _______ _____ _____    ______ ____
ROOT
ATOM      1  C   UNL     1      43.543   4.616  11.059  0.00  0.00    +0.000 C 
ENDROOT
BRANCH   1   2
ATOM      2  C   UNL     1      44.804   4.914  11.835  0.00  0.00    +0.000 A 
ATOM      3  C   UNL     1      45.183   4.082  12.880  0.00  0.00    +0.000 A 
ATOM      4  N   UNL     1      46.261   4.293  13.663  0.00  0.00    +0.000 NA
ATOM      5  C   UNL     1      46.994   5.404  13.403  0.00  0.00    +0.000 A 
ATOM      6  C   UNL     1      46.728   6.331  12.393  0.00  0.00    +0.000 A 
ATOM      7  C   UNL     1      45.591   6.056  11.613  0.00  0.00    +0.000 A 
BRANCH   6   8
ATOM      8  C   UNL     1      47.578   7.522  12.165  0.00  0.00    +0.000 A 
ATOM      9  C   UNL     1      48.957   7.404  11.888  0.00  0.00    +0.000 A 
ATOM     10  C   UNL     1      49.766   8.529  11.674  0.00  0.00    +0.000 A 
ATOM     11  C   UNL     1      49.211   9.800  11.720  0.00  0.00    +0.000 A 
ATOM     12  C   UNL     1      47.856   9.938  11.985  0.00  0.00    +0.000 A 
ATOM     13  F   UNL     1      47.313  11.161  12.025  0.00  0.00    +0.000 F 
ATOM     14  C   UNL     1      47.048   8.824  12.210  0.00  0.00    +0.000 A 
ENDBRANCH   6   8
ENDBRANCH   1   2
BRANCH   1  15
ATOM     15  N   UNL     1      43.742   4.853   9.631  0.00  0.00    +0.000 N 
ATOM     16  H   UNL     1      44.074   5.798   9.452  0.00  0.00    +0.000 HD
BRANCH  15  20
ATOM     17  C   UNL     1      46.196   2.041   7.902  0.00  0.00    +0.000 A 
ATOM     18  C   UNL     1      46.325   3.381   7.580  0.00  0.00    +0.000 A 
ATOM     19  N   UNL     1      45.530   4.345   8.121  0.00  0.00    +0.000 NA
ATOM     20  C   UNL     1      44.590   3.930   8.997  0.00  0.00    +0.000 A 
ATOM     21  C   UNL     1      44.479   2.567   9.311  0.00  0.00    +0.000 A 
ATOM     22  N   UNL     1      45.258   1.590   8.779  0.00  0.00    +0.000 NA
BRANCH  17  24
ATOM     23  N   UNL     1      46.875  -0.268   7.636  0.00  0.00    +0.000 N 
ATOM     24  C   UNL     1      47.109   1.036   7.291  0.00  0.00    +0.000 C 
ATOM     25  O   UNL     1      48.013   1.352   6.529  0.00  0.00    +0.000 OA
ATOM     26  H   UNL     1      47.467  -0.996   7.262  0.00  0.00    +0.000 HD
ATOM     27  H   UNL     1      46.119  -0.497   8.270  0.00  0.00    +0.000 HD
ENDBRANCH  17  24
ENDBRANCH  15  20
ENDBRANCH   1  15
TORSDOF 5
ENDMDL
MODEL 2
REMARK VINA RESULT:    -8.530      3.752      6.950
REMARK INTER + INTRA:         -11.653
REMARK INTER:                 -10.857
REMARK INTRA:                  -0.796
REMARK UNBOUND:                -0.629
REMARK  Name = 
REMARK  5 active torsions:
REMARK  status: ('A' for Active; 'I' for Inactive)
REMARK    1  A    between atoms: C_2  and  C_4
REMARK    2  A    between atoms: C_7  and  N_8
REMARK    3  A    between atoms: N_8  and  C_9
REMARK    4  A    between atoms: C_9  and  C_10
REMARK    5  A    between atoms: C_14  and  C_15
REMARK                            x       y       z     vdW  Elec       q    Type
REMARK                         _______ _______ _______ _____ _____    ______ ____
ROOT
ATOM      1  C   UNL     1      43.434   6.389  11.409  0.00  0.00    +0.000 C 
ENDROOT
BRANCH   1   2
ATOM      2  C   UNL     1      43.622   4.945  11.006  0.00  0.00    +0.000 A 
ATOM      3  C   UNL     1      43.015   3.939  11.744  0.00  0.00    +0.000 A 
ATOM      4  N   UNL     1      43.165   2.621  11.493  0.00  0.00    +0.000 NA
ATOM      5  C   UNL     1      43.978   2.286  10.461  0.00  0.00    +0.000 A 
ATOM      6  C   UNL     1      44.658   3.189   9.640  0.00  0.00    +0.000 A 
ATOM      7  C   UNL     1      44.462   4.546   9.952  0.00  0.00    +0.000 A 
BRANCH   6   8
ATOM      8  C   UNL     1      45.527   2.748   8.526  0.00  0.00    +0.000 A 
ATOM      9  C   UNL     1      45.995   3.654   7.550  0.00  0.00    +0.000 A 
ATOM     10  C   UNL     1      46.816   3.240   6.492  0.00  0.00    +0.000 A 
ATOM     11  C   UNL     1      47.199   1.909   6.391  0.00  0.00    +0.000 A 
ATOM     12  C   UNL     1      46.755   1.004   7.344  0.00  0.00    +0.000 A 
ATOM     13  F   UNL     1      47.126  -0.280   7.257  0.00  0.00    +0.000 F 
ATOM     14  C   UNL     1      45.929   1.406   8.392  0.00  0.00    +0.000 A 
ENDBRANCH   6   8
ENDBRANCH   1   2
BRANCH   1  15
ATOM     15  N   UNL     1      44.016   6.641  12.726  0.00  0.00    +0.000 N 
ATOM     16  H   UNL     1      43.765   5.914  13.391  0.00  0.00    +0.000 HD
BRANCH  15  20
ATOM     17  C   UNL     1      48.078   7.272  12.601  0.00  0.00    +0.000 A 
ATOM     18  C   UNL     1      47.564   6.103  13.135  0.00  0.00    +0.000 A 
ATOM     19  N   UNL     1      46.226   5.855  13.205  0.00  0.00    +0.000 NA
ATOM     20  C   UNL     1      45.409   6.818  12.727  0.00  0.00    +0.000 A 
ATOM     21  C   UNL     1      45.953   7.993  12.186  0.00  0.00    +0.000 A 
ATOM     22  N   UNL     1      47.282   8.262  12.113  0.00  0.00    +0.000 NA
BRANCH  17  24
ATOM     23  N   UNL     1      50.218   7.385  13.728  0.00  0.00    +0.000 N 
ATOM     24  C   UNL     1      49.552   7.476  12.535  0.00  0.00    +0.000 C 
ATOM     25  O   UNL     1      50.134   7.710  11.485  0.00  0.00    +0.000 OA
ATOM     26  H   UNL     1      51.218   7.523  13.751  0.00  0.00    +0.000 HD
ATOM     27  H   UNL     1      49.707   7.191  14.581  0.00  0.00    +0.000 HD
ENDBRANCH  17  24
ENDBRANCH  15  20
ENDBRANCH   1  15
TORSDOF 5
ENDMDL
MODEL 3
REMARK VINA RESULT:    -8.512      4.258      7.304
REMARK INTER + INTRA:         -11.629
REMARK INTER:                 -11.174
REMARK INTRA:                  -0.455
REMARK UNBOUND:                -0.629
REMARK  Name = 
REMARK  5 active torsions:
REMARK  status: ('A' for Active; 'I' for Inactive)
REMARK    1  A    between atoms: C_2  and  C_4
REMARK    2  A    between atoms: C_7  and  N_8
REMARK    3  A    between atoms: N_8  and  C_9
REMARK    4  A    between atoms: C_9  and  C_10
REMARK    5  A    between atoms: C_14  and  C_15
REMARK                            x       y       z     vdW  Elec       q    Type
REMARK                         _______ _______ _______ _____ _____    ______ ____
ROOT
ATOM      1  C   UNL     1      45.985   6.968  12.186  0.00  0.00    +0.000 C 
ENDROOT
BRANCH   1   2
ATOM      2  C   UNL     1      45.228   6.042  11.263  0.00  0.00    +0.000 A 
ATOM      3  C   UNL     1      43.852   5.911  11.394  0.00  0.00    +0.000 A 
ATOM      4  N   UNL     1      43.098   5.073  10.653  0.00  0.00    +0.000 NA
ATOM      5  C   UNL     1      43.751   4.310   9.743  0.00  0.00    +0.000 A 
ATOM      6  C   UNL     1      45.128   4.330   9.508  0.00  0.00    +0.000 A 
ATOM      7  C   UNL     1      45.859   5.222  10.312  0.00  0.00    +0.000 A 
BRANCH   6   8
ATOM      8  C   UNL     1      45.772   3.468   8.490  0.00  0.00    +0.000 A 
ATOM      9  C   UNL     1      46.342   4.008   7.318  0.00  0.00    +0.000 A 
ATOM     10  C   UNL     1      46.950   3.196   6.351  0.00  0.00    +0.000 A 
ATOM     11  C   UNL     1      47.013   1.822   6.540  0.00  0.00    +0.000 A 
ATOM     12  C   UNL     1      46.463   1.272   7.689  0.00  0.00    +0.000 A 
ATOM     13  F   UNL     1      46.526  -0.052   7.881  0.00  0.00    +0.000 F 
ATOM     14  C   UNL     1      45.847   2.072   8.649  0.00  0.00    +0.000 A 
ENDBRANCH   6   8
ENDBRANCH   1   2
BRANCH   1  15
ATOM     15  N   UNL     1      47.328   6.456  12.452  0.00  0.00    +0.000 N 
ATOM     16  H   UNL     1      48.016   7.204  12.469  0.00  0.00    +0.000 HD
BRANCH  15  20
ATOM     17  C   UNL     1      47.519   4.117  15.830  0.00  0.00    +0.000 A 
ATOM     18  C   UNL     1      48.115   5.367  15.804  0.00  0.00    +0.000 A 
ATOM     19  N   UNL     1      48.083   6.171  14.706  0.00  0.00    +0.000 NA
ATOM     20  C   UNL     1      47.440   5.687  13.622  0.00  0.00    +0.000 A 
ATOM     21  C   UNL     1      46.841   4.419  13.671  0.00  0.00    +0.000 A 
ATOM     22  N   UNL     1      46.866   3.599  14.754  0.00  0.00    +0.000 NA
BRANCH  17  24
ATOM     23  N   UNL     1      48.808   3.154  17.639  0.00  0.00    +0.000 N 
ATOM     24  C   UNL     1      47.572   3.292  17.069  0.00  0.00    +0.000 C 
ATOM     25  O   UNL     1      46.575   2.769  17.549  0.00  0.00    +0.000 OA
ATOM     26  H   UNL     1      48.912   2.598  18.475  0.00  0.00    +0.000 HD
ATOM     27  H   UNL     1      49.615   3.598  17.216  0.00  0.00    +0.000 HD
ENDBRANCH  17  24
ENDBRANCH  15  20
ENDBRANCH   1  15
TORSDOF 5
ENDMDL
MODEL 4
REMARK VINA RESULT:    -8.487      2.810      3.871
REMARK INTER + INTRA:         -11.597
REMARK INTER:                 -11.060
REMARK INTRA:                  -0.537
REMARK UNBOUND:                -0.629
REMARK  Name = 
REMARK  5 active torsions:
REMARK  status: ('A' for Active; 'I' for Inactive)
REMARK    1  A    between atoms: C_2  and  C_4
REMARK    2  A    between atoms: C_7  and  N_8
REMARK    3  A    between atoms: N_8  and  C_9
REMARK    4  A    between atoms: C_9  and  C_10
REMARK    5  A    between atoms: C_14  and  C_15
REMARK                            x       y       z     vdW  Elec       q    Type
REMARK                         _______ _______ _______ _____ _____    ______ ____
ROOT
ATOM      1  C   UNL     1      44.007   4.820  11.328  0.00  0.00    +0.000 C 
ENDROOT
BRANCH   1   2
ATOM      2  C   UNL     1      45.236   5.449  11.940  0.00  0.00    +0.000 A 
ATOM      3  C   UNL     1      45.940   6.415  11.234  0.00  0.00    +0.000 A 
ATOM      4  N   UNL     1      47.075   6.997  11.675  0.00  0.00    +0.000 NA
ATOM      5  C   UNL     1      47.546   6.581  12.876  0.00  0.00    +0.000 A 
ATOM      6  C   UNL     1      46.948   5.616  13.690  0.00  0.00    +0.000 A 
ATOM      7  C   UNL     1      45.770   5.047  13.176  0.00  0.00    +0.000 A 
BRANCH   6   8
ATOM      8  C   UNL     1      47.519   5.215  14.996  0.00  0.00    +0.000 A 
ATOM      9  C   UNL     1      48.494   5.999  15.648  0.00  0.00    +0.000 A 
ATOM     10  C   UNL     1      49.039   5.622  16.884  0.00  0.00    +0.000 A 
ATOM     11  C   UNL     1      48.611   4.456  17.503  0.00  0.00    +0.000 A 
ATOM     12  C   UNL     1      47.649   3.674  16.881  0.00  0.00    +0.000 A 
ATOM     13  F   UNL     1      47.227   2.551  17.475  0.00  0.00    +0.000 F 
ATOM     14  C   UNL     1      47.111   4.036  15.647  0.00  0.00    +0.000 A 
ENDBRANCH   6   8
ENDBRANCH   1   2
BRANCH   1  15
ATOM     15  N   UNL     1      44.012   4.974   9.874  0.00  0.00    +0.000 N 
ATOM     16  H   UNL     1      44.307   5.907   9.599  0.00  0.00    +0.000 HD
BRANCH  15  20
ATOM     17  C   UNL     1      46.242   2.071   7.999  0.00  0.00    +0.000 A 
ATOM     18  C   UNL     1      46.319   3.391   7.590  0.00  0.00    +0.000 A 
ATOM     19  N   UNL     1      45.593   4.384   8.176  0.00  0.00    +0.000 NA
ATOM     20  C   UNL     1      44.777   4.017   9.187  0.00  0.00    +0.000 A 
ATOM     21  C   UNL     1      44.718   2.674   9.587  0.00  0.00    +0.000 A 
ATOM     22  N   UNL     1      45.428   1.669   9.013  0.00  0.00    +0.000 NA
BRANCH  17  24
ATOM     23  N   UNL     1      46.781  -0.264   7.649  0.00  0.00    +0.000 N 
ATOM     24  C   UNL     1      47.077   1.034   7.330  0.00  0.00    +0.000 C 
ATOM     25  O   UNL     1      47.971   1.321   6.546  0.00  0.00    +0.000 OA
ATOM     26  H   UNL     1      47.318  -1.012   7.236  0.00  0.00    +0.000 HD
ATOM     27  H   UNL     1      46.035  -0.468   8.304  0.00  0.00    +0.000 HD
ENDBRANCH  17  24
ENDBRANCH  15  20
ENDBRANCH   1  15
TORSDOF 5
ENDMDL
MODEL 5
REMARK VINA RESULT:    -8.307      2.582      3.771
REMARK INTER + INTRA:         -11.365
REMARK INTER:                 -10.871
REMARK INTRA:                  -0.494
REMARK UNBOUND:                -0.629
REMARK  Name = 
REMARK  5 active torsions:
REMARK  status: ('A' for Active; 'I' for Inactive)
REMARK    1  A    between atoms: C_2  and  C_4
REMARK    2  A    between atoms: C_7  and  N_8
REMARK    3  A    between atoms: N_8  and  C_9
REMARK    4  A    between atoms: C_9  and  C_10
REMARK    5  A    between atoms: C_14  and  C_15
REMARK                            x       y       z     vdW  Elec       q    Type
REMARK                         _______ _______ _______ _____ _____    ______ ____
ROOT
ATOM      1  C   UNL     1      43.983   4.428  11.389  0.00  0.00    +0.000 C 
ENDROOT
BRANCH   1   2
ATOM      2  C   UNL     1      45.162   5.123  12.027  0.00  0.00    +0.000 A 
ATOM      3  C   UNL     1      45.790   6.167  11.361  0.00  0.00    +0.000 A 
ATOM      4  N   UNL     1      46.879   6.814  11.825  0.00  0.00    +0.000 NA
ATOM      5  C   UNL     1      47.384   6.386  13.009  0.00  0.00    +0.000 A 
ATOM      6  C   UNL     1      46.863   5.346  13.782  0.00  0.00    +0.000 A 
ATOM      7  C   UNL     1      45.729   4.712  13.245  0.00  0.00    +0.000 A 
BRANCH   6   8
ATOM      8  C   UNL     1      47.466   4.937  15.071  0.00  0.00    +0.000 A 
ATOM      9  C   UNL     1      47.197   3.678  15.647  0.00  0.00    +0.000 A 
ATOM     10  C   UNL     1      47.764   3.288  16.868  0.00  0.00    +0.000 A 
ATOM     11  C   UNL     1      48.624   4.147  17.538  0.00  0.00    +0.000 A 
ATOM     12  C   UNL     1      48.906   5.388  16.986  0.00  0.00    +0.000 A 
ATOM     13  F   UNL     1      49.741   6.218  17.624  0.00  0.00    +0.000 F 
ATOM     14  C   UNL     1      48.337   5.786  15.778  0.00  0.00    +0.000 A 
ENDBRANCH   6   8
ENDBRANCH   1   2
BRANCH   1  15
ATOM     15  N   UNL     1      43.924   4.710   9.956  0.00  0.00    +0.000 N 
ATOM     16  H   UNL     1      44.109   5.691   9.761  0.00  0.00    +0.000 HD
BRANCH  15  20
ATOM     17  C   UNL     1      46.396   2.251   7.774  0.00  0.00    +0.000 A 
ATOM     18  C   UNL     1      46.274   3.592   7.451  0.00  0.00    +0.000 A 
ATOM     19  N   UNL     1      45.462   4.441   8.140  0.00  0.00    +0.000 NA
ATOM     20  C   UNL     1      44.764   3.908   9.166  0.00  0.00    +0.000 A 
ATOM     21  C   UNL     1      44.907   2.548   9.478  0.00  0.00    +0.000 A 
ATOM     22  N   UNL     1      45.706   1.684   8.800  0.00  0.00    +0.000 NA
BRANCH  17  24
ATOM     23  N   UNL     1      48.483   1.964   6.581  0.00  0.00    +0.000 N 
ATOM     24  C   UNL     1      47.317   1.378   6.994  0.00  0.00    +0.000 C 
ATOM     25  O   UNL     1      47.050   0.212   6.736  0.00  0.00    +0.000 OA
ATOM     26  H   UNL     1      49.145   1.426   6.039  0.00  0.00    +0.000 HD
ATOM     27  H   UNL     1      48.674   2.932   6.809  0.00  0.00    +0.000 HD
ENDBRANCH  17  24
ENDBRANCH  15  20
ENDBRANCH   1  15
TORSDOF 5
ENDMDL
MODEL 6
REMARK VINA RESULT:    -7.810      1.763      2.401
REMARK INTER + INTRA:         -10.722
REMARK INTER:                 -10.075
REMARK INTRA:                  -0.647
REMARK UNBOUND:                -0.629
REMARK  Name = 
REMARK  5 active torsions:
REMARK  status: ('A' for Active; 'I' for Inactive)
REMARK    1  A    between atoms: C_2  and  C_4
REMARK    2  A    between atoms: C_7  and  N_8
REMARK    3  A    between atoms: N_8  and  C_9
REMARK    4  A    between atoms: C_9  and  C_10
REMARK    5  A    between atoms: C_14  and  C_15
REMARK                            x       y       z     vdW  Elec       q    Type
REMARK                         _______ _______ _______ _____ _____    ______ ____
ROOT
ATOM      1  C   UNL     1      44.348   3.917  11.757  0.00  0.00    +0.000 C 
ENDROOT
BRANCH   1   2
ATOM      2  C   UNL     1      44.841   5.343  11.834  0.00  0.00    +0.000 A 
ATOM      3  C   UNL     1      43.990   6.386  11.498  0.00  0.00    +0.000 A 
ATOM      4  N   UNL     1      44.353   7.686  11.486  0.00  0.00    +0.000 NA
ATOM      5  C   UNL     1      45.641   7.961  11.810  0.00  0.00    +0.000 A 
ATOM      6  C   UNL     1      46.607   7.016  12.161  0.00  0.00    +0.000 A 
ATOM      7  C   UNL     1      46.167   5.680  12.154  0.00  0.00    +0.000 A 
BRANCH   6   8
ATOM      8  C   UNL     1      47.996   7.392  12.508  0.00  0.00    +0.000 A 
ATOM      9  C   UNL     1      48.531   7.143  13.790  0.00  0.00    +0.000 A 
ATOM     10  C   UNL     1      49.845   7.501  14.124  0.00  0.00    +0.000 A 
ATOM     11  C   UNL     1      50.660   8.106  13.177  0.00  0.00    +0.000 A 
ATOM     12  C   UNL     1      50.155   8.355  11.909  0.00  0.00    +0.000 A 
ATOM     13  F   UNL     1      50.938   8.933  10.990  0.00  0.00    +0.000 F 
ATOM     14  C   UNL     1      48.846   8.012  11.574  0.00  0.00    +0.000 A 
ENDBRANCH   6   8
ENDBRANCH   1   2
BRANCH   1  15
ATOM     15  N   UNL     1      43.773   3.635  10.443  0.00  0.00    +0.000 N 
ATOM     16  H   UNL     1      43.209   4.411  10.108  0.00  0.00    +0.000 HD
BRANCH  15  20
ATOM     17  C   UNL     1      46.471   2.726   7.474  0.00  0.00    +0.000 A 
ATOM     18  C   UNL     1      46.008   1.741   8.330  0.00  0.00    +0.000 A 
ATOM     19  N   UNL     1      45.121   1.998   9.331  0.00  0.00    +0.000 NA
ATOM     20  C   UNL     1      44.710   3.278   9.460  0.00  0.00    +0.000 A 
ATOM     21  C   UNL     1      45.191   4.259   8.579  0.00  0.00    +0.000 A 
ATOM     22  N   UNL     1      46.079   4.025   7.579  0.00  0.00    +0.000 NA
BRANCH  17  24
ATOM     23  N   UNL     1      47.315   3.117   5.239  0.00  0.00    +0.000 N 
ATOM     24  C   UNL     1      47.426   2.378   6.386  0.00  0.00    +0.000 C 
ATOM     25  O   UNL     1      48.258   1.489   6.505  0.00  0.00    +0.000 OA
ATOM     26  H   UNL     1      47.928   2.923   4.460  0.00  0.00    +0.000 HD
ATOM     27  H   UNL     1      46.615   3.847   5.170  0.00  0.00    +0.000 HD
ENDBRANCH  17  24
ENDBRANCH  15  20
ENDBRANCH   1  15
TORSDOF 5
ENDMDL
MODEL 7
REMARK VINA RESULT:    -7.708      4.898      8.126
REMARK INTER + INTRA:         -10.591
REMARK INTER:                 -10.095
REMARK INTRA:                  -0.496
REMARK UNBOUND:                -0.629
REMARK  Name = 
REMARK  5 active torsions:
REMARK  status: ('A' for Active; 'I' for Inactive)
REMARK    1  A    between atoms: C_2  and  C_4
REMARK    2  A    between atoms: C_7  and  N_8
REMARK    3  A    between atoms: N_8  and  C_9
REMARK    4  A    between atoms: C_9  and  C_10
REMARK    5  A    between atoms: C_14  and  C_15
REMARK                            x       y       z     vdW  Elec       q    Type
REMARK                         _______ _______ _______ _____ _____    ______ ____
ROOT
ATOM      1  C   UNL     1      45.946   4.857  13.544  0.00  0.00    +0.000 C 
ENDROOT
BRANCH   1   2
ATOM      2  C   UNL     1      45.224   4.669  12.231  0.00  0.00    +0.000 A 
ATOM      3  C   UNL     1      43.894   5.049  12.115  0.00  0.00    +0.000 A 
ATOM      4  N   UNL     1      43.151   4.874  11.002  0.00  0.00    +0.000 NA
ATOM      5  C   UNL     1      43.761   4.272   9.952  0.00  0.00    +0.000 A 
ATOM      6  C   UNL     1      45.086   3.832   9.928  0.00  0.00    +0.000 A 
ATOM      7  C   UNL     1      45.807   4.041  11.117  0.00  0.00    +0.000 A 
BRANCH   6   8
ATOM      8  C   UNL     1      45.687   3.186   8.739  0.00  0.00    +0.000 A 
ATOM      9  C   UNL     1      46.038   3.929   7.592  0.00  0.00    +0.000 A 
ATOM     10  C   UNL     1      46.604   3.321   6.463  0.00  0.00    +0.000 A 
ATOM     11  C   UNL     1      46.845   1.953   6.460  0.00  0.00    +0.000 A 
ATOM     12  C   UNL     1      46.512   1.206   7.580  0.00  0.00    +0.000 A 
ATOM     13  F   UNL     1      46.747  -0.113   7.586  0.00  0.00    +0.000 F 
ATOM     14  C   UNL     1      45.938   1.802   8.702  0.00  0.00    +0.000 A 
ENDBRANCH   6   8
ENDBRANCH   1   2
BRANCH   1  15
ATOM     15  N   UNL     1      46.676   3.646  13.915  0.00  0.00    +0.000 N 
ATOM     16  H   UNL     1      47.366   3.396  13.212  0.00  0.00    +0.000 HD
BRANCH  15  20
ATOM     17  C   UNL     1      48.468   3.963  17.604  0.00  0.00    +0.000 A 
ATOM     18  C   UNL     1      48.613   2.813  16.848  0.00  0.00    +0.000 A 
ATOM     19  N   UNL     1      48.032   2.661  15.625  0.00  0.00    +0.000 NA
ATOM     20  C   UNL     1      47.290   3.696  15.178  0.00  0.00    +0.000 A 
ATOM     21  C   UNL     1      47.159   4.854  15.960  0.00  0.00    +0.000 A 
ATOM     22  N   UNL     1      47.725   5.023  17.183  0.00  0.00    +0.000 NA
BRANCH  17  24
ATOM     23  N   UNL     1      48.564   3.382  19.952  0.00  0.00    +0.000 N 
ATOM     24  C   UNL     1      49.145   4.076  18.925  0.00  0.00    +0.000 C 
ATOM     25  O   UNL     1      50.156   4.746  19.087  0.00  0.00    +0.000 OA
ATOM     26  H   UNL     1      48.971   3.427  20.876  0.00  0.00    +0.000 HD
ATOM     27  H   UNL     1      47.726   2.837  19.787  0.00  0.00    +0.000 HD
ENDBRANCH  17  24
ENDBRANCH  15  20
ENDBRANCH   1  15
TORSDOF 5
ENDMDL
MODEL 8
REMARK VINA RESULT:    -7.513      1.768      2.330
REMARK INTER + INTRA:         -10.338
REMARK INTER:                  -9.738
REMARK INTRA:                  -0.600
REMARK UNBOUND:                -0.629
REMARK  Name = 
REMARK  5 active torsions:
REMARK  status: ('A' for Active; 'I' for Inactive)
REMARK    1  A    between atoms: C_2  and  C_4
REMARK    2  A    between atoms: C_7  and  N_8
REMARK    3  A    between atoms: N_8  and  C_9
REMARK    4  A    between atoms: C_9  and  C_10
REMARK    5  A    between atoms: C_14  and  C_15
REMARK                            x       y       z     vdW  Elec       q    Type
REMARK                         _______ _______ _______ _____ _____    ______ ____
ROOT
ATOM      1  C   UNL     1      44.823   5.283  11.241  0.00  0.00    +0.000 C 
ENDROOT
BRANCH   1   2
ATOM      2  C   UNL     1      45.484   6.595  11.596  0.00  0.00    +0.000 A 
ATOM      3  C   UNL     1      44.717   7.746  11.702  0.00  0.00    +0.000 A 
ATOM      4  N   UNL     1      45.221   8.970  11.963  0.00  0.00    +0.000 NA
ATOM      5  C   UNL     1      46.566   9.056  12.110  0.00  0.00    +0.000 A 
ATOM      6  C   UNL     1      47.460   7.986  12.023  0.00  0.00    +0.000 A 
ATOM      7  C   UNL     1      46.874   6.738  11.748  0.00  0.00    +0.000 A 
BRANCH   6   8
ATOM      8  C   UNL     1      48.920   8.155  12.201  0.00  0.00    +0.000 A 
ATOM      9  C   UNL     1      49.834   7.808  11.184  0.00  0.00    +0.000 A 
ATOM     10  C   UNL     1      51.217   7.965  11.349  0.00  0.00    +0.000 A 
ATOM     11  C   UNL     1      51.719   8.485  12.535  0.00  0.00    +0.000 A 
ATOM     12  C   UNL     1      50.837   8.838  13.545  0.00  0.00    +0.000 A 
ATOM     13  F   UNL     1      51.314   9.345  14.689  0.00  0.00    +0.000 F 
ATOM     14  C   UNL     1      49.461   8.674  13.392  0.00  0.00    +0.000 A 
ENDBRANCH   6   8
ENDBRANCH   1   2
BRANCH   1  15
ATOM     15  N   UNL     1      44.503   5.231   9.816  0.00  0.00    +0.000 N 
ATOM     16  H   UNL     1      44.685   6.121   9.359  0.00  0.00    +0.000 HD
BRANCH  15  20
ATOM     17  C   UNL     1      46.371   2.116   7.887  0.00  0.00    +0.000 A 
ATOM     18  C   UNL     1      46.515   3.415   7.429  0.00  0.00    +0.000 A 
ATOM     19  N   UNL     1      45.909   4.475   8.032  0.00  0.00    +0.000 NA
ATOM     20  C   UNL     1      45.143   4.200   9.109  0.00  0.00    +0.000 A 
ATOM     21  C   UNL     1      45.015   2.877   9.557  0.00  0.00    +0.000 A 
ATOM     22  N   UNL     1      45.605   1.805   8.968  0.00  0.00    +0.000 NA
BRANCH  17  24
ATOM     23  N   UNL     1      46.764  -0.260   7.630  0.00  0.00    +0.000 N 
ATOM     24  C   UNL     1      47.076   1.000   7.196  0.00  0.00    +0.000 C 
ATOM     25  O   UNL     1      47.884   1.194   6.298  0.00  0.00    +0.000 OA
ATOM     26  H   UNL     1      47.216  -1.058   7.208  0.00  0.00    +0.000 HD
ATOM     27  H   UNL     1      46.091  -0.387   8.378  0.00  0.00    +0.000 HD
ENDBRANCH  17  24
ENDBRANCH  15  20
ENDBRANCH   1  15
TORSDOF 5
ENDMDL
MODEL 9
REMARK VINA RESULT:    -6.920      4.090      7.584
REMARK INTER + INTRA:          -9.571
REMARK INTER:                  -8.929
REMARK INTRA:                  -0.643
REMARK UNBOUND:                -0.629
REMARK  Name = 
REMARK  5 active torsions:
REMARK  status: ('A' for Active; 'I' for Inactive)
REMARK    1  A    between atoms: C_2  and  C_4
REMARK    2  A    between atoms: C_7  and  N_8
REMARK    3  A    between atoms: N_8  and  C_9
REMARK    4  A    between atoms: C_9  and  C_10
REMARK    5  A    between atoms: C_14  and  C_15
REMARK                            x       y       z     vdW  Elec       q    Type
REMARK                         _______ _______ _______ _____ _____    ______ ____
ROOT
ATOM      1  C   UNL     1      45.781   6.260  13.049  0.00  0.00    +0.000 C 
ENDROOT
BRANCH   1   2
ATOM      2  C   UNL     1      45.052   5.613  11.896  0.00  0.00    +0.000 A 
ATOM      3  C   UNL     1      43.666   5.677  11.834  0.00  0.00    +0.000 A 
ATOM      4  N   UNL     1      42.924   5.087  10.873  0.00  0.00    +0.000 NA
ATOM      5  C   UNL     1      43.596   4.380   9.932  0.00  0.00    +0.000 A 
ATOM      6  C   UNL     1      44.983   4.224   9.874  0.00  0.00    +0.000 A 
ATOM      7  C   UNL     1      45.701   4.861  10.902  0.00  0.00    +0.000 A 
BRANCH   6   8
ATOM      8  C   UNL     1      45.649   3.439   8.809  0.00  0.00    +0.000 A 
ATOM      9  C   UNL     1      46.241   4.063   7.691  0.00  0.00    +0.000 A 
ATOM     10  C   UNL     1      46.870   3.324   6.680  0.00  0.00    +0.000 A 
ATOM     11  C   UNL     1      46.933   1.940   6.770  0.00  0.00    +0.000 A 
ATOM     12  C   UNL     1      46.362   1.307   7.865  0.00  0.00    +0.000 A 
ATOM     13  F   UNL     1      46.425  -0.027   7.962  0.00  0.00    +0.000 F 
ATOM     14  C   UNL     1      45.725   2.036   8.868  0.00  0.00    +0.000 A 
ENDBRANCH   6   8
ENDBRANCH   1   2
BRANCH   1  15
ATOM     15  N   UNL     1      47.080   5.626  13.266  0.00  0.00    +0.000 N 
ATOM     16  H   UNL     1      47.252   4.886  12.589  0.00  0.00    +0.000 HD
BRANCH  15  20
ATOM     17  C   UNL     1      50.270   8.218  13.135  0.00  0.00    +0.000 A 
ATOM     18  C   UNL     1      50.031   7.453  14.264  0.00  0.00    +0.000 A 
ATOM     19  N   UNL     1      48.983   6.587  14.354  0.00  0.00    +0.000 NA
ATOM     20  C   UNL     1      48.170   6.512  13.280  0.00  0.00    +0.000 A 
ATOM     21  C   UNL     1      48.433   7.294  12.145  0.00  0.00    +0.000 A 
ATOM     22  N   UNL     1      49.468   8.167  12.037  0.00  0.00    +0.000 NA
BRANCH  17  24
ATOM     23  N   UNL     1      52.491   8.797  13.908  0.00  0.00    +0.000 N 
ATOM     24  C   UNL     1      51.445   9.132  13.090  0.00  0.00    +0.000 C 
ATOM     25  O   UNL     1      51.478  10.121  12.370  0.00  0.00    +0.000 OA
ATOM     26  H   UNL     1      53.313   9.382  13.930  0.00  0.00    +0.000 HD
ATOM     27  H   UNL     1      52.433   7.972  14.494  0.00  0.00    +0.000 HD
ENDBRANCH  17  24
ENDBRANCH  15  20
ENDBRANCH   1  15
TORSDOF 5
ENDMDL
