MODEL 1
REMARK VINA RESULT:    -8.252      0.000      0.000
REMARK INTER + INTRA:         -10.861
REMARK INTER:                 -10.182
REMARK INTRA:                  -0.679
REMARK UNBOUND:                -0.679
REMARK  Name = 
REMARK  4 active torsions:
REMARK  status: ('A' for Active; 'I' for Inactive)
REMARK    1  A    between atoms: C_2  and  C_4
REMARK    2  A    between atoms: C_7  and  N_8
REMARK    3  A    between atoms: N_8  and  C_9
REMARK    4  A    between atoms: C_9  and  C_10
REMARK                            x       y       z     vdW  Elec       q    Type
REMARK                         _______ _______ _______ _____ _____    ______ ____
ROOT
ATOM      1  C   UNL     1      46.399   2.337   7.822  0.00  0.00    +0.000 A 
ATOM      2  C   UNL     1      45.543   1.764   8.764  0.00  0.00    +0.000 A 
ATOM      3  C   UNL     1      44.678   2.576   9.496  0.00  0.00    +0.000 A 
ATOM      4  C   UNL     1      44.659   3.966   9.314  0.00  0.00    +0.000 A 
ATOM      5  C   UNL     1      45.531   4.531   8.380  0.00  0.00    +0.000 A 
ATOM      6  C   UNL     1      46.400   3.723   7.638  0.00  0.00    +0.000 A 
ENDROOT
BRANCH   1   8
ATOM      7  N   UNL     1      48.396   2.134   6.472  0.00  0.00    +0.000 N 
ATOM      8  C   UNL     1      47.315   1.505   7.020  0.00  0.00    +0.000 C 
ATOM      9  O   UNL     1      47.150   0.291   6.889  0.00  0.00    +0.000 OA
ATOM     10  H   UNL     1      49.089   1.545   6.037  0.00  0.00    +0.000 HD
ATOM     11  H   UNL     1      48.690   3.051   6.790  0.00  0.00    +0.000 HD
ENDBRANCH   1   8
BRANCH   4  12
ATOM     12  N   UNL     1      43.881   4.706  10.217  0.00  0.00    +0.000 N 
ATOM     13  H   UNL     1      43.603   5.610   9.830  0.00  0.00    +0.000 HD
BRANCH  12  14
ATOM     14  C   UNL     1      44.106   4.779  11.676  0.00  0.00    +0.000 C 
ATOM     15  C   UNL     1      43.400   3.894  12.677  0.00  0.00    +0.000 C 
ATOM     16  C   UNL     1      42.879   5.268  12.415  0.00  0.00    +0.000 C 
BRANCH  14  17
ATOM     17  C   UNL     1      45.520   5.286  11.980  0.00  0.00    +0.000 A 
ATOM     18  C   UNL     1      45.923   6.532  11.487  0.00  0.00    +0.000 A 
ATOM     19  C   UNL     1      46.886   7.263  12.177  0.00  0.00    +0.000 A 
ATOM     20  C   UNL     1      47.480   6.708  13.299  0.00  0.00    +0.000 A 
ATOM     21  C   UNL     1      47.143   5.411  13.639  0.00  0.00    +0.000 A 
ATOM     22  N   UNL     1      46.191   4.691  13.007  0.00  0.00    +0.000 NA
ENDBRANCH  14  17
ENDBRANCH  12  14
ENDBRANCH   4  12
TORSDOF 4
ENDMDL
MODEL 2
REMARK VINA RESULT:    -6.545      2.997      6.171
REMARK INTER + INTRA:          -8.755
REMARK INTER:                  -8.345
REMARK INTRA:                  -0.410
REMARK UNBOUND:                -0.679
REMARK  Name = 
REMARK  4 active torsions:
REMARK  status: ('A' for Active; 'I' for Inactive)
REMARK    1  A    between atoms: C_2  and  C_4
REMARK    2  A    between atoms: C_7  and  N_8
REMARK    3  A    between atoms: N_8  and  C_9
REMARK    4  A    between atoms: C_9  and  C_10
REMARK                            x       y       z     vdW  Elec       q    Type
REMARK                         _______ _______ _______ _____ _____    ______ ____
ROOT
ATOM      1  C   UNL     1      47.386   6.621  13.701  0.00  0.00    +0.000 A 
ATOM      2  C   UNL     1      46.700   6.721  12.489  0.00  0.00    +0.000 A 
ATOM      3  C   UNL     1      46.051   5.603  11.969  0.00  0.00    +0.000 A 
ATOM      4  C   UNL     1      46.082   4.370  12.634  0.00  0.00    +0.000 A 
ATOM      5  C   UNL     1      46.785   4.276  13.838  0.00  0.00    +0.000 A 
ATOM      6  C   UNL     1      47.437   5.395  14.371  0.00  0.00    +0.000 A 
ENDROOT
BRANCH   1   8
ATOM      7  N   UNL     1      47.295   8.873  14.580  0.00  0.00    +0.000 N 
ATOM      8  C   UNL     1      48.071   7.788  14.287  0.00  0.00    +0.000 C 
ATOM      9  O   UNL     1      49.274   7.775  14.552  0.00  0.00    +0.000 OA
ATOM     10  H   UNL     1      47.735   9.616  15.099  0.00  0.00    +0.000 HD
ATOM     11  H   UNL     1      46.284   8.803  14.624  0.00  0.00    +0.000 HD
ENDBRANCH   1   8
BRANCH   4  12
ATOM     12  N   UNL     1      45.547   3.270  11.945  0.00  0.00    +0.000 N 
ATOM     13  H   UNL     1      46.277   2.653  11.586  0.00  0.00    +0.000 HD
BRANCH  12  14
ATOM     14  C   UNL     1      44.374   3.317  11.047  0.00  0.00    +0.000 C 
ATOM     15  C   UNL     1      43.133   4.130  11.333  0.00  0.00    +0.000 C 
ATOM     16  C   UNL     1      43.154   2.677  11.675  0.00  0.00    +0.000 C 
BRANCH  14  17
ATOM     17  C   UNL     1      44.795   3.064   9.595  0.00  0.00    +0.000 A 
ATOM     18  C   UNL     1      45.114   4.151   8.774  0.00  0.00    +0.000 A 
ATOM     19  C   UNL     1      46.016   3.980   7.729  0.00  0.00    +0.000 A 
ATOM     20  C   UNL     1      46.525   2.715   7.476  0.00  0.00    +0.000 A 
ATOM     21  C   UNL     1      46.048   1.660   8.231  0.00  0.00    +0.000 A 
ATOM     22  N   UNL     1      45.197   1.802   9.271  0.00  0.00    +0.000 NA
ENDBRANCH  14  17
ENDBRANCH  12  14
ENDBRANCH   4  12
TORSDOF 4
ENDMDL
MODEL 3
REMARK VINA RESULT:    -6.442      3.040      6.185
REMARK INTER + INTRA:          -8.628
REMARK INTER:                  -8.164
REMARK INTRA:                  -0.463
REMARK UNBOUND:                -0.679
REMARK  Name = 
REMARK  4 active torsions:
REMARK  status: ('A' for Active; 'I' for Inactive)
REMARK    1  A    between atoms: C_2  and  C_4
REMARK    2  A    between atoms: C_7  and  N_8
REMARK    3  A    between atoms: N_8  and  C_9
REMARK    4  A    between atoms: C_9  and  C_10
REMARK                            x       y       z     vdW  Elec       q    Type
REMARK                         _______ _______ _______ _____ _____    ______ ____
ROOT
ATOM      1  C   UNL     1      47.093   7.462  13.248  0.00  0.00    +0.000 A 
ATOM      2  C   UNL     1      47.279   6.275  13.960  0.00  0.00    +0.000 A 
ATOM      3  C   UNL     1      46.816   5.072  13.430  0.00  0.00    +0.000 A 
ATOM      4  C   UNL     1      46.154   5.028  12.196  0.00  0.00    +0.000 A 
ATOM      5  C   UNL     1      45.959   6.223  11.498  0.00  0.00    +0.000 A 
ATOM      6  C   UNL     1      46.424   7.436  12.020  0.00  0.00    +0.000 A 
ENDROOT
BRANCH   1   8
ATOM      7  N   UNL     1      47.491   8.940  15.121  0.00  0.00    +0.000 N 
ATOM      8  C   UNL     1      47.583   8.750  13.771  0.00  0.00    +0.000 C 
ATOM      9  O   UNL     1      48.100   9.597  13.042  0.00  0.00    +0.000 OA
ATOM     10  H   UNL     1      47.943   9.760  15.493  0.00  0.00    +0.000 HD
ATOM     11  H   UNL     1      47.327   8.165  15.753  0.00  0.00    +0.000 HD
ENDBRANCH   1   8
BRANCH   4  12
ATOM     12  N   UNL     1      45.579   3.800  11.835  0.00  0.00    +0.000 N 
ATOM     13  H   UNL     1      46.287   3.091  11.637  0.00  0.00    +0.000 HD
BRANCH  12  14
ATOM     14  C   UNL     1      44.383   3.637  10.982  0.00  0.00    +0.000 C 
ATOM     15  C   UNL     1      43.086   4.379  11.210  0.00  0.00    +0.000 C 
ATOM     16  C   UNL     1      43.238   2.988  11.729  0.00  0.00    +0.000 C 
BRANCH  14  17
ATOM     17  C   UNL     1      44.785   3.237   9.558  0.00  0.00    +0.000 A 
ATOM     18  C   UNL     1      45.146   4.231   8.642  0.00  0.00    +0.000 A 
ATOM     19  C   UNL     1      46.034   3.927   7.615  0.00  0.00    +0.000 A 
ATOM     20  C   UNL     1      46.488   2.624   7.478  0.00  0.00    +0.000 A 
ATOM     21  C   UNL     1      45.971   1.663   8.326  0.00  0.00    +0.000 A 
ATOM     22  N   UNL     1      45.132   1.935   9.349  0.00  0.00    +0.000 NA
ENDBRANCH  14  17
ENDBRANCH  12  14
ENDBRANCH   4  12
TORSDOF 4
ENDMDL
MODEL 4
REMARK VINA RESULT:    -5.907      3.249      6.467
REMARK INTER + INTRA:          -7.967
REMARK INTER:                  -7.486
REMARK INTRA:                  -0.481
REMARK UNBOUND:                -0.679
REMARK  Name = 
REMARK  4 active torsions:
REMARK  status: ('A' for Active; 'I' for Inactive)
REMARK    1  A    between atoms: C_2  and  C_4
REMARK    2  A    between atoms: C_7  and  N_8
REMARK    3  A    between atoms: N_8  and  C_9
REMARK    4  A    between atoms: C_9  and  C_10
REMARK                            x       y       z     vdW  Elec       q    Type
REMARK                         _______ _______ _______ _____ _____    ______ ____
ROOT
ATOM      1  C   UNL     1      48.230   5.863  15.245  0.00  0.00    +0.000 A 
ATOM      2  C   UNL     1      47.600   4.709  15.715  0.00  0.00    +0.000 A 
ATOM      3  C   UNL     1      46.757   3.989  14.869  0.00  0.00    +0.000 A 
ATOM      4  C   UNL     1      46.519   4.407  13.553  0.00  0.00    +0.000 A 
ATOM      5  C   UNL     1      47.142   5.572  13.098  0.00  0.00    +0.000 A 
ATOM      6  C   UNL     1      47.993   6.300  13.938  0.00  0.00    +0.000 A 
ENDROOT
BRANCH   1   8
ATOM      7  N   UNL     1      48.559   7.485  17.010  0.00  0.00    +0.000 N 
ATOM      8  C   UNL     1      49.139   6.640  16.108  0.00  0.00    +0.000 C 
ATOM      9  O   UNL     1      50.362   6.500  16.061  0.00  0.00    +0.000 OA
ATOM     10  H   UNL     1      49.171   7.914  17.685  0.00  0.00    +0.000 HD
ATOM     11  H   UNL     1      47.575   7.410  17.246  0.00  0.00    +0.000 HD
ENDBRANCH   1   8
BRANCH   4  12
ATOM     12  N   UNL     1      45.526   3.714  12.844  0.00  0.00    +0.000 N 
ATOM     13  H   UNL     1      45.911   2.922  12.326  0.00  0.00    +0.000 HD
BRANCH  12  14
ATOM     14  C   UNL     1      44.393   4.341  12.131  0.00  0.00    +0.000 C 
ATOM     15  C   UNL     1      43.755   5.643  12.556  0.00  0.00    +0.000 C 
ATOM     16  C   UNL     1      43.132   4.351  12.969  0.00  0.00    +0.000 C 
BRANCH  14  17
ATOM     17  C   UNL     1      44.408   3.954  10.648  0.00  0.00    +0.000 A 
ATOM     18  C   UNL     1      44.998   4.818   9.719  0.00  0.00    +0.000 A 
ATOM     19  C   UNL     1      45.546   4.298   8.551  0.00  0.00    +0.000 A 
ATOM     20  C   UNL     1      45.433   2.940   8.298  0.00  0.00    +0.000 A 
ATOM     21  C   UNL     1      44.704   2.172   9.186  0.00  0.00    +0.000 A 
ATOM     22  N   UNL     1      44.187   2.644  10.341  0.00  0.00    +0.000 NA
ENDBRANCH  14  17
ENDBRANCH  12  14
ENDBRANCH   4  12
TORSDOF 4
ENDMDL
MODEL 5
REMARK VINA RESULT:    -5.830      2.306      4.310
REMARK INTER + INTRA:          -7.872
REMARK INTER:                  -7.294
REMARK INTRA:                  -0.578
REMARK UNBOUND:                -0.679
REMARK  Name = 
REMARK  4 active torsions:
REMARK  status: ('A' for Active; 'I' for Inactive)
REMARK    1  A    between atoms: C_2  and  C_4
REMARK    2  A    between atoms: C_7  and  N_8
REMARK    3  A    between atoms: N_8  and  C_9
REMARK    4  A    between atoms: C_9  and  C_10
REMARK                            x       y       z     vdW  Elec       q    Type
REMARK                         _______ _______ _______ _____ _____    ______ ____
ROOT
ATOM      1  C   UNL     1      45.019   3.804  10.196  0.00  0.00    +0.000 A 
ATOM      2  C   UNL     1      45.463   5.106   9.955  0.00  0.00    +0.000 A 
ATOM      3  C   UNL     1      45.893   5.897  11.019  0.00  0.00    +0.000 A 
ATOM      4  C   UNL     1      45.878   5.416  12.335  0.00  0.00    +0.000 A 
ATOM      5  C   UNL     1      45.417   4.117  12.567  0.00  0.00    +0.000 A 
ATOM      6  C   UNL     1      44.987   3.313  11.505  0.00  0.00    +0.000 A 
ENDROOT
BRANCH   1   8
ATOM      7  N   UNL     1      44.239   3.552   7.920  0.00  0.00    +0.000 N 
ATOM      8  C   UNL     1      44.573   2.935   9.092  0.00  0.00    +0.000 C 
ATOM      9  O   UNL     1      44.549   1.707   9.195  0.00  0.00    +0.000 OA
ATOM     10  H   UNL     1      44.061   2.953   7.129  0.00  0.00    +0.000 HD
ATOM     11  H   UNL     1      44.509   4.511   7.733  0.00  0.00    +0.000 HD
ENDBRANCH   1   8
BRANCH   4  12
ATOM     12  N   UNL     1      46.165   6.344  13.347  0.00  0.00    +0.000 N 
ATOM     13  H   UNL     1      45.317   6.766  13.729  0.00  0.00    +0.000 HD
BRANCH  12  14
ATOM     14  C   UNL     1      47.296   7.296  13.334  0.00  0.00    +0.000 C 
ATOM     15  C   UNL     1      48.714   6.906  12.986  0.00  0.00    +0.000 C 
ATOM     16  C   UNL     1      48.307   6.990  14.419  0.00  0.00    +0.000 C 
BRANCH  14  17
ATOM     17  C   UNL     1      46.805   8.715  13.027  0.00  0.00    +0.000 A 
ATOM     18  C   UNL     1      47.689   9.640  12.462  0.00  0.00    +0.000 A 
ATOM     19  C   UNL     1      47.192  10.662  11.659  0.00  0.00    +0.000 A 
ATOM     20  C   UNL     1      45.821  10.786  11.495  0.00  0.00    +0.000 A 
ATOM     21  C   UNL     1      45.001   9.929  12.206  0.00  0.00    +0.000 A 
ATOM     22  N   UNL     1      45.456   8.911  12.967  0.00  0.00    +0.000 NA
ENDBRANCH  14  17
ENDBRANCH  12  14
ENDBRANCH   4  12
TORSDOF 4
ENDMDL
MODEL 6
REMARK VINA RESULT:    -5.515      3.822      5.787
REMARK INTER + INTRA:          -7.483
REMARK INTER:                  -6.864
REMARK INTRA:                  -0.620
REMARK UNBOUND:                -0.679
REMARK  Name = 
REMARK  4 active torsions:
REMARK  status: ('A' for Active; 'I' for Inactive)
REMARK    1  A    between atoms: C_2  and  C_4
REMARK    2  A    between atoms: C_7  and  N_8
REMARK    3  A    between atoms: N_8  and  C_9
REMARK    4  A    between atoms: C_9  and  C_10
REMARK                            x       y       z     vdW  Elec       q    Type
REMARK                         _______ _______ _______ _____ _____    ______ ____
ROOT
ATOM      1  C   UNL     1      44.413   5.314  12.006  0.00  0.00    +0.000 A 
ATOM      2  C   UNL     1      45.064   4.850  13.151  0.00  0.00    +0.000 A 
ATOM      3  C   UNL     1      46.380   5.234  13.401  0.00  0.00    +0.000 A 
ATOM      4  C   UNL     1      47.073   6.072  12.517  0.00  0.00    +0.000 A 
ATOM      5  C   UNL     1      46.418   6.519  11.366  0.00  0.00    +0.000 A 
ATOM      6  C   UNL     1      45.095   6.141  11.108  0.00  0.00    +0.000 A 
ENDROOT
BRANCH   1   8
ATOM      7  N   UNL     1      42.087   5.937  11.780  0.00  0.00    +0.000 N 
ATOM      8  C   UNL     1      43.016   4.939  11.719  0.00  0.00    +0.000 C 
ATOM      9  O   UNL     1      42.702   3.795  11.387  0.00  0.00    +0.000 OA
ATOM     10  H   UNL     1      41.159   5.712  11.456  0.00  0.00    +0.000 HD
ATOM     11  H   UNL     1      42.360   6.914  11.780  0.00  0.00    +0.000 HD
ENDBRANCH   1   8
BRANCH   4  12
ATOM     12  N   UNL     1      48.440   6.259  12.770  0.00  0.00    +0.000 N 
ATOM     13  H   UNL     1      48.827   5.510  13.346  0.00  0.00    +0.000 HD
BRANCH  12  14
ATOM     14  C   UNL     1      49.085   7.559  13.052  0.00  0.00    +0.000 C 
ATOM     15  C   UNL     1      48.928   8.778  12.174  0.00  0.00    +0.000 C 
ATOM     16  C   UNL     1      50.131   7.910  12.015  0.00  0.00    +0.000 C 
BRANCH  14  17
ATOM     17  C   UNL     1      49.310   7.735  14.558  0.00  0.00    +0.000 A 
ATOM     18  C   UNL     1      48.829   8.885  15.194  0.00  0.00    +0.000 A 
ATOM     19  C   UNL     1      48.485   8.830  16.541  0.00  0.00    +0.000 A 
ATOM     20  C   UNL     1      48.695   7.654  17.244  0.00  0.00    +0.000 A 
ATOM     21  C   UNL     1      49.316   6.607  16.589  0.00  0.00    +0.000 A 
ATOM     22  N   UNL     1      49.632   6.622  15.276  0.00  0.00    +0.000 NA
ENDBRANCH  14  17
ENDBRANCH  12  14
ENDBRANCH   4  12
TORSDOF 4
ENDMDL
MODEL 7
REMARK VINA RESULT:    -5.323      3.167      5.231
REMARK INTER + INTRA:          -7.247
REMARK INTER:                  -6.618
REMARK INTRA:                  -0.629
REMARK UNBOUND:                -0.679
REMARK  Name = 
REMARK  4 active torsions:
REMARK  status: ('A' for Active; 'I' for Inactive)
REMARK    1  A    between atoms: C_2  and  C_4
REMARK    2  A    between atoms: C_7  and  N_8
REMARK    3  A    between atoms: N_8  and  C_9
REMARK    4  A    between atoms: C_9  and  C_10
REMARK                            x       y       z     vdW  Elec       q    Type
REMARK                         _______ _______ _______ _____ _____    ______ ____
ROOT
ATOM      1  C   UNL     1      44.854   4.278  11.594  0.00  0.00    +0.000 A 
ATOM      2  C   UNL     1      44.970   5.540  11.009  0.00  0.00    +0.000 A 
ATOM      3  C   UNL     1      45.651   6.553  11.682  0.00  0.00    +0.000 A 
ATOM      4  C   UNL     1      46.215   6.334  12.946  0.00  0.00    +0.000 A 
ATOM      5  C   UNL     1      46.079   5.072  13.530  0.00  0.00    +0.000 A 
ATOM      6  C   UNL     1      45.400   4.047  12.860  0.00  0.00    +0.000 A 
ENDROOT
BRANCH   1   8
ATOM      7  N   UNL     1      43.414   2.335  11.681  0.00  0.00    +0.000 N 
ATOM      8  C   UNL     1      44.154   3.179  10.903  0.00  0.00    +0.000 C 
ATOM      9  O   UNL     1      44.185   3.053   9.677  0.00  0.00    +0.000 OA
ATOM     10  H   UNL     1      42.833   1.669  11.198  0.00  0.00    +0.000 HD
ATOM     11  H   UNL     1      43.159   2.581  12.631  0.00  0.00    +0.000 HD
ENDBRANCH   1   8
BRANCH   4  12
ATOM     12  N   UNL     1      46.725   7.460  13.610  0.00  0.00    +0.000 N 
ATOM     13  H   UNL     1      46.217   8.311  13.364  0.00  0.00    +0.000 HD
BRANCH  12  14
ATOM     14  C   UNL     1      48.158   7.727  13.856  0.00  0.00    +0.000 C 
ATOM     15  C   UNL     1      48.978   6.996  14.893  0.00  0.00    +0.000 C 
ATOM     16  C   UNL     1      48.395   8.329  15.225  0.00  0.00    +0.000 C 
BRANCH  14  17
ATOM     17  C   UNL     1      48.837   8.250  12.586  0.00  0.00    +0.000 A 
ATOM     18  C   UNL     1      48.379   9.437  12.002  0.00  0.00    +0.000 A 
ATOM     19  C   UNL     1      49.261  10.226  11.270  0.00  0.00    +0.000 A 
ATOM     20  C   UNL     1      50.560   9.783  11.074  0.00  0.00    +0.000 A 
ATOM     21  C   UNL     1      50.898   8.530  11.550  0.00  0.00    +0.000 A 
ATOM     22  N   UNL     1      50.073   7.756  12.288  0.00  0.00    +0.000 NA
ENDBRANCH  14  17
ENDBRANCH  12  14
ENDBRANCH   4  12
TORSDOF 4
ENDMDL
