MODEL 1
REMARK VINA RESULT:    -7.704      0.000      0.000
REMARK INTER + INTRA:         -12.682
REMARK INTER:                 -11.307
REMARK INTRA:                  -1.376
REMARK UNBOUND:                -1.376
REMARK  Name = 
REMARK  9 active torsions:
REMARK  status: ('A' for Active; 'I' for Inactive)
REMARK    1  A    between atoms: C_1  and  O_2
REMARK    2  A    between atoms: O_2  and  C_3
REMARK    3  A    between atoms: C_10  and  C_11
REMARK    4  A    between atoms: N_13  and  C_14
REMARK    5  A    between atoms: C_14  and  C_15
REMARK    6  A    between atoms: C_18  and  C_19
REMARK    7  A    between atoms: C_19  and  O_20
REMARK    8  A    between atoms: O_20  and  C_21
REMARK    9  A    between atoms: C_21  and  C_22
REMARK                            x       y       z     vdW  Elec       q    Type
REMARK                         _______ _______ _______ _____ _____    ______ ____
ROOT
ATOM      1  C   UNL     1      46.777   7.897  13.198  0.00  0.00    +0.000 C 
ENDROOT
BRANCH   1   2
ATOM      2  C   UNL     1      45.989   6.839  12.466  0.00  0.00    +0.000 A 
ATOM      3  C   UNL     1      46.300   6.494  11.144  0.00  0.00    +0.000 A 
ATOM      4  C   UNL     1      45.560   5.514  10.469  0.00  0.00    +0.000 A 
ATOM      5  C   UNL     1      44.485   4.869  11.097  0.00  0.00    +0.000 A 
ATOM      6  C   UNL     1      44.160   5.233  12.408  0.00  0.00    +0.000 A 
ATOM      7  C   UNL     1      44.900   6.211  13.084  0.00  0.00    +0.000 A 
BRANCH   5   8
ATOM      8  C   UNL     1      43.687   3.814  10.370  0.00  0.00    +0.000 C 
BRANCH   8   9
ATOM      9  O   UNL     1      44.282   3.574   9.098  0.00  0.00    +0.000 OA
BRANCH   9  10
ATOM     10  C   UNL     1      44.949   2.307   9.048  0.00  0.00    +0.000 C 
BRANCH  10  11
ATOM     11  C   UNL     1      46.005   2.297   7.972  0.00  0.00    +0.000 A 
ATOM     12  C   UNL     1      46.793   1.171   7.753  0.00  0.00    +0.000 A 
ATOM     13  N   UNL     1      47.736   1.102   6.780  0.00  0.00    +0.000 NA
ATOM     14  C   UNL     1      47.863   2.213   6.024  0.00  0.00    +0.000 A 
ATOM     15  C   UNL     1      47.076   3.335   6.219  0.00  0.00    +0.000 A 
ATOM     16  N   UNL     1      46.130   3.402   7.186  0.00  0.00    +0.000 NA
ENDBRANCH  10  11
ENDBRANCH   9  10
ENDBRANCH   8   9
ENDBRANCH   5   8
ENDBRANCH   1   2
BRANCH   1  19
ATOM     17  C   UNL     1      48.666   6.875  14.407  0.00  0.00    +0.000 C 
ATOM     18  O   UNL     1      49.363   6.872  13.394  0.00  0.00    +0.000 OA
ATOM     19  N   UNL     1      47.387   7.355  14.386  0.00  0.00    +0.000 N 
ATOM     20  H   UNL     1      46.813   7.305  15.214  0.00  0.00    +0.000 HD
BRANCH  17  28
ATOM     21  C   UNL     1      47.627   4.372  16.530  0.00  0.00    +0.000 A 
ATOM     22  N   UNL     1      47.445   3.475  17.520  0.00  0.00    +0.000 NA
ATOM     23  C   UNL     1      48.304   3.486  18.542  0.00  0.00    +0.000 A 
ATOM     24  N   UNL     1      49.345   4.298  18.705  0.00  0.00    +0.000 NA
ATOM     25  C   UNL     1      49.495   5.171  17.693  0.00  0.00    +0.000 A 
ATOM     26  S   UNL     1      50.775   6.284  17.733  0.00  0.00    +0.000 S 
ATOM     27  C   UNL     1      50.301   6.957  16.247  0.00  0.00    +0.000 A 
ATOM     28  C   UNL     1      49.174   6.359  15.690  0.00  0.00    +0.000 A 
ATOM     29  C   UNL     1      48.695   5.286  16.560  0.00  0.00    +0.000 A 
BRANCH  21  31
ATOM     30  C   UNL     1      47.227   3.511  14.393  0.00  0.00    +0.000 C 
ATOM     31  O   UNL     1      46.760   4.335  15.459  0.00  0.00    +0.000 OA
ENDBRANCH  21  31
ENDBRANCH  17  28
ENDBRANCH   1  19
TORSDOF 8
ENDMDL
MODEL 2
REMARK VINA RESULT:    -7.542      1.559      1.981
REMARK INTER + INTRA:         -12.445
REMARK INTER:                 -11.280
REMARK INTRA:                  -1.165
REMARK UNBOUND:                -1.376
REMARK  Name = 
REMARK  9 active torsions:
REMARK  status: ('A' for Active; 'I' for Inactive)
REMARK    1  A    between atoms: C_1  and  O_2
REMARK    2  A    between atoms: O_2  and  C_3
REMARK    3  A    between atoms: C_10  and  C_11
REMARK    4  A    between atoms: N_13  and  C_14
REMARK    5  A    between atoms: C_14  and  C_15
REMARK    6  A    between atoms: C_18  and  C_19
REMARK    7  A    between atoms: C_19  and  O_20
REMARK    8  A    between atoms: O_20  and  C_21
REMARK    9  A    between atoms: C_21  and  C_22
REMARK                            x       y       z     vdW  Elec       q    Type
REMARK                         _______ _______ _______ _____ _____    ______ ____
ROOT
ATOM      1  C   UNL     1      47.804   7.103  13.138  0.00  0.00    +0.000 C 
ENDROOT
BRANCH   1   2
ATOM      2  C   UNL     1      46.705   6.190  12.653  0.00  0.00    +0.000 A 
ATOM      3  C   UNL     1      46.375   5.023  13.354  0.00  0.00    +0.000 A 
ATOM      4  C   UNL     1      45.357   4.177  12.894  0.00  0.00    +0.000 A 
ATOM      5  C   UNL     1      44.657   4.474  11.716  0.00  0.00    +0.000 A 
ATOM      6  C   UNL     1      45.004   5.627  11.004  0.00  0.00    +0.000 A 
ATOM      7  C   UNL     1      46.021   6.473  11.463  0.00  0.00    +0.000 A 
BRANCH   5   8
ATOM      8  C   UNL     1      43.561   3.563  11.219  0.00  0.00    +0.000 C 
BRANCH   8   9
ATOM      9  O   UNL     1      43.764   3.302   9.834  0.00  0.00    +0.000 OA
BRANCH   9  10
ATOM     10  C   UNL     1      44.529   2.111   9.618  0.00  0.00    +0.000 C 
BRANCH  10  11
ATOM     11  C   UNL     1      45.541   2.315   8.519  0.00  0.00    +0.000 A 
ATOM     12  C   UNL     1      45.679   3.550   7.892  0.00  0.00    +0.000 A 
ATOM     13  N   UNL     1      46.593   3.792   6.920  0.00  0.00    +0.000 NA
ATOM     14  C   UNL     1      47.375   2.742   6.594  0.00  0.00    +0.000 A 
ATOM     15  C   UNL     1      47.261   1.512   7.218  0.00  0.00    +0.000 A 
ATOM     16  N   UNL     1      46.354   1.271   8.194  0.00  0.00    +0.000 NA
ENDBRANCH  10  11
ENDBRANCH   9  10
ENDBRANCH   8   9
ENDBRANCH   5   8
ENDBRANCH   1   2
BRANCH   1  19
ATOM     17  C   UNL     1      48.887   6.983  15.348  0.00  0.00    +0.000 C 
ATOM     18  O   UNL     1      49.960   6.654  14.848  0.00  0.00    +0.000 OA
ATOM     19  N   UNL     1      47.784   7.214  14.574  0.00  0.00    +0.000 N 
ATOM     20  H   UNL     1      46.899   7.435  15.006  0.00  0.00    +0.000 HD
BRANCH  17  28
ATOM     21  C   UNL     1      48.811   4.762  17.977  0.00  0.00    +0.000 A 
ATOM     22  N   UNL     1      48.746   4.128  19.165  0.00  0.00    +0.000 NA
ATOM     23  C   UNL     1      48.568   4.869  20.262  0.00  0.00    +0.000 A 
ATOM     24  N   UNL     1      48.445   6.192  20.324  0.00  0.00    +0.000 NA
ATOM     25  C   UNL     1      48.524   6.785  19.120  0.00  0.00    +0.000 A 
ATOM     26  S   UNL     1      48.389   8.473  19.009  0.00  0.00    +0.000 S 
ATOM     27  C   UNL     1      48.570   8.425  17.320  0.00  0.00    +0.000 A 
ATOM     28  C   UNL     1      48.736   7.143  16.806  0.00  0.00    +0.000 A 
ATOM     29  C   UNL     1      48.710   6.161  17.889  0.00  0.00    +0.000 A 
BRANCH  21  31
ATOM     30  C   UNL     1      47.835   3.434  16.318  0.00  0.00    +0.000 C 
ATOM     31  O   UNL     1      49.031   3.998  16.850  0.00  0.00    +0.000 OA
ENDBRANCH  21  31
ENDBRANCH  17  28
ENDBRANCH   1  19
TORSDOF 8
ENDMDL
MODEL 3
REMARK VINA RESULT:    -7.207      2.141      2.685
REMARK INTER + INTRA:         -11.953
REMARK INTER:                 -10.917
REMARK INTRA:                  -1.036
REMARK UNBOUND:                -1.376
REMARK  Name = 
REMARK  9 active torsions:
REMARK  status: ('A' for Active; 'I' for Inactive)
REMARK    1  A    between atoms: C_1  and  O_2
REMARK    2  A    between atoms: O_2  and  C_3
REMARK    3  A    between atoms: C_10  and  C_11
REMARK    4  A    between atoms: N_13  and  C_14
REMARK    5  A    between atoms: C_14  and  C_15
REMARK    6  A    between atoms: C_18  and  C_19
REMARK    7  A    between atoms: C_19  and  O_20
REMARK    8  A    between atoms: O_20  and  C_21
REMARK    9  A    between atoms: C_21  and  C_22
REMARK                            x       y       z     vdW  Elec       q    Type
REMARK                         _______ _______ _______ _____ _____    ______ ____
ROOT
ATOM      1  C   UNL     1      48.044   6.627  13.579  0.00  0.00    +0.000 C 
ENDROOT
BRANCH   1   2
ATOM      2  C   UNL     1      46.906   6.028  12.790  0.00  0.00    +0.000 A 
ATOM      3  C   UNL     1      46.608   6.480  11.498  0.00  0.00    +0.000 A 
ATOM      4  C   UNL     1      45.546   5.922  10.774  0.00  0.00    +0.000 A 
ATOM      5  C   UNL     1      44.751   4.911  11.332  0.00  0.00    +0.000 A 
ATOM      6  C   UNL     1      45.035   4.478  12.632  0.00  0.00    +0.000 A 
ATOM      7  C   UNL     1      46.096   5.034  13.356  0.00  0.00    +0.000 A 
BRANCH   5   8
ATOM      8  C   UNL     1      43.607   4.311  10.553  0.00  0.00    +0.000 C 
BRANCH   8   9
ATOM      9  O   UNL     1      44.089   3.857   9.291  0.00  0.00    +0.000 OA
BRANCH   9  10
ATOM     10  C   UNL     1      44.638   2.536   9.370  0.00  0.00    +0.000 C 
BRANCH  10  11
ATOM     11  C   UNL     1      45.769   2.364   8.388  0.00  0.00    +0.000 A 
ATOM     12  C   UNL     1      46.270   1.101   8.088  0.00  0.00    +0.000 A 
ATOM     13  N   UNL     1      47.266   0.890   7.191  0.00  0.00    +0.000 NA
ATOM     14  C   UNL     1      47.747   2.002   6.597  0.00  0.00    +0.000 A 
ATOM     15  C   UNL     1      47.249   3.264   6.873  0.00  0.00    +0.000 A 
ATOM     16  N   UNL     1      46.250   3.474   7.763  0.00  0.00    +0.000 NA
ENDBRANCH  10  11
ENDBRANCH   9  10
ENDBRANCH   8   9
ENDBRANCH   5   8
ENDBRANCH   1   2
BRANCH   1  19
ATOM     17  C   UNL     1      49.008   6.341  15.829  0.00  0.00    +0.000 C 
ATOM     18  O   UNL     1      50.119   6.695  15.441  0.00  0.00    +0.000 OA
ATOM     19  N   UNL     1      47.944   6.277  14.973  0.00  0.00    +0.000 N 
ATOM     20  H   UNL     1      47.052   5.937  15.299  0.00  0.00    +0.000 HD
BRANCH  17  28
ATOM     21  C   UNL     1      47.942   8.090  18.596  0.00  0.00    +0.000 A 
ATOM     22  N   UNL     1      47.557   8.523  19.813  0.00  0.00    +0.000 NA
ATOM     23  C   UNL     1      47.550   7.644  20.819  0.00  0.00    +0.000 A 
ATOM     24  N   UNL     1      47.887   6.358  20.761  0.00  0.00    +0.000 NA
ATOM     25  C   UNL     1      48.257   5.966  19.529  0.00  0.00    +0.000 A 
ATOM     26  S   UNL     1      48.719   4.354  19.269  0.00  0.00    +0.000 S 
ATOM     27  C   UNL     1      49.014   4.653  17.622  0.00  0.00    +0.000 A 
ATOM     28  C   UNL     1      48.770   5.967  17.235  0.00  0.00    +0.000 A 
ATOM     29  C   UNL     1      48.314   6.751  18.381  0.00  0.00    +0.000 A 
BRANCH  21  31
ATOM     30  C   UNL     1      49.123   9.733  17.424  0.00  0.00    +0.000 C 
ATOM     31  O   UNL     1      47.914   8.991  17.553  0.00  0.00    +0.000 OA
ENDBRANCH  21  31
ENDBRANCH  17  28
ENDBRANCH   1  19
TORSDOF 8
ENDMDL
MODEL 4
REMARK VINA RESULT:    -6.944      2.008      3.474
REMARK INTER + INTRA:         -11.568
REMARK INTER:                 -10.294
REMARK INTRA:                  -1.274
REMARK UNBOUND:                -1.376
REMARK  Name = 
REMARK  9 active torsions:
REMARK  status: ('A' for Active; 'I' for Inactive)
REMARK    1  A    between atoms: C_1  and  O_2
REMARK    2  A    between atoms: O_2  and  C_3
REMARK    3  A    between atoms: C_10  and  C_11
REMARK    4  A    between atoms: N_13  and  C_14
REMARK    5  A    between atoms: C_14  and  C_15
REMARK    6  A    between atoms: C_18  and  C_19
REMARK    7  A    between atoms: C_19  and  O_20
REMARK    8  A    between atoms: O_20  and  C_21
REMARK    9  A    between atoms: C_21  and  C_22
REMARK                            x       y       z     vdW  Elec       q    Type
REMARK                         _______ _______ _______ _____ _____    ______ ____
ROOT
ATOM      1  C   UNL     1      47.217   4.179  14.895  0.00  0.00    +0.000 C 
ENDROOT
BRANCH   1   2
ATOM      2  C   UNL     1      46.300   4.356  13.710  0.00  0.00    +0.000 A 
ATOM      3  C   UNL     1      45.855   5.628  13.327  0.00  0.00    +0.000 A 
ATOM      4  C   UNL     1      44.999   5.784  12.228  0.00  0.00    +0.000 A 
ATOM      5  C   UNL     1      44.560   4.671  11.498  0.00  0.00    +0.000 A 
ATOM      6  C   UNL     1      44.985   3.399  11.897  0.00  0.00    +0.000 A 
ATOM      7  C   UNL     1      45.841   3.242  12.994  0.00  0.00    +0.000 A 
BRANCH   5   8
ATOM      8  C   UNL     1      43.637   4.838  10.316  0.00  0.00    +0.000 C 
BRANCH   8   9
ATOM      9  O   UNL     1      43.994   3.895   9.309  0.00  0.00    +0.000 OA
BRANCH   9  10
ATOM     10  C   UNL     1      45.094   4.351   8.512  0.00  0.00    +0.000 C 
BRANCH  10  11
ATOM     11  C   UNL     1      45.939   3.192   8.050  0.00  0.00    +0.000 A 
ATOM     12  C   UNL     1      45.694   1.900   8.506  0.00  0.00    +0.000 A 
ATOM     13  N   UNL     1      46.406   0.820   8.098  0.00  0.00    +0.000 NA
ATOM     14  C   UNL     1      47.385   1.082   7.207  0.00  0.00    +0.000 A 
ATOM     15  C   UNL     1      47.632   2.359   6.732  0.00  0.00    +0.000 A 
ATOM     16  N   UNL     1      46.917   3.436   7.133  0.00  0.00    +0.000 NA
ENDBRANCH  10  11
ENDBRANCH   9  10
ENDBRANCH   8   9
ENDBRANCH   5   8
ENDBRANCH   1   2
BRANCH   1  19
ATOM     17  C   UNL     1      48.583   5.616  16.358  0.00  0.00    +0.000 C 
ATOM     18  O   UNL     1      49.298   4.671  16.684  0.00  0.00    +0.000 OA
ATOM     19  N   UNL     1      47.540   5.450  15.490  0.00  0.00    +0.000 N 
ATOM     20  H   UNL     1      46.934   6.227  15.272  0.00  0.00    +0.000 HD
BRANCH  17  28
ATOM     21  C   UNL     1      48.801   8.724  14.894  0.00  0.00    +0.000 A 
ATOM     22  N   UNL     1      48.931  10.031  14.590  0.00  0.00    +0.000 NA
ATOM     23  C   UNL     1      49.170  10.887  15.588  0.00  0.00    +0.000 A 
ATOM     24  N   UNL     1      49.298  10.595  16.879  0.00  0.00    +0.000 NA
ATOM     25  C   UNL     1      49.153   9.284  17.140  0.00  0.00    +0.000 A 
ATOM     26  S   UNL     1      49.284   8.731  18.739  0.00  0.00    +0.000 S 
ATOM     27  C   UNL     1      49.010   7.125  18.257  0.00  0.00    +0.000 A 
ATOM     28  C   UNL     1      48.814   6.972  16.888  0.00  0.00    +0.000 A 
ATOM     29  C   UNL     1      48.899   8.270  16.221  0.00  0.00    +0.000 A 
BRANCH  21  31
ATOM     30  C   UNL     1      49.599   7.698  12.950  0.00  0.00    +0.000 C 
ATOM     31  O   UNL     1      48.519   7.848  13.868  0.00  0.00    +0.000 OA
ENDBRANCH  21  31
ENDBRANCH  17  28
ENDBRANCH   1  19
TORSDOF 8
ENDMDL
MODEL 5
REMARK VINA RESULT:    -6.714      4.729      9.309
REMARK INTER + INTRA:         -11.230
REMARK INTER:                 -10.365
REMARK INTRA:                  -0.865
REMARK UNBOUND:                -1.376
REMARK  Name = 
REMARK  9 active torsions:
REMARK  status: ('A' for Active; 'I' for Inactive)
REMARK    1  A    between atoms: C_1  and  O_2
REMARK    2  A    between atoms: O_2  and  C_3
REMARK    3  A    between atoms: C_10  and  C_11
REMARK    4  A    between atoms: N_13  and  C_14
REMARK    5  A    between atoms: C_14  and  C_15
REMARK    6  A    between atoms: C_18  and  C_19
REMARK    7  A    between atoms: C_19  and  O_20
REMARK    8  A    between atoms: O_20  and  C_21
REMARK    9  A    between atoms: C_21  and  C_22
REMARK                            x       y       z     vdW  Elec       q    Type
REMARK                         _______ _______ _______ _____ _____    ______ ____
ROOT
ATOM      1  C   UNL     1      47.250   3.475  16.978  0.00  0.00    +0.000 C 
ENDROOT
BRANCH   1   2
ATOM      2  C   UNL     1      48.726   3.301  17.232  0.00  0.00    +0.000 A 
ATOM      3  C   UNL     1      49.372   2.095  16.930  0.00  0.00    +0.000 A 
ATOM      4  C   UNL     1      50.743   1.938  17.174  0.00  0.00    +0.000 A 
ATOM      5  C   UNL     1      51.494   2.980  17.737  0.00  0.00    +0.000 A 
ATOM      6  C   UNL     1      50.842   4.175  18.061  0.00  0.00    +0.000 A 
ATOM      7  C   UNL     1      49.472   4.333  17.817  0.00  0.00    +0.000 A 
BRANCH   5   8
ATOM      8  C   UNL     1      52.970   2.812  18.001  0.00  0.00    +0.000 C 
BRANCH   8   9
ATOM      9  O   UNL     1      53.207   1.499  18.502  0.00  0.00    +0.000 OA
BRANCH   9  10
ATOM     10  C   UNL     1      54.367   0.901  17.912  0.00  0.00    +0.000 C 
BRANCH  10  11
ATOM     11  C   UNL     1      54.347  -0.597  18.087  0.00  0.00    +0.000 A 
ATOM     12  C   UNL     1      54.967  -1.434  17.164  0.00  0.00    +0.000 A 
ATOM     13  N   UNL     1      55.002  -2.784  17.291  0.00  0.00    +0.000 NA
ATOM     14  C   UNL     1      54.388  -3.273  18.389  0.00  0.00    +0.000 A 
ATOM     15  C   UNL     1      53.781  -2.453  19.324  0.00  0.00    +0.000 A 
ATOM     16  N   UNL     1      53.751  -1.105  19.202  0.00  0.00    +0.000 NA
ENDBRANCH  10  11
ENDBRANCH   9  10
ENDBRANCH   8   9
ENDBRANCH   5   8
ENDBRANCH   1   2
BRANCH   1  19
ATOM     17  C   UNL     1      47.035   4.286  14.660  0.00  0.00    +0.000 C 
ATOM     18  O   UNL     1      47.271   3.169  14.206  0.00  0.00    +0.000 OA
ATOM     19  N   UNL     1      47.013   4.515  16.008  0.00  0.00    +0.000 N 
ATOM     20  H   UNL     1      46.866   5.448  16.361  0.00  0.00    +0.000 HD
BRANCH  17  28
ATOM     21  C   UNL     1      44.355   5.178  12.691  0.00  0.00    +0.000 A 
ATOM     22  N   UNL     1      43.469   5.754  11.854  0.00  0.00    +0.000 NA
ATOM     23  C   UNL     1      43.816   6.902  11.267  0.00  0.00    +0.000 A 
ATOM     24  N   UNL     1      44.961   7.563  11.413  0.00  0.00    +0.000 NA
ATOM     25  C   UNL     1      45.812   6.959  12.261  0.00  0.00    +0.000 A 
ATOM     26  S   UNL     1      47.325   7.664  12.569  0.00  0.00    +0.000 S 
ATOM     27  C   UNL     1      47.749   6.406  13.630  0.00  0.00    +0.000 A 
ATOM     28  C   UNL     1      46.765   5.433  13.775  0.00  0.00    +0.000 A 
ATOM     29  C   UNL     1      45.603   5.770  12.953  0.00  0.00    +0.000 A 
BRANCH  21  31
ATOM     30  C   UNL     1      43.728   2.942  12.417  0.00  0.00    +0.000 C 
ATOM     31  O   UNL     1      43.981   4.011  13.324  0.00  0.00    +0.000 OA
ENDBRANCH  21  31
ENDBRANCH  17  28
ENDBRANCH   1  19
TORSDOF 8
ENDMDL
MODEL 6
REMARK VINA RESULT:    -6.643      2.445      3.659
REMARK INTER + INTRA:         -11.126
REMARK INTER:                  -9.992
REMARK INTRA:                  -1.134
REMARK UNBOUND:                -1.376
REMARK  Name = 
REMARK  9 active torsions:
REMARK  status: ('A' for Active; 'I' for Inactive)
REMARK    1  A    between atoms: C_1  and  O_2
REMARK    2  A    between atoms: O_2  and  C_3
REMARK    3  A    between atoms: C_10  and  C_11
REMARK    4  A    between atoms: N_13  and  C_14
REMARK    5  A    between atoms: C_14  and  C_15
REMARK    6  A    between atoms: C_18  and  C_19
REMARK    7  A    between atoms: C_19  and  O_20
REMARK    8  A    between atoms: O_20  and  C_21
REMARK    9  A    between atoms: C_21  and  C_22
REMARK                            x       y       z     vdW  Elec       q    Type
REMARK                         _______ _______ _______ _____ _____    ______ ____
ROOT
ATOM      1  C   UNL     1      47.478   4.038  15.538  0.00  0.00    +0.000 C 
ENDROOT
BRANCH   1   2
ATOM      2  C   UNL     1      46.873   4.522  14.244  0.00  0.00    +0.000 A 
ATOM      3  C   UNL     1      45.984   3.717  13.518  0.00  0.00    +0.000 A 
ATOM      4  C   UNL     1      45.430   4.172  12.314  0.00  0.00    +0.000 A 
ATOM      5  C   UNL     1      45.763   5.435  11.804  0.00  0.00    +0.000 A 
ATOM      6  C   UNL     1      46.670   6.227  12.517  0.00  0.00    +0.000 A 
ATOM      7  C   UNL     1      47.224   5.774  13.721  0.00  0.00    +0.000 A 
BRANCH   5   8
ATOM      8  C   UNL     1      45.167   5.924  10.506  0.00  0.00    +0.000 C 
BRANCH   8   9
ATOM      9  O   UNL     1      45.841   5.298   9.419  0.00  0.00    +0.000 OA
BRANCH   9  10
ATOM     10  C   UNL     1      45.006   4.349   8.745  0.00  0.00    +0.000 C 
BRANCH  10  11
ATOM     11  C   UNL     1      45.822   3.198   8.214  0.00  0.00    +0.000 A 
ATOM     12  C   UNL     1      45.588   1.895   8.646  0.00  0.00    +0.000 A 
ATOM     13  N   UNL     1      46.274   0.823   8.178  0.00  0.00    +0.000 NA
ATOM     14  C   UNL     1      47.212   1.102   7.250  0.00  0.00    +0.000 A 
ATOM     15  C   UNL     1      47.447   2.390   6.798  0.00  0.00    +0.000 A 
ATOM     16  N   UNL     1      46.758   3.460   7.260  0.00  0.00    +0.000 NA
ENDBRANCH  10  11
ENDBRANCH   9  10
ENDBRANCH   8   9
ENDBRANCH   5   8
ENDBRANCH   1   2
BRANCH   1  19
ATOM     17  C   UNL     1      47.957   4.905  17.794  0.00  0.00    +0.000 C 
ATOM     18  O   UNL     1      48.302   3.794  18.191  0.00  0.00    +0.000 OA
ATOM     19  N   UNL     1      47.535   5.101  16.509  0.00  0.00    +0.000 N 
ATOM     20  H   UNL     1      47.209   6.010  16.215  0.00  0.00    +0.000 HD
BRANCH  17  28
ATOM     21  C   UNL     1      48.934   8.180  17.372  0.00  0.00    +0.000 A 
ATOM     22  N   UNL     1      49.239   9.488  17.483  0.00  0.00    +0.000 NA
ATOM     23  C   UNL     1      49.038  10.082  18.662  0.00  0.00    +0.000 A 
ATOM     24  N   UNL     1      48.561   9.522  19.770  0.00  0.00    +0.000 NA
ATOM     25  C   UNL     1      48.262   8.220  19.615  0.00  0.00    +0.000 A 
ATOM     26  S   UNL     1      47.638   7.344  20.927  0.00  0.00    +0.000 S 
ATOM     27  C   UNL     1      47.546   5.924  19.998  0.00  0.00    +0.000 A 
ATOM     28  C   UNL     1      47.980   6.079  18.685  0.00  0.00    +0.000 A 
ATOM     29  C   UNL     1      48.407   7.459  18.459  0.00  0.00    +0.000 A 
BRANCH  21  31
ATOM     30  C   UNL     1      50.437   7.105  15.939  0.00  0.00    +0.000 C 
ATOM     31  O   UNL     1      49.108   7.578  16.144  0.00  0.00    +0.000 OA
ENDBRANCH  21  31
ENDBRANCH  17  28
ENDBRANCH   1  19
TORSDOF 8
ENDMDL
MODEL 7
REMARK VINA RESULT:    -6.572      2.639      3.369
REMARK INTER + INTRA:         -11.022
REMARK INTER:                 -10.120
REMARK INTRA:                  -0.902
REMARK UNBOUND:                -1.376
REMARK  Name = 
REMARK  9 active torsions:
REMARK  status: ('A' for Active; 'I' for Inactive)
REMARK    1  A    between atoms: C_1  and  O_2
REMARK    2  A    between atoms: O_2  and  C_3
REMARK    3  A    between atoms: C_10  and  C_11
REMARK    4  A    between atoms: N_13  and  C_14
REMARK    5  A    between atoms: C_14  and  C_15
REMARK    6  A    between atoms: C_18  and  C_19
REMARK    7  A    between atoms: C_19  and  O_20
REMARK    8  A    between atoms: O_20  and  C_21
REMARK    9  A    between atoms: C_21  and  C_22
REMARK                            x       y       z     vdW  Elec       q    Type
REMARK                         _______ _______ _______ _____ _____    ______ ____
ROOT
ATOM      1  C   UNL     1      47.467   4.590  14.963  0.00  0.00    +0.000 C 
ENDROOT
BRANCH   1   2
ATOM      2  C   UNL     1      46.492   4.606  13.812  0.00  0.00    +0.000 A 
ATOM      3  C   UNL     1      45.932   5.808  13.360  0.00  0.00    +0.000 A 
ATOM      4  C   UNL     1      45.022   5.815  12.294  0.00  0.00    +0.000 A 
ATOM      5  C   UNL     1      44.643   4.619  11.668  0.00  0.00    +0.000 A 
ATOM      6  C   UNL     1      45.184   3.417  12.138  0.00  0.00    +0.000 A 
ATOM      7  C   UNL     1      46.094   3.409  13.202  0.00  0.00    +0.000 A 
BRANCH   5   8
ATOM      8  C   UNL     1      43.662   4.626  10.520  0.00  0.00    +0.000 C 
BRANCH   8   9
ATOM      9  O   UNL     1      43.998   3.579   9.615  0.00  0.00    +0.000 OA
BRANCH   9  10
ATOM     10  C   UNL     1      44.707   4.068   8.470  0.00  0.00    +0.000 C 
BRANCH  10  11
ATOM     11  C   UNL     1      45.742   3.070   8.013  0.00  0.00    +0.000 A 
ATOM     12  C   UNL     1      45.676   1.738   8.410  0.00  0.00    +0.000 A 
ATOM     13  N   UNL     1      46.564   0.796   8.004  0.00  0.00    +0.000 NA
ATOM     14  C   UNL     1      47.532   1.241   7.175  0.00  0.00    +0.000 A 
ATOM     15  C   UNL     1      47.602   2.559   6.758  0.00  0.00    +0.000 A 
ATOM     16  N   UNL     1      46.712   3.498   7.158  0.00  0.00    +0.000 NA
ENDBRANCH  10  11
ENDBRANCH   9  10
ENDBRANCH   8   9
ENDBRANCH   5   8
ENDBRANCH   1   2
BRANCH   1  19
ATOM     17  C   UNL     1      48.807   6.268  16.172  0.00  0.00    +0.000 C 
ATOM     18  O   UNL     1      49.689   5.447  16.413  0.00  0.00    +0.000 OA
ATOM     19  N   UNL     1      47.685   5.920  15.472  0.00  0.00    +0.000 N 
ATOM     20  H   UNL     1      46.949   6.594  15.326  0.00  0.00    +0.000 HD
BRANCH  17  28
ATOM     21  C   UNL     1      48.628   7.770  19.264  0.00  0.00    +0.000 A 
ATOM     22  N   UNL     1      48.601   8.600  20.326  0.00  0.00    +0.000 NA
ATOM     23  C   UNL     1      48.758   9.908  20.105  0.00  0.00    +0.000 A 
ATOM     24  N   UNL     1      48.943  10.505  18.931  0.00  0.00    +0.000 NA
ATOM     25  C   UNL     1      48.972   9.641  17.901  0.00  0.00    +0.000 A 
ATOM     26  S   UNL     1      49.202  10.229  16.325  0.00  0.00    +0.000 S 
ATOM     27  C   UNL     1      49.115   8.661  15.676  0.00  0.00    +0.000 A 
ATOM     28  C   UNL     1      48.913   7.666  16.627  0.00  0.00    +0.000 A 
ATOM     29  C   UNL     1      48.830   8.258  17.961  0.00  0.00    +0.000 A 
BRANCH  21  31
ATOM     30  C   UNL     1      47.466   6.107  20.427  0.00  0.00    +0.000 C 
ATOM     31  O   UNL     1      48.503   6.417  19.499  0.00  0.00    +0.000 OA
ENDBRANCH  21  31
ENDBRANCH  17  28
ENDBRANCH   1  19
TORSDOF 8
ENDMDL
MODEL 8
REMARK VINA RESULT:    -6.435      2.234      2.993
REMARK INTER + INTRA:         -10.820
REMARK INTER:                  -9.787
REMARK INTRA:                  -1.033
REMARK UNBOUND:                -1.376
REMARK  Name = 
REMARK  9 active torsions:
REMARK  status: ('A' for Active; 'I' for Inactive)
REMARK    1  A    between atoms: C_1  and  O_2
REMARK    2  A    between atoms: O_2  and  C_3
REMARK    3  A    between atoms: C_10  and  C_11
REMARK    4  A    between atoms: N_13  and  C_14
REMARK    5  A    between atoms: C_14  and  C_15
REMARK    6  A    between atoms: C_18  and  C_19
REMARK    7  A    between atoms: C_19  and  O_20
REMARK    8  A    between atoms: O_20  and  C_21
REMARK    9  A    between atoms: C_21  and  C_22
REMARK                            x       y       z     vdW  Elec       q    Type
REMARK                         _______ _______ _______ _____ _____    ______ ____
ROOT
ATOM      1  C   UNL     1      46.279   8.043  13.062  0.00  0.00    +0.000 C 
ENDROOT
BRANCH   1   2
ATOM      2  C   UNL     1      45.748   6.739  12.522  0.00  0.00    +0.000 A 
ATOM      3  C   UNL     1      45.142   6.673  11.260  0.00  0.00    +0.000 A 
ATOM      4  C   UNL     1      44.646   5.458  10.768  0.00  0.00    +0.000 A 
ATOM      5  C   UNL     1      44.733   4.287  11.533  0.00  0.00    +0.000 A 
ATOM      6  C   UNL     1      45.316   4.359  12.803  0.00  0.00    +0.000 A 
ATOM      7  C   UNL     1      45.812   5.572  13.295  0.00  0.00    +0.000 A 
BRANCH   5   8
ATOM      8  C   UNL     1      44.198   2.978  11.004  0.00  0.00    +0.000 C 
BRANCH   8   9
ATOM      9  O   UNL     1      44.276   2.985   9.582  0.00  0.00    +0.000 OA
BRANCH   9  10
ATOM     10  C   UNL     1      44.793   1.752   9.067  0.00  0.00    +0.000 C 
BRANCH  10  11
ATOM     11  C   UNL     1      45.975   2.000   8.164  0.00  0.00    +0.000 A 
ATOM     12  C   UNL     1      46.747   0.943   7.689  0.00  0.00    +0.000 A 
ATOM     13  N   UNL     1      47.801   1.111   6.852  0.00  0.00    +0.000 NA
ATOM     14  C   UNL     1      48.059   2.389   6.503  0.00  0.00    +0.000 A 
ATOM     15  C   UNL     1      47.292   3.449   6.955  0.00  0.00    +0.000 A 
ATOM     16  N   UNL     1      46.235   3.282   7.785  0.00  0.00    +0.000 NA
ENDBRANCH  10  11
ENDBRANCH   9  10
ENDBRANCH   8   9
ENDBRANCH   5   8
ENDBRANCH   1   2
BRANCH   1  19
ATOM     17  C   UNL     1      48.556   8.983  13.078  0.00  0.00    +0.000 C 
ATOM     18  O   UNL     1      48.164  10.045  12.600  0.00  0.00    +0.000 OA
ATOM     19  N   UNL     1      47.692   7.954  13.326  0.00  0.00    +0.000 N 
ATOM     20  H   UNL     1      48.040   7.072  13.673  0.00  0.00    +0.000 HD
BRANCH  17  28
ATOM     21  C   UNL     1      50.177   7.159  15.507  0.00  0.00    +0.000 A 
ATOM     22  N   UNL     1      51.049   6.549  16.334  0.00  0.00    +0.000 NA
ATOM     23  C   UNL     1      52.353   6.754  16.134  0.00  0.00    +0.000 A 
ATOM     24  N   UNL     1      52.909   7.509  15.190  0.00  0.00    +0.000 NA
ATOM     25  C   UNL     1      52.006   8.093  14.383  0.00  0.00    +0.000 A 
ATOM     26  S   UNL     1      52.538   9.092  13.119  0.00  0.00    +0.000 S 
ATOM     27  C   UNL     1      50.941   9.407  12.631  0.00  0.00    +0.000 A 
ATOM     28  C   UNL     1      49.978   8.767  13.405  0.00  0.00    +0.000 A 
ATOM     29  C   UNL     1      50.621   7.978  14.454  0.00  0.00    +0.000 A 
BRANCH  21  31
ATOM     30  C   UNL     1      48.558   6.188  16.888  0.00  0.00    +0.000 C 
ATOM     31  O   UNL     1      48.833   6.917  15.694  0.00  0.00    +0.000 OA
ENDBRANCH  21  31
ENDBRANCH  17  28
ENDBRANCH   1  19
TORSDOF 8
ENDMDL
MODEL 9
REMARK VINA RESULT:    -6.270      3.333      4.749
REMARK INTER + INTRA:         -10.578
REMARK INTER:                  -9.453
REMARK INTRA:                  -1.125
REMARK UNBOUND:                -1.376
REMARK  Name = 
REMARK  9 active torsions:
REMARK  status: ('A' for Active; 'I' for Inactive)
REMARK    1  A    between atoms: C_1  and  O_2
REMARK    2  A    between atoms: O_2  and  C_3
REMARK    3  A    between atoms: C_10  and  C_11
REMARK    4  A    between atoms: N_13  and  C_14
REMARK    5  A    between atoms: C_14  and  C_15
REMARK    6  A    between atoms: C_18  and  C_19
REMARK    7  A    between atoms: C_19  and  O_20
REMARK    8  A    between atoms: O_20  and  C_21
REMARK    9  A    between atoms: C_21  and  C_22
REMARK                            x       y       z     vdW  Elec       q    Type
REMARK                         _______ _______ _______ _____ _____    ______ ____
ROOT
ATOM      1  C   UNL     1      47.206   7.329  13.362  0.00  0.00    +0.000 C 
ENDROOT
BRANCH   1   2
ATOM      2  C   UNL     1      46.373   6.247  12.721  0.00  0.00    +0.000 A 
ATOM      3  C   UNL     1      45.929   6.368  11.397  0.00  0.00    +0.000 A 
ATOM      4  C   UNL     1      45.151   5.362  10.810  0.00  0.00    +0.000 A 
ATOM      5  C   UNL     1      44.788   4.220  11.538  0.00  0.00    +0.000 A 
ATOM      6  C   UNL     1      45.210   4.112  12.868  0.00  0.00    +0.000 A 
ATOM      7  C   UNL     1      45.989   5.117  13.455  0.00  0.00    +0.000 A 
BRANCH   5   8
ATOM      8  C   UNL     1      43.949   3.136  10.906  0.00  0.00    +0.000 C 
BRANCH   8   9
ATOM      9  O   UNL     1      44.233   3.082   9.511  0.00  0.00    +0.000 OA
BRANCH   9  10
ATOM     10  C   UNL     1      44.815   1.829   9.131  0.00  0.00    +0.000 C 
BRANCH  10  11
ATOM     11  C   UNL     1      45.977   2.040   8.193  0.00  0.00    +0.000 A 
ATOM     12  C   UNL     1      46.747   0.966   7.756  0.00  0.00    +0.000 A 
ATOM     13  N   UNL     1      47.784   1.099   6.891  0.00  0.00    +0.000 NA
ATOM     14  C   UNL     1      48.024   2.359   6.473  0.00  0.00    +0.000 A 
ATOM     15  C   UNL     1      47.258   3.436   6.886  0.00  0.00    +0.000 A 
ATOM     16  N   UNL     1      46.219   3.303   7.744  0.00  0.00    +0.000 NA
ENDBRANCH  10  11
ENDBRANCH   9  10
ENDBRANCH   8   9
ENDBRANCH   5   8
ENDBRANCH   1   2
BRANCH   1  19
ATOM     17  C   UNL     1      49.120   8.295  12.149  0.00  0.00    +0.000 C 
ATOM     18  O   UNL     1      48.475   9.298  11.850  0.00  0.00    +0.000 OA
ATOM     19  N   UNL     1      48.564   7.285  12.882  0.00  0.00    +0.000 N 
ATOM     20  H   UNL     1      49.093   6.448  13.076  0.00  0.00    +0.000 HD
BRANCH  17  28
ATOM     21  C   UNL     1      52.113   9.462  13.388  0.00  0.00    +0.000 A 
ATOM     22  N   UNL     1      53.398   9.775  13.652  0.00  0.00    +0.000 NA
ATOM     23  C   UNL     1      54.340   9.303  12.831  0.00  0.00    +0.000 A 
ATOM     24  N   UNL     1      54.157   8.541  11.756  0.00  0.00    +0.000 NA
ATOM     25  C   UNL     1      52.864   8.246  11.534  0.00  0.00    +0.000 A 
ATOM     26  S   UNL     1      52.445   7.280  10.203  0.00  0.00    +0.000 S 
ATOM     27  C   UNL     1      50.793   7.375  10.592  0.00  0.00    +0.000 A 
ATOM     28  C   UNL     1      50.524   8.133  11.728  0.00  0.00    +0.000 A 
ATOM     29  C   UNL     1      51.769   8.652  12.291  0.00  0.00    +0.000 A 
BRANCH  21  31
ATOM     30  C   UNL     1      50.910   9.031  15.347  0.00  0.00    +0.000 C 
ATOM     31  O   UNL     1      51.146   9.919  14.258  0.00  0.00    +0.000 OA
ENDBRANCH  21  31
ENDBRANCH  17  28
ENDBRANCH   1  19
TORSDOF 8
ENDMDL
