MODEL 1
REMARK VINA RESULT:    -7.011      0.000      0.000
REMARK INTER + INTRA:          -9.840
REMARK INTER:                  -9.266
REMARK INTRA:                  -0.574
REMARK UNBOUND:                -0.574
REMARK  Name = 
REMARK  8 active torsions:
REMARK  status: ('A' for Active; 'I' for Inactive)
REMARK    1  A    between atoms: C_1  and  C_2
REMARK    2  A    between atoms: C_2  and  C_3
REMARK    3  A    between atoms: C_2  and  C_4
REMARK    4  A    between atoms: C_2  and  C_22
REMARK    5  A    between atoms: C_4  and  N_5
REMARK    6  A    between atoms: C_10  and  C_11
REMARK    7  A    between atoms: C_14  and  C_15
REMARK    8  A    between atoms: C_25  and  O_26
REMARK                            x       y       z     vdW  Elec       q    Type
REMARK                         _______ _______ _______ _____ _____    ______ ____
ROOT
ATOM      1  N   UNL     1      46.183   4.918  12.097  0.00  0.00    +0.000 N 
ATOM      2  C   UNL     1      46.368   6.281  12.238  0.00  0.00    +0.000 A 
ATOM      3  C   UNL     1      45.441   7.133  12.845  0.00  0.00    +0.000 A 
ATOM      4  N   UNL     1      45.632   8.458  13.037  0.00  0.00    +0.000 NA
ATOM      5  C   UNL     1      46.827   8.915  12.611  0.00  0.00    +0.000 A 
ATOM      6  C   UNL     1      47.788   8.105  12.005  0.00  0.00    +0.000 A 
ATOM      7  N   UNL     1      47.551   6.775  11.808  0.00  0.00    +0.000 NA
ATOM      8  H   UNL     1      46.804   4.495  11.415  0.00  0.00    +0.000 HD
ENDROOT
BRANCH   6   9
ATOM      9  C   UNL     1      49.106   8.624  11.587  0.00  0.00    +0.000 A 
ATOM     10  C   UNL     1      50.198   7.761  11.395  0.00  0.00    +0.000 A 
ATOM     11  C   UNL     1      51.459   8.250  11.023  0.00  0.00    +0.000 A 
ATOM     12  C   UNL     1      51.662   9.620  10.823  0.00  0.00    +0.000 A 
ATOM     13  C   UNL     1      50.583  10.491  11.013  0.00  0.00    +0.000 A 
ATOM     14  C   UNL     1      49.327  10.000  11.385  0.00  0.00    +0.000 A 
BRANCH  12  15
ATOM     15  C   UNL     1      53.001  10.170  10.396  0.00  0.00    +0.000 C 
ATOM     16  F   UNL     1      53.284  11.394  10.924  0.00  0.00    +0.000 F 
ATOM     17  F   UNL     1      54.034   9.360  10.757  0.00  0.00    +0.000 F 
ATOM     18  F   UNL     1      53.098  10.316   9.044  0.00  0.00    +0.000 F 
ENDBRANCH  12  15
ENDBRANCH   6   9
BRANCH   1  19
ATOM     19  C   UNL     1      44.940   4.265  12.465  0.00  0.00    +0.000 C 
BRANCH  19  21
ATOM     20  C   UNL     1      43.208   2.618  11.630  0.00  0.00    +0.000 C 
ATOM     21  C   UNL     1      44.051   3.861  11.252  0.00  0.00    +0.000 C 
ATOM     22  C   UNL     1      43.039   5.017  11.029  0.00  0.00    +0.000 C 
BRANCH  21  23
ATOM     23  C   UNL     1      44.882   3.675   9.970  0.00  0.00    +0.000 A 
ATOM     24  C   UNL     1      45.215   2.404   9.464  0.00  0.00    +0.000 A 
ATOM     25  C   UNL     1      45.932   2.259   8.271  0.00  0.00    +0.000 A 
ATOM     26  C   UNL     1      46.329   3.385   7.566  0.00  0.00    +0.000 A 
ATOM     27  C   UNL     1      46.033   4.652   8.043  0.00  0.00    +0.000 A 
ATOM     28  C   UNL     1      45.318   4.795   9.235  0.00  0.00    +0.000 A 
BRANCH  26  29
ATOM     29  O   UNL     1      47.013   3.286   6.393  0.00  0.00    +0.000 OA
ATOM     30  H   UNL     1      47.092   4.173   6.005  0.00  0.00    +0.000 HD
ENDBRANCH  26  29
ENDBRANCH  21  23
ENDBRANCH  19  21
ENDBRANCH   1  19
TORSDOF 6
ENDMDL
MODEL 2
REMARK VINA RESULT:    -7.006      4.889      5.587
REMARK INTER + INTRA:          -9.833
REMARK INTER:                  -9.092
REMARK INTRA:                  -0.742
REMARK UNBOUND:                -0.574
REMARK  Name = 
REMARK  8 active torsions:
REMARK  status: ('A' for Active; 'I' for Inactive)
REMARK    1  A    between atoms: C_1  and  C_2
REMARK    2  A    between atoms: C_2  and  C_3
REMARK    3  A    between atoms: C_2  and  C_4
REMARK    4  A    between atoms: C_2  and  C_22
REMARK    5  A    between atoms: C_4  and  N_5
REMARK    6  A    between atoms: C_10  and  C_11
REMARK    7  A    between atoms: C_14  and  C_15
REMARK    8  A    between atoms: C_25  and  O_26
REMARK                            x       y       z     vdW  Elec       q    Type
REMARK                         _______ _______ _______ _____ _____    ______ ____
ROOT
ATOM      1  N   UNL     1      46.301   5.306  12.739  0.00  0.00    +0.000 N 
ATOM      2  C   UNL     1      47.089   6.247  13.374  0.00  0.00    +0.000 A 
ATOM      3  C   UNL     1      47.026   7.619  13.112  0.00  0.00    +0.000 A 
ATOM      4  N   UNL     1      47.752   8.556  13.764  0.00  0.00    +0.000 NA
ATOM      5  C   UNL     1      48.551   8.066  14.732  0.00  0.00    +0.000 A 
ATOM      6  C   UNL     1      48.646   6.707  15.037  0.00  0.00    +0.000 A 
ATOM      7  N   UNL     1      47.913   5.787  14.342  0.00  0.00    +0.000 NA
ATOM      8  H   UNL     1      46.646   4.356  12.840  0.00  0.00    +0.000 HD
ENDROOT
BRANCH   6   9
ATOM      9  C   UNL     1      49.498   6.202  16.132  0.00  0.00    +0.000 A 
ATOM     10  C   UNL     1      50.823   6.644  16.284  0.00  0.00    +0.000 A 
ATOM     11  C   UNL     1      51.645   6.150  17.306  0.00  0.00    +0.000 A 
ATOM     12  C   UNL     1      51.163   5.201  18.215  0.00  0.00    +0.000 A 
ATOM     13  C   UNL     1      49.845   4.750  18.073  0.00  0.00    +0.000 A 
ATOM     14  C   UNL     1      49.027   5.245  17.052  0.00  0.00    +0.000 A 
BRANCH  12  15
ATOM     15  C   UNL     1      52.017   4.672  19.340  0.00  0.00    +0.000 C 
ATOM     16  F   UNL     1      53.107   5.445  19.611  0.00  0.00    +0.000 F 
ATOM     17  F   UNL     1      51.330   4.575  20.511  0.00  0.00    +0.000 F 
ATOM     18  F   UNL     1      52.499   3.423  19.088  0.00  0.00    +0.000 F 
ENDBRANCH  12  15
ENDBRANCH   6   9
BRANCH   1  19
ATOM     19  C   UNL     1      45.413   5.654  11.643  0.00  0.00    +0.000 C 
BRANCH  19  21
ATOM     20  C   UNL     1      44.332   3.459  12.294  0.00  0.00    +0.000 C 
ATOM     21  C   UNL     1      44.533   4.472  11.140  0.00  0.00    +0.000 C 
ATOM     22  C   UNL     1      43.129   5.056  10.829  0.00  0.00    +0.000 C 
BRANCH  21  23
ATOM     23  C   UNL     1      45.102   3.839   9.858  0.00  0.00    +0.000 A 
ATOM     24  C   UNL     1      45.666   4.607   8.822  0.00  0.00    +0.000 A 
ATOM     25  C   UNL     1      46.221   4.006   7.686  0.00  0.00    +0.000 A 
ATOM     26  C   UNL     1      46.215   2.624   7.569  0.00  0.00    +0.000 A 
ATOM     27  C   UNL     1      45.653   1.837   8.560  0.00  0.00    +0.000 A 
ATOM     28  C   UNL     1      45.099   2.439   9.694  0.00  0.00    +0.000 A 
BRANCH  26  29
ATOM     29  O   UNL     1      46.759   1.999   6.487  0.00  0.00    +0.000 OA
ATOM     30  H   UNL     1      47.591   1.579   6.759  0.00  0.00    +0.000 HD
ENDBRANCH  26  29
ENDBRANCH  21  23
ENDBRANCH  19  21
ENDBRANCH   1  19
TORSDOF 6
ENDMDL
MODEL 3
REMARK VINA RESULT:    -7.004      6.944      9.036
REMARK INTER + INTRA:          -9.830
REMARK INTER:                  -9.358
REMARK INTRA:                  -0.473
REMARK UNBOUND:                -0.574
REMARK  Name = 
REMARK  8 active torsions:
REMARK  status: ('A' for Active; 'I' for Inactive)
REMARK    1  A    between atoms: C_1  and  C_2
REMARK    2  A    between atoms: C_2  and  C_3
REMARK    3  A    between atoms: C_2  and  C_4
REMARK    4  A    between atoms: C_2  and  C_22
REMARK    5  A    between atoms: C_4  and  N_5
REMARK    6  A    between atoms: C_10  and  C_11
REMARK    7  A    between atoms: C_14  and  C_15
REMARK    8  A    between atoms: C_25  and  O_26
REMARK                            x       y       z     vdW  Elec       q    Type
REMARK                         _______ _______ _______ _____ _____    ______ ____
ROOT
ATOM      1  N   UNL     1      49.446   5.958  16.974  0.00  0.00    +0.000 N 
ATOM      2  C   UNL     1      49.304   6.440  15.686  0.00  0.00    +0.000 A 
ATOM      3  C   UNL     1      50.201   7.327  15.086  0.00  0.00    +0.000 A 
ATOM      4  N   UNL     1      50.105   7.765  13.809  0.00  0.00    +0.000 NA
ATOM      5  C   UNL     1      49.063   7.253  13.123  0.00  0.00    +0.000 A 
ATOM      6  C   UNL     1      48.143   6.360  13.675  0.00  0.00    +0.000 A 
ATOM      7  N   UNL     1      48.260   5.957  14.975  0.00  0.00    +0.000 NA
ATOM      8  H   UNL     1      48.595   5.549  17.348  0.00  0.00    +0.000 HD
ENDROOT
BRANCH   6   9
ATOM      9  C   UNL     1      47.036   5.782  12.888  0.00  0.00    +0.000 A 
ATOM     10  C   UNL     1      46.368   4.622  13.317  0.00  0.00    +0.000 A 
ATOM     11  C   UNL     1      45.333   4.054  12.561  0.00  0.00    +0.000 A 
ATOM     12  C   UNL     1      44.927   4.635  11.355  0.00  0.00    +0.000 A 
ATOM     13  C   UNL     1      45.585   5.790  10.915  0.00  0.00    +0.000 A 
ATOM     14  C   UNL     1      46.618   6.354  11.671  0.00  0.00    +0.000 A 
BRANCH  12  15
ATOM     15  C   UNL     1      43.798   4.060  10.536  0.00  0.00    +0.000 C 
ATOM     16  F   UNL     1      43.686   4.610   9.294  0.00  0.00    +0.000 F 
ATOM     17  F   UNL     1      43.930   2.719  10.340  0.00  0.00    +0.000 F 
ATOM     18  F   UNL     1      42.584   4.231  11.129  0.00  0.00    +0.000 F 
ENDBRANCH  12  15
ENDBRANCH   6   9
BRANCH   1  19
ATOM     19  C   UNL     1      50.488   6.432  17.867  0.00  0.00    +0.000 C 
BRANCH  19  21
ATOM     20  C   UNL     1      51.875   6.102  19.959  0.00  0.00    +0.000 C 
ATOM     21  C   UNL     1      50.849   5.436  19.008  0.00  0.00    +0.000 C 
ATOM     22  C   UNL     1      49.560   5.223  19.845  0.00  0.00    +0.000 C 
BRANCH  21  23
ATOM     23  C   UNL     1      51.314   4.076  18.457  0.00  0.00    +0.000 A 
ATOM     24  C   UNL     1      52.633   3.611  18.609  0.00  0.00    +0.000 A 
ATOM     25  C   UNL     1      53.021   2.351  18.141  0.00  0.00    +0.000 A 
ATOM     26  C   UNL     1      52.093   1.537  17.509  0.00  0.00    +0.000 A 
ATOM     27  C   UNL     1      50.790   1.969  17.326  0.00  0.00    +0.000 A 
ATOM     28  C   UNL     1      50.404   3.229  17.794  0.00  0.00    +0.000 A 
BRANCH  26  29
ATOM     29  O   UNL     1      52.426   0.297  17.054  0.00  0.00    +0.000 OA
ATOM     30  H   UNL     1      52.300   0.278  16.091  0.00  0.00    +0.000 HD
ENDBRANCH  26  29
ENDBRANCH  21  23
ENDBRANCH  19  21
ENDBRANCH   1  19
TORSDOF 6
ENDMDL
MODEL 4
REMARK VINA RESULT:    -6.956      5.222      6.099
REMARK INTER + INTRA:          -9.767
REMARK INTER:                  -9.018
REMARK INTRA:                  -0.749
REMARK UNBOUND:                -0.574
REMARK  Name = 
REMARK  8 active torsions:
REMARK  status: ('A' for Active; 'I' for Inactive)
REMARK    1  A    between atoms: C_1  and  C_2
REMARK    2  A    between atoms: C_2  and  C_3
REMARK    3  A    between atoms: C_2  and  C_4
REMARK    4  A    between atoms: C_2  and  C_22
REMARK    5  A    between atoms: C_4  and  N_5
REMARK    6  A    between atoms: C_10  and  C_11
REMARK    7  A    between atoms: C_14  and  C_15
REMARK    8  A    between atoms: C_25  and  O_26
REMARK                            x       y       z     vdW  Elec       q    Type
REMARK                         _______ _______ _______ _____ _____    ______ ____
ROOT
ATOM      1  N   UNL     1      46.051   5.109  12.343  0.00  0.00    +0.000 N 
ATOM      2  C   UNL     1      47.031   5.888  12.931  0.00  0.00    +0.000 A 
ATOM      3  C   UNL     1      47.603   7.008  12.321  0.00  0.00    +0.000 A 
ATOM      4  N   UNL     1      48.522   7.810  12.905  0.00  0.00    +0.000 NA
ATOM      5  C   UNL     1      48.846   7.459  14.165  0.00  0.00    +0.000 A 
ATOM      6  C   UNL     1      48.300   6.355  14.820  0.00  0.00    +0.000 A 
ATOM      7  N   UNL     1      47.389   5.554  14.191  0.00  0.00    +0.000 NA
ATOM      8  H   UNL     1      45.938   4.202  12.786  0.00  0.00    +0.000 HD
ENDROOT
BRANCH   6   9
ATOM      9  C   UNL     1      48.641   6.018  16.217  0.00  0.00    +0.000 A 
ATOM     10  C   UNL     1      48.197   4.821  16.805  0.00  0.00    +0.000 A 
ATOM     11  C   UNL     1      48.496   4.508  18.138  0.00  0.00    +0.000 A 
ATOM     12  C   UNL     1      49.256   5.381  18.924  0.00  0.00    +0.000 A 
ATOM     13  C   UNL     1      49.703   6.579  18.352  0.00  0.00    +0.000 A 
ATOM     14  C   UNL     1      49.402   6.888  17.021  0.00  0.00    +0.000 A 
BRANCH  12  15
ATOM     15  C   UNL     1      49.615   5.056  20.353  0.00  0.00    +0.000 C 
ATOM     16  F   UNL     1      48.726   4.225  20.966  0.00  0.00    +0.000 F 
ATOM     17  F   UNL     1      50.828   4.447  20.457  0.00  0.00    +0.000 F 
ATOM     18  F   UNL     1      49.689   6.167  21.138  0.00  0.00    +0.000 F 
ENDBRANCH  12  15
ENDBRANCH   6   9
BRANCH   1  19
ATOM     19  C   UNL     1      45.612   5.320  10.976  0.00  0.00    +0.000 C 
BRANCH  19  21
ATOM     20  C   UNL     1      44.359   3.197  11.549  0.00  0.00    +0.000 C 
ATOM     21  C   UNL     1      44.744   4.163  10.401  0.00  0.00    +0.000 C 
ATOM     22  C   UNL     1      43.416   4.797   9.907  0.00  0.00    +0.000 C 
BRANCH  21  23
ATOM     23  C   UNL     1      45.432   3.464   9.215  0.00  0.00    +0.000 A 
ATOM     24  C   UNL     1      46.063   4.179   8.180  0.00  0.00    +0.000 A 
ATOM     25  C   UNL     1      46.723   3.522   7.135  0.00  0.00    +0.000 A 
ATOM     26  C   UNL     1      46.758   2.136   7.110  0.00  0.00    +0.000 A 
ATOM     27  C   UNL     1      46.134   1.399   8.102  0.00  0.00    +0.000 A 
ATOM     28  C   UNL     1      45.474   2.057   9.144  0.00  0.00    +0.000 A 
BRANCH  26  29
ATOM     29  O   UNL     1      47.404   1.459   6.120  0.00  0.00    +0.000 OA
ATOM     30  H   UNL     1      46.803   0.785   5.762  0.00  0.00    +0.000 HD
ENDBRANCH  26  29
ENDBRANCH  21  23
ENDBRANCH  19  21
ENDBRANCH   1  19
TORSDOF 6
ENDMDL
MODEL 5
REMARK VINA RESULT:    -6.854      6.212      7.266
REMARK INTER + INTRA:          -9.632
REMARK INTER:                  -8.862
REMARK INTRA:                  -0.769
REMARK UNBOUND:                -0.574
REMARK  Name = 
REMARK  8 active torsions:
REMARK  status: ('A' for Active; 'I' for Inactive)
REMARK    1  A    between atoms: C_1  and  C_2
REMARK    2  A    between atoms: C_2  and  C_3
REMARK    3  A    between atoms: C_2  and  C_4
REMARK    4  A    between atoms: C_2  and  C_22
REMARK    5  A    between atoms: C_4  and  N_5
REMARK    6  A    between atoms: C_10  and  C_11
REMARK    7  A    between atoms: C_14  and  C_15
REMARK    8  A    between atoms: C_25  and  O_26
REMARK                            x       y       z     vdW  Elec       q    Type
REMARK                         _______ _______ _______ _____ _____    ______ ____
ROOT
ATOM      1  N   UNL     1      47.451   5.347  14.470  0.00  0.00    +0.000 N 
ATOM      2  C   UNL     1      47.570   4.551  15.594  0.00  0.00    +0.000 A 
ATOM      3  C   UNL     1      46.484   3.973  16.257  0.00  0.00    +0.000 A 
ATOM      4  N   UNL     1      46.590   3.149  17.324  0.00  0.00    +0.000 NA
ATOM      5  C   UNL     1      47.857   2.893  17.706  0.00  0.00    +0.000 A 
ATOM      6  C   UNL     1      48.975   3.439  17.074  0.00  0.00    +0.000 A 
ATOM      7  N   UNL     1      48.828   4.286  16.012  0.00  0.00    +0.000 NA
ATOM      8  H   UNL     1      48.283   5.895  14.274  0.00  0.00    +0.000 HD
ENDROOT
BRANCH   6   9
ATOM      9  C   UNL     1      50.353   3.108  17.486  0.00  0.00    +0.000 A 
ATOM     10  C   UNL     1      50.873   1.814  17.310  0.00  0.00    +0.000 A 
ATOM     11  C   UNL     1      52.172   1.486  17.723  0.00  0.00    +0.000 A 
ATOM     12  C   UNL     1      52.996   2.448  18.318  0.00  0.00    +0.000 A 
ATOM     13  C   UNL     1      52.491   3.741  18.502  0.00  0.00    +0.000 A 
ATOM     14  C   UNL     1      51.193   4.064  18.089  0.00  0.00    +0.000 A 
BRANCH  12  15
ATOM     15  C   UNL     1      54.408   2.130  18.746  0.00  0.00    +0.000 C 
ATOM     16  F   UNL     1      54.568   2.060  20.098  0.00  0.00    +0.000 F 
ATOM     17  F   UNL     1      54.841   0.935  18.257  0.00  0.00    +0.000 F 
ATOM     18  F   UNL     1      55.307   3.057  18.312  0.00  0.00    +0.000 F 
ENDBRANCH  12  15
ENDBRANCH   6   9
BRANCH   1  19
ATOM     19  C   UNL     1      46.159   5.756  13.947  0.00  0.00    +0.000 C 
BRANCH  19  21
ATOM     20  C   UNL     1      45.506   7.738  12.515  0.00  0.00    +0.000 C 
ATOM     21  C   UNL     1      46.218   6.363  12.514  0.00  0.00    +0.000 C 
ATOM     22  C   UNL     1      47.712   6.650  12.206  0.00  0.00    +0.000 C 
BRANCH  21  23
ATOM     23  C   UNL     1      45.672   5.388  11.456  0.00  0.00    +0.000 A 
ATOM     24  C   UNL     1      45.799   5.624  10.074  0.00  0.00    +0.000 A 
ATOM     25  C   UNL     1      45.336   4.701   9.130  0.00  0.00    +0.000 A 
ATOM     26  C   UNL     1      44.734   3.526   9.556  0.00  0.00    +0.000 A 
ATOM     27  C   UNL     1      44.576   3.268  10.907  0.00  0.00    +0.000 A 
ATOM     28  C   UNL     1      45.039   4.192  11.849  0.00  0.00    +0.000 A 
BRANCH  26  29
ATOM     29  O   UNL     1      44.285   2.594   8.670  0.00  0.00    +0.000 OA
ATOM     30  H   UNL     1      44.387   1.715   9.068  0.00  0.00    +0.000 HD
ENDBRANCH  26  29
ENDBRANCH  21  23
ENDBRANCH  19  21
ENDBRANCH   1  19
TORSDOF 6
ENDMDL
MODEL 6
REMARK VINA RESULT:    -6.489      6.257      9.036
REMARK INTER + INTRA:          -9.150
REMARK INTER:                  -8.225
REMARK INTRA:                  -0.925
REMARK UNBOUND:                -0.574
REMARK  Name = 
REMARK  8 active torsions:
REMARK  status: ('A' for Active; 'I' for Inactive)
REMARK    1  A    between atoms: C_1  and  C_2
REMARK    2  A    between atoms: C_2  and  C_3
REMARK    3  A    between atoms: C_2  and  C_4
REMARK    4  A    between atoms: C_2  and  C_22
REMARK    5  A    between atoms: C_4  and  N_5
REMARK    6  A    between atoms: C_10  and  C_11
REMARK    7  A    between atoms: C_14  and  C_15
REMARK    8  A    between atoms: C_25  and  O_26
REMARK                            x       y       z     vdW  Elec       q    Type
REMARK                         _______ _______ _______ _____ _____    ______ ____
ROOT
ATOM      1  N   UNL     1      47.821   9.222  16.182  0.00  0.00    +0.000 N 
ATOM      2  C   UNL     1      48.319   8.547  15.083  0.00  0.00    +0.000 A 
ATOM      3  C   UNL     1      49.671   8.528  14.729  0.00  0.00    +0.000 A 
ATOM      4  N   UNL     1      50.180   7.829  13.689  0.00  0.00    +0.000 NA
ATOM      5  C   UNL     1      49.269   7.108  13.005  0.00  0.00    +0.000 A 
ATOM      6  C   UNL     1      47.910   7.088  13.322  0.00  0.00    +0.000 A 
ATOM      7  N   UNL     1      47.429   7.824  14.367  0.00  0.00    +0.000 NA
ATOM      8  H   UNL     1      46.816   9.358  16.150  0.00  0.00    +0.000 HD
ENDROOT
BRANCH   6   9
ATOM      9  C   UNL     1      46.940   6.255  12.582  0.00  0.00    +0.000 A 
ATOM     10  C   UNL     1      46.381   5.104  13.162  0.00  0.00    +0.000 A 
ATOM     11  C   UNL     1      45.480   4.295  12.456  0.00  0.00    +0.000 A 
ATOM     12  C   UNL     1      45.103   4.618  11.147  0.00  0.00    +0.000 A 
ATOM     13  C   UNL     1      45.655   5.761  10.557  0.00  0.00    +0.000 A 
ATOM     14  C   UNL     1      46.555   6.566  11.264  0.00  0.00    +0.000 A 
BRANCH  12  15
ATOM     15  C   UNL     1      44.115   3.780  10.375  0.00  0.00    +0.000 C 
ATOM     16  F   UNL     1      42.936   3.581  11.029  0.00  0.00    +0.000 F 
ATOM     17  F   UNL     1      43.787   4.338   9.177  0.00  0.00    +0.000 F 
ATOM     18  F   UNL     1      44.596   2.538  10.087  0.00  0.00    +0.000 F 
ENDBRANCH  12  15
ENDBRANCH   6   9
BRANCH   1  19
ATOM     19  C   UNL     1      48.655  10.079  17.006  0.00  0.00    +0.000 C 
BRANCH  19  21
ATOM     20  C   UNL     1      49.875  10.364  19.205  0.00  0.00    +0.000 C 
ATOM     21  C   UNL     1      48.655   9.704  18.517  0.00  0.00    +0.000 C 
ATOM     22  C   UNL     1      47.397  10.360  19.145  0.00  0.00    +0.000 C 
BRANCH  21  23
ATOM     23  C   UNL     1      48.579   8.181  18.729  0.00  0.00    +0.000 A 
ATOM     24  C   UNL     1      49.675   7.330  18.493  0.00  0.00    +0.000 A 
ATOM     25  C   UNL     1      49.597   5.955  18.738  0.00  0.00    +0.000 A 
ATOM     26  C   UNL     1      48.417   5.408  19.220  0.00  0.00    +0.000 A 
ATOM     27  C   UNL     1      47.313   6.212  19.448  0.00  0.00    +0.000 A 
ATOM     28  C   UNL     1      47.392   7.587  19.202  0.00  0.00    +0.000 A 
BRANCH  26  29
ATOM     29  O   UNL     1      48.306   4.077  19.487  0.00  0.00    +0.000 OA
ATOM     30  H   UNL     1      48.216   3.600  18.646  0.00  0.00    +0.000 HD
ENDBRANCH  26  29
ENDBRANCH  21  23
ENDBRANCH  19  21
ENDBRANCH   1  19
TORSDOF 6
ENDMDL
MODEL 7
REMARK VINA RESULT:    -6.461      3.483      4.012
REMARK INTER + INTRA:          -9.113
REMARK INTER:                  -8.328
REMARK INTRA:                  -0.785
REMARK UNBOUND:                -0.574
REMARK  Name = 
REMARK  8 active torsions:
REMARK  status: ('A' for Active; 'I' for Inactive)
REMARK    1  A    between atoms: C_1  and  C_2
REMARK    2  A    between atoms: C_2  and  C_3
REMARK    3  A    between atoms: C_2  and  C_4
REMARK    4  A    between atoms: C_2  and  C_22
REMARK    5  A    between atoms: C_4  and  N_5
REMARK    6  A    between atoms: C_10  and  C_11
REMARK    7  A    between atoms: C_14  and  C_15
REMARK    8  A    between atoms: C_25  and  O_26
REMARK                            x       y       z     vdW  Elec       q    Type
REMARK                         _______ _______ _______ _____ _____    ______ ____
ROOT
ATOM      1  N   UNL     1      46.421   5.055  12.792  0.00  0.00    +0.000 N 
ATOM      2  C   UNL     1      46.998   5.093  14.048  0.00  0.00    +0.000 A 
ATOM      3  C   UNL     1      46.693   4.190  15.070  0.00  0.00    +0.000 A 
ATOM      4  N   UNL     1      47.289   4.182  16.285  0.00  0.00    +0.000 NA
ATOM      5  C   UNL     1      48.244   5.120  16.442  0.00  0.00    +0.000 A 
ATOM      6  C   UNL     1      48.590   6.039  15.451  0.00  0.00    +0.000 A 
ATOM      7  N   UNL     1      47.951   6.031  14.243  0.00  0.00    +0.000 NA
ATOM      8  H   UNL     1      46.542   5.916  12.266  0.00  0.00    +0.000 HD
ENDROOT
BRANCH   6   9
ATOM      9  C   UNL     1      49.671   7.028  15.635  0.00  0.00    +0.000 A 
ATOM     10  C   UNL     1      50.230   7.705  14.538  0.00  0.00    +0.000 A 
ATOM     11  C   UNL     1      51.274   8.627  14.703  0.00  0.00    +0.000 A 
ATOM     12  C   UNL     1      51.786   8.904  15.976  0.00  0.00    +0.000 A 
ATOM     13  C   UNL     1      51.240   8.235  17.077  0.00  0.00    +0.000 A 
ATOM     14  C   UNL     1      50.199   7.316  16.908  0.00  0.00    +0.000 A 
BRANCH  12  15
ATOM     15  C   UNL     1      52.891   9.911  16.185  0.00  0.00    +0.000 C 
ATOM     16  F   UNL     1      54.062   9.575  15.574  0.00  0.00    +0.000 F 
ATOM     17  F   UNL     1      52.563  11.145  15.712  0.00  0.00    +0.000 F 
ATOM     18  F   UNL     1      53.194  10.087  17.502  0.00  0.00    +0.000 F 
ENDBRANCH  12  15
ENDBRANCH   6   9
BRANCH   1  19
ATOM     19  C   UNL     1      45.346   4.136  12.462  0.00  0.00    +0.000 C 
BRANCH  19  21
ATOM     20  C   UNL     1      43.027   4.230  11.452  0.00  0.00    +0.000 C 
ATOM     21  C   UNL     1      44.523   4.546  11.206  0.00  0.00    +0.000 C 
ATOM     22  C   UNL     1      44.624   6.090  11.083  0.00  0.00    +0.000 C 
BRANCH  21  23
ATOM     23  C   UNL     1      45.082   3.909   9.921  0.00  0.00    +0.000 A 
ATOM     24  C   UNL     1      45.659   4.672   8.889  0.00  0.00    +0.000 A 
ATOM     25  C   UNL     1      46.204   4.066   7.750  0.00  0.00    +0.000 A 
ATOM     26  C   UNL     1      46.175   2.685   7.627  0.00  0.00    +0.000 A 
ATOM     27  C   UNL     1      45.599   1.904   8.614  0.00  0.00    +0.000 A 
ATOM     28  C   UNL     1      45.055   2.510   9.751  0.00  0.00    +0.000 A 
BRANCH  26  29
ATOM     29  O   UNL     1      46.708   2.057   6.542  0.00  0.00    +0.000 OA
ATOM     30  H   UNL     1      46.974   2.730   5.895  0.00  0.00    +0.000 HD
ENDBRANCH  26  29
ENDBRANCH  21  23
ENDBRANCH  19  21
ENDBRANCH   1  19
TORSDOF 6
ENDMDL
MODEL 8
REMARK VINA RESULT:    -6.295      6.486      9.248
REMARK INTER + INTRA:          -8.893
REMARK INTER:                  -8.263
REMARK INTRA:                  -0.630
REMARK UNBOUND:                -0.574
REMARK  Name = 
REMARK  8 active torsions:
REMARK  status: ('A' for Active; 'I' for Inactive)
REMARK    1  A    between atoms: C_1  and  C_2
REMARK    2  A    between atoms: C_2  and  C_3
REMARK    3  A    between atoms: C_2  and  C_4
REMARK    4  A    between atoms: C_2  and  C_22
REMARK    5  A    between atoms: C_4  and  N_5
REMARK    6  A    between atoms: C_10  and  C_11
REMARK    7  A    between atoms: C_14  and  C_15
REMARK    8  A    between atoms: C_25  and  O_26
REMARK                            x       y       z     vdW  Elec       q    Type
REMARK                         _______ _______ _______ _____ _____    ______ ____
ROOT
ATOM      1  N   UNL     1      50.608   6.909  15.387  0.00  0.00    +0.000 N 
ATOM      2  C   UNL     1      49.912   7.314  14.263  0.00  0.00    +0.000 A 
ATOM      3  C   UNL     1      50.309   8.372  13.442  0.00  0.00    +0.000 A 
ATOM      4  N   UNL     1      49.668   8.744  12.310  0.00  0.00    +0.000 NA
ATOM      5  C   UNL     1      48.596   7.986  12.003  0.00  0.00    +0.000 A 
ATOM      6  C   UNL     1      48.163   6.916  12.787  0.00  0.00    +0.000 A 
ATOM      7  N   UNL     1      48.823   6.583  13.935  0.00  0.00    +0.000 NA
ATOM      8  H   UNL     1      50.063   6.321  16.009  0.00  0.00    +0.000 HD
ENDROOT
BRANCH   6   9
ATOM      9  C   UNL     1      47.011   6.075  12.404  0.00  0.00    +0.000 A 
ATOM     10  C   UNL     1      46.316   6.298  11.203  0.00  0.00    +0.000 A 
ATOM     11  C   UNL     1      45.206   5.520  10.846  0.00  0.00    +0.000 A 
ATOM     12  C   UNL     1      44.760   4.487  11.679  0.00  0.00    +0.000 A 
ATOM     13  C   UNL     1      45.441   4.256  12.880  0.00  0.00    +0.000 A 
ATOM     14  C   UNL     1      46.548   5.035  13.233  0.00  0.00    +0.000 A 
BRANCH  12  15
ATOM     15  C   UNL     1      43.585   3.617  11.307  0.00  0.00    +0.000 C 
ATOM     16  F   UNL     1      43.381   2.575  12.161  0.00  0.00    +0.000 F 
ATOM     17  F   UNL     1      42.414   4.311  11.279  0.00  0.00    +0.000 F 
ATOM     18  F   UNL     1      43.717   3.063  10.069  0.00  0.00    +0.000 F 
ENDBRANCH  12  15
ENDBRANCH   6   9
BRANCH   1  19
ATOM     19  C   UNL     1      51.762   7.637  15.884  0.00  0.00    +0.000 C 
BRANCH  19  21
ATOM     20  C   UNL     1      53.670   6.722  17.274  0.00  0.00    +0.000 C 
ATOM     21  C   UNL     1      52.205   7.222  17.318  0.00  0.00    +0.000 C 
ATOM     22  C   UNL     1      52.215   8.513  18.179  0.00  0.00    +0.000 C 
BRANCH  21  23
ATOM     23  C   UNL     1      51.230   6.212  17.950  0.00  0.00    +0.000 A 
ATOM     24  C   UNL     1      50.182   6.606  18.802  0.00  0.00    +0.000 A 
ATOM     25  C   UNL     1      49.279   5.675  19.327  0.00  0.00    +0.000 A 
ATOM     26  C   UNL     1      49.414   4.332  19.008  0.00  0.00    +0.000 A 
ATOM     27  C   UNL     1      50.443   3.905  18.186  0.00  0.00    +0.000 A 
ATOM     28  C   UNL     1      51.345   4.837  17.663  0.00  0.00    +0.000 A 
BRANCH  26  29
ATOM     29  O   UNL     1      48.546   3.397  19.485  0.00  0.00    +0.000 OA
ATOM     30  H   UNL     1      48.562   2.629  18.891  0.00  0.00    +0.000 HD
ENDBRANCH  26  29
ENDBRANCH  21  23
ENDBRANCH  19  21
ENDBRANCH   1  19
TORSDOF 6
ENDMDL
MODEL 9
REMARK VINA RESULT:    -6.202      5.711      6.798
REMARK INTER + INTRA:          -8.770
REMARK INTER:                  -8.014
REMARK INTRA:                  -0.756
REMARK UNBOUND:                -0.574
REMARK  Name = 
REMARK  8 active torsions:
REMARK  status: ('A' for Active; 'I' for Inactive)
REMARK    1  A    between atoms: C_1  and  C_2
REMARK    2  A    between atoms: C_2  and  C_3
REMARK    3  A    between atoms: C_2  and  C_4
REMARK    4  A    between atoms: C_2  and  C_22
REMARK    5  A    between atoms: C_4  and  N_5
REMARK    6  A    between atoms: C_10  and  C_11
REMARK    7  A    between atoms: C_14  and  C_15
REMARK    8  A    between atoms: C_25  and  O_26
REMARK                            x       y       z     vdW  Elec       q    Type
REMARK                         _______ _______ _______ _____ _____    ______ ____
ROOT
ATOM      1  N   UNL     1      47.159   6.695  14.029  0.00  0.00    +0.000 N 
ATOM      2  C   UNL     1      48.168   7.183  14.840  0.00  0.00    +0.000 A 
ATOM      3  C   UNL     1      48.308   8.531  15.179  0.00  0.00    +0.000 A 
ATOM      4  N   UNL     1      49.257   9.015  16.013  0.00  0.00    +0.000 NA
ATOM      5  C   UNL     1      50.073   8.075  16.532  0.00  0.00    +0.000 A 
ATOM      6  C   UNL     1      49.970   6.717  16.230  0.00  0.00    +0.000 A 
ATOM      7  N   UNL     1      49.012   6.268  15.365  0.00  0.00    +0.000 NA
ATOM      8  H   UNL     1      47.346   5.765  13.668  0.00  0.00    +0.000 HD
ENDROOT
BRANCH   6   9
ATOM      9  C   UNL     1      50.850   5.703  16.846  0.00  0.00    +0.000 A 
ATOM     10  C   UNL     1      52.238   5.904  16.933  0.00  0.00    +0.000 A 
ATOM     11  C   UNL     1      53.082   4.934  17.494  0.00  0.00    +0.000 A 
ATOM     12  C   UNL     1      52.560   3.735  17.993  0.00  0.00    +0.000 A 
ATOM     13  C   UNL     1      51.178   3.522  17.910  0.00  0.00    +0.000 A 
ATOM     14  C   UNL     1      50.340   4.491  17.349  0.00  0.00    +0.000 A 
BRANCH  12  15
ATOM     15  C   UNL     1      53.441   2.688  18.626  0.00  0.00    +0.000 C 
ATOM     16  F   UNL     1      53.014   1.411  18.415  0.00  0.00    +0.000 F 
ATOM     17  F   UNL     1      54.720   2.735  18.160  0.00  0.00    +0.000 F 
ATOM     18  F   UNL     1      53.534   2.831  19.978  0.00  0.00    +0.000 F 
ENDBRANCH  12  15
ENDBRANCH   6   9
BRANCH   1  19
ATOM     19  C   UNL     1      46.218   7.571  13.355  0.00  0.00    +0.000 C 
BRANCH  19  21
ATOM     20  C   UNL     1      45.066   8.244  11.204  0.00  0.00    +0.000 C 
ATOM     21  C   UNL     1      45.830   7.104  11.921  0.00  0.00    +0.000 C 
ATOM     22  C   UNL     1      47.155   6.911  11.136  0.00  0.00    +0.000 C 
BRANCH  21  23
ATOM     23  C   UNL     1      45.066   5.769  11.940  0.00  0.00    +0.000 A 
ATOM     24  C   UNL     1      44.113   5.458  12.928  0.00  0.00    +0.000 A 
ATOM     25  C   UNL     1      43.396   4.256  12.898  0.00  0.00    +0.000 A 
ATOM     26  C   UNL     1      43.625   3.344  11.879  0.00  0.00    +0.000 A 
ATOM     27  C   UNL     1      44.568   3.609  10.900  0.00  0.00    +0.000 A 
ATOM     28  C   UNL     1      45.284   4.809  10.931  0.00  0.00    +0.000 A 
BRANCH  26  29
ATOM     29  O   UNL     1      42.937   2.171  11.805  0.00  0.00    +0.000 OA
ATOM     30  H   UNL     1      43.511   1.456  12.124  0.00  0.00    +0.000 HD
ENDBRANCH  26  29
ENDBRANCH  21  23
ENDBRANCH  19  21
ENDBRANCH   1  19
TORSDOF 6
ENDMDL
