MODEL 1
REMARK VINA RESULT:    -8.486      0.000      0.000
REMARK INTER + INTRA:         -11.167
REMARK INTER:                 -10.470
REMARK INTRA:                  -0.697
REMARK UNBOUND:                -0.697
REMARK  Name = 
REMARK  4 active torsions:
REMARK  status: ('A' for Active; 'I' for Inactive)
REMARK    1  A    between atoms: C_2  and  C_4
REMARK    2  A    between atoms: N_8  and  C_9
REMARK    3  A    between atoms: C_9  and  C_10
REMARK    4  A    between atoms: C_15  and  C_16
REMARK                            x       y       z     vdW  Elec       q    Type
REMARK                         _______ _______ _______ _____ _____    ______ ____
ROOT
ATOM      1  C   UNL     1      44.369   3.116  11.327  0.00  0.00    +0.000 C 
ATOM      2  C   UNL     1      43.104   3.888  11.654  0.00  0.00    +0.000 C 
ATOM      3  C   UNL     1      43.029   2.408  11.479  0.00  0.00    +0.000 C 
ENDROOT
BRANCH   1   8
ATOM      4  C   UNL     1      47.645   5.619  14.370  0.00  0.00    +0.000 A 
ATOM      5  C   UNL     1      47.573   4.292  14.721  0.00  0.00    +0.000 A 
ATOM      6  N   UNL     1      46.849   3.375  14.042  0.00  0.00    +0.000 NA
ATOM      7  C   UNL     1      46.141   3.813  12.986  0.00  0.00    +0.000 A 
ATOM      8  N   UNL     1      45.368   2.849  12.354  0.00  0.00    +0.000 N 
ATOM      9  N   UNL     1      46.145   5.091  12.572  0.00  0.00    +0.000 NA
ATOM     10  C   UNL     1      46.889   5.974  13.279  0.00  0.00    +0.000 A 
ATOM     11  H   UNL     1      45.510   1.936  12.755  0.00  0.00    +0.000 HD
BRANCH   4  13
ATOM     12  N   UNL     1      47.938   7.886  15.177  0.00  0.00    +0.000 N 
ATOM     13  C   UNL     1      48.438   6.614  15.100  0.00  0.00    +0.000 C 
ATOM     14  O   UNL     1      49.489   6.309  15.646  0.00  0.00    +0.000 OA
ATOM     15  H   UNL     1      48.450   8.531  15.768  0.00  0.00    +0.000 HD
ATOM     16  H   UNL     1      46.978   8.119  14.969  0.00  0.00    +0.000 HD
ENDBRANCH   4  13
ENDBRANCH   1   8
BRANCH   1  17
ATOM     17  C   UNL     1      44.982   3.243   9.934  0.00  0.00    +0.000 A 
ATOM     18  C   UNL     1      45.069   4.500   9.311  0.00  0.00    +0.000 A 
ATOM     19  C   UNL     1      45.743   4.671   8.100  0.00  0.00    +0.000 A 
ATOM     20  C   UNL     1      46.333   3.579   7.478  0.00  0.00    +0.000 A 
ATOM     21  F   UNL     1      47.001   3.783   6.334  0.00  0.00    +0.000 F 
ATOM     22  C   UNL     1      46.253   2.309   8.033  0.00  0.00    +0.000 A 
ATOM     23  C   UNL     1      45.573   2.153   9.260  0.00  0.00    +0.000 A 
BRANCH  22  24
ATOM     24  C   UNL     1      46.890   1.127   7.364  0.00  0.00    +0.000 C 
ATOM     25  F   UNL     1      46.561  -0.085   7.887  0.00  0.00    +0.000 F 
ATOM     26  F   UNL     1      46.564   1.052   6.041  0.00  0.00    +0.000 F 
ATOM     27  F   UNL     1      48.251   1.187   7.398  0.00  0.00    +0.000 F 
ENDBRANCH  22  24
ENDBRANCH   1  17
TORSDOF 4
ENDMDL
MODEL 2
REMARK VINA RESULT:    -7.821      4.704      6.847
REMARK INTER + INTRA:         -10.347
REMARK INTER:                 -10.565
REMARK INTRA:                   0.219
REMARK UNBOUND:                -0.697
REMARK  Name = 
REMARK  4 active torsions:
REMARK  status: ('A' for Active; 'I' for Inactive)
REMARK    1  A    between atoms: C_2  and  C_4
REMARK    2  A    between atoms: N_8  and  C_9
REMARK    3  A    between atoms: C_9  and  C_10
REMARK    4  A    between atoms: C_15  and  C_16
REMARK                            x       y       z     vdW  Elec       q    Type
REMARK                         _______ _______ _______ _____ _____    ______ ____
ROOT
ATOM      1  C   UNL     1      44.012   4.663  11.590  0.00  0.00    +0.000 C 
ATOM      2  C   UNL     1      42.687   5.095  12.187  0.00  0.00    +0.000 C 
ATOM      3  C   UNL     1      43.164   5.742  10.931  0.00  0.00    +0.000 C 
ENDROOT
BRANCH   1   8
ATOM      4  C   UNL     1      46.414   2.656   7.533  0.00  0.00    +0.000 A 
ATOM      5  C   UNL     1      45.799   1.671   8.270  0.00  0.00    +0.000 A 
ATOM      6  N   UNL     1      45.025   1.916   9.350  0.00  0.00    +0.000 NA
ATOM      7  C   UNL     1      44.889   3.199   9.727  0.00  0.00    +0.000 A 
ATOM      8  N   UNL     1      44.133   3.399  10.874  0.00  0.00    +0.000 N 
ATOM      9  N   UNL     1      45.456   4.227   9.074  0.00  0.00    +0.000 NA
ATOM     10  C   UNL     1      46.219   3.935   7.994  0.00  0.00    +0.000 A 
ATOM     11  H   UNL     1      43.742   2.536  11.218  0.00  0.00    +0.000 HD
BRANCH   4  13
ATOM     12  N   UNL     1      47.158   3.271   5.310  0.00  0.00    +0.000 N 
ATOM     13  C   UNL     1      47.247   2.393   6.355  0.00  0.00    +0.000 C 
ATOM     14  O   UNL     1      48.016   1.442   6.323  0.00  0.00    +0.000 OA
ATOM     15  H   UNL     1      47.812   3.129   4.549  0.00  0.00    +0.000 HD
ATOM     16  H   UNL     1      46.742   4.189   5.388  0.00  0.00    +0.000 HD
ENDBRANCH   4  13
ENDBRANCH   1   8
BRANCH   1  17
ATOM     17  C   UNL     1      45.311   5.068  12.284  0.00  0.00    +0.000 A 
ATOM     18  C   UNL     1      46.054   6.164  11.813  0.00  0.00    +0.000 A 
ATOM     19  C   UNL     1      47.170   6.642  12.502  0.00  0.00    +0.000 A 
ATOM     20  C   UNL     1      47.577   6.019  13.675  0.00  0.00    +0.000 A 
ATOM     21  F   UNL     1      48.632   6.522  14.329  0.00  0.00    +0.000 F 
ATOM     22  C   UNL     1      46.899   4.913  14.170  0.00  0.00    +0.000 A 
ATOM     23  C   UNL     1      45.769   4.446  13.465  0.00  0.00    +0.000 A 
BRANCH  22  24
ATOM     24  C   UNL     1      47.335   4.238  15.437  0.00  0.00    +0.000 C 
ATOM     25  F   UNL     1      48.383   4.823  16.077  0.00  0.00    +0.000 F 
ATOM     26  F   UNL     1      46.331   4.182  16.359  0.00  0.00    +0.000 F 
ATOM     27  F   UNL     1      47.707   2.943  15.228  0.00  0.00    +0.000 F 
ENDBRANCH  22  24
ENDBRANCH   1  17
TORSDOF 4
ENDMDL
MODEL 3
REMARK VINA RESULT:    -7.702      4.633      6.859
REMARK INTER + INTRA:         -10.199
REMARK INTER:                 -10.047
REMARK INTRA:                  -0.152
REMARK UNBOUND:                -0.697
REMARK  Name = 
REMARK  4 active torsions:
REMARK  status: ('A' for Active; 'I' for Inactive)
REMARK    1  A    between atoms: C_2  and  C_4
REMARK    2  A    between atoms: N_8  and  C_9
REMARK    3  A    between atoms: C_9  and  C_10
REMARK    4  A    between atoms: C_15  and  C_16
REMARK                            x       y       z     vdW  Elec       q    Type
REMARK                         _______ _______ _______ _____ _____    ______ ____
ROOT
ATOM      1  C   UNL     1      43.951   4.763  11.653  0.00  0.00    +0.000 C 
ATOM      2  C   UNL     1      42.603   5.084  12.271  0.00  0.00    +0.000 C 
ATOM      3  C   UNL     1      43.004   5.765  11.005  0.00  0.00    +0.000 C 
ENDROOT
BRANCH   1   8
ATOM      4  C   UNL     1      46.382   2.966   7.516  0.00  0.00    +0.000 A 
ATOM      5  C   UNL     1      45.894   1.933   8.279  0.00  0.00    +0.000 A 
ATOM      6  N   UNL     1      45.141   2.110   9.387  0.00  0.00    +0.000 NA
ATOM      7  C   UNL     1      44.895   3.377   9.764  0.00  0.00    +0.000 A 
ATOM      8  N   UNL     1      44.167   3.511  10.938  0.00  0.00    +0.000 N 
ATOM      9  N   UNL     1      45.335   4.450   9.085  0.00  0.00    +0.000 NA
ATOM     10  C   UNL     1      46.081   4.224   7.978  0.00  0.00    +0.000 A 
ATOM     11  H   UNL     1      43.875   2.617  11.300  0.00  0.00    +0.000 HD
BRANCH   4  13
ATOM     12  N   UNL     1      48.522   2.501   6.475  0.00  0.00    +0.000 N 
ATOM     13  C   UNL     1      47.192   2.776   6.307  0.00  0.00    +0.000 C 
ATOM     14  O   UNL     1      46.689   2.828   5.194  0.00  0.00    +0.000 OA
ATOM     15  H   UNL     1      49.041   2.276   5.635  0.00  0.00    +0.000 HD
ATOM     16  H   UNL     1      48.921   2.202   7.354  0.00  0.00    +0.000 HD
ENDBRANCH   4  13
ENDBRANCH   1   8
BRANCH   1  17
ATOM     17  C   UNL     1      45.222   5.279  12.325  0.00  0.00    +0.000 A 
ATOM     18  C   UNL     1      45.943   4.452  13.206  0.00  0.00    +0.000 A 
ATOM     19  C   UNL     1      47.176   4.843  13.731  0.00  0.00    +0.000 A 
ATOM     20  C   UNL     1      47.709   6.081  13.396  0.00  0.00    +0.000 A 
ATOM     21  F   UNL     1      48.910   6.411  13.890  0.00  0.00    +0.000 F 
ATOM     22  C   UNL     1      47.027   6.950  12.555  0.00  0.00    +0.000 A 
ATOM     23  C   UNL     1      45.784   6.538  12.028  0.00  0.00    +0.000 A 
BRANCH  22  24
ATOM     24  C   UNL     1      47.600   8.288  12.191  0.00  0.00    +0.000 C 
ATOM     25  F   UNL     1      48.629   8.258  11.301  0.00  0.00    +0.000 F 
ATOM     26  F   UNL     1      46.663   9.111  11.636  0.00  0.00    +0.000 F 
ATOM     27  F   UNL     1      48.071   8.959  13.279  0.00  0.00    +0.000 F 
ENDBRANCH  22  24
ENDBRANCH   1  17
TORSDOF 4
ENDMDL
MODEL 4
REMARK VINA RESULT:    -7.128      1.712      2.823
REMARK INTER + INTRA:          -9.491
REMARK INTER:                  -9.532
REMARK INTRA:                   0.041
REMARK UNBOUND:                -0.697
REMARK  Name = 
REMARK  4 active torsions:
REMARK  status: ('A' for Active; 'I' for Inactive)
REMARK    1  A    between atoms: C_2  and  C_4
REMARK    2  A    between atoms: N_8  and  C_9
REMARK    3  A    between atoms: C_9  and  C_10
REMARK    4  A    between atoms: C_15  and  C_16
REMARK                            x       y       z     vdW  Elec       q    Type
REMARK                         _______ _______ _______ _____ _____    ______ ____
ROOT
ATOM      1  C   UNL     1      43.747   5.463  11.560  0.00  0.00    +0.000 C 
ATOM      2  C   UNL     1      42.252   5.664  11.714  0.00  0.00    +0.000 C 
ATOM      3  C   UNL     1      43.048   5.201  12.887  0.00  0.00    +0.000 C 
ENDROOT
BRANCH   1   8
ATOM      4  C   UNL     1      48.255   6.981  13.465  0.00  0.00    +0.000 A 
ATOM      5  C   UNL     1      47.821   7.850  12.493  0.00  0.00    +0.000 A 
ATOM      6  N   UNL     1      46.626   7.745  11.872  0.00  0.00    +0.000 NA
ATOM      7  C   UNL     1      45.847   6.704  12.216  0.00  0.00    +0.000 A 
ATOM      8  N   UNL     1      44.655   6.603  11.513  0.00  0.00    +0.000 N 
ATOM      9  N   UNL     1      46.188   5.801  13.151  0.00  0.00    +0.000 NA
ATOM     10  C   UNL     1      47.394   5.950  13.750  0.00  0.00    +0.000 A 
ATOM     11  H   UNL     1      44.526   7.379  10.883  0.00  0.00    +0.000 HD
BRANCH   4  13
ATOM     12  N   UNL     1      50.546   7.773  13.496  0.00  0.00    +0.000 N 
ATOM     13  C   UNL     1      49.548   7.100  14.147  0.00  0.00    +0.000 C 
ATOM     14  O   UNL     1      49.716   6.643  15.269  0.00  0.00    +0.000 OA
ATOM     15  H   UNL     1      51.397   7.929  14.022  0.00  0.00    +0.000 HD
ATOM     16  H   UNL     1      50.384   8.374  12.700  0.00  0.00    +0.000 HD
ENDBRANCH   4  13
ENDBRANCH   1   8
BRANCH   1  17
ATOM     17  C   UNL     1      44.261   4.274  10.750  0.00  0.00    +0.000 A 
ATOM     18  C   UNL     1      43.794   2.976  11.024  0.00  0.00    +0.000 A 
ATOM     19  C   UNL     1      44.140   1.890  10.218  0.00  0.00    +0.000 A 
ATOM     20  C   UNL     1      44.976   2.078   9.125  0.00  0.00    +0.000 A 
ATOM     21  F   UNL     1      45.262   1.021   8.353  0.00  0.00    +0.000 F 
ATOM     22  C   UNL     1      45.491   3.333   8.826  0.00  0.00    +0.000 A 
ATOM     23  C   UNL     1      45.127   4.422   9.647  0.00  0.00    +0.000 A 
BRANCH  22  24
ATOM     24  C   UNL     1      46.394   3.540   7.646  0.00  0.00    +0.000 C 
ATOM     25  F   UNL     1      47.441   2.677   7.556  0.00  0.00    +0.000 F 
ATOM     26  F   UNL     1      45.724   3.424   6.463  0.00  0.00    +0.000 F 
ATOM     27  F   UNL     1      46.942   4.788   7.630  0.00  0.00    +0.000 F 
ENDBRANCH  22  24
ENDBRANCH   1  17
TORSDOF 4
ENDMDL
MODEL 5
REMARK VINA RESULT:    -6.438      3.330      5.399
REMARK INTER + INTRA:          -8.640
REMARK INTER:                  -8.513
REMARK INTRA:                  -0.127
REMARK UNBOUND:                -0.697
REMARK  Name = 
REMARK  4 active torsions:
REMARK  status: ('A' for Active; 'I' for Inactive)
REMARK    1  A    between atoms: C_2  and  C_4
REMARK    2  A    between atoms: N_8  and  C_9
REMARK    3  A    between atoms: C_9  and  C_10
REMARK    4  A    between atoms: C_15  and  C_16
REMARK                            x       y       z     vdW  Elec       q    Type
REMARK                         _______ _______ _______ _____ _____    ______ ____
ROOT
ATOM      1  C   UNL     1      48.605   7.578  12.798  0.00  0.00    +0.000 C 
ATOM      2  C   UNL     1      49.681   7.098  11.842  0.00  0.00    +0.000 C 
ATOM      3  C   UNL     1      49.441   8.563  11.992  0.00  0.00    +0.000 C 
ENDROOT
BRANCH   1   8
ATOM      4  C   UNL     1      47.919   4.513  16.847  0.00  0.00    +0.000 A 
ATOM      5  C   UNL     1      48.674   5.609  17.190  0.00  0.00    +0.000 A 
ATOM      6  N   UNL     1      48.947   6.626  16.343  0.00  0.00    +0.000 NA
ATOM      7  C   UNL     1      48.471   6.524  15.090  0.00  0.00    +0.000 A 
ATOM      8  N   UNL     1      48.824   7.562  14.239  0.00  0.00    +0.000 N 
ATOM      9  N   UNL     1      47.729   5.489  14.662  0.00  0.00    +0.000 NA
ATOM     10  C   UNL     1      47.477   4.495  15.546  0.00  0.00    +0.000 A 
ATOM     11  H   UNL     1      49.341   8.280  14.722  0.00  0.00    +0.000 HD
BRANCH   4  13
ATOM     12  N   UNL     1      48.409   3.274  18.872  0.00  0.00    +0.000 N 
ATOM     13  C   UNL     1      47.614   3.412  17.767  0.00  0.00    +0.000 C 
ATOM     14  O   UNL     1      46.663   2.668  17.570  0.00  0.00    +0.000 OA
ATOM     15  H   UNL     1      48.122   2.572  19.544  0.00  0.00    +0.000 HD
ATOM     16  H   UNL     1      49.029   3.999  19.205  0.00  0.00    +0.000 HD
ENDBRANCH   4  13
ENDBRANCH   1   8
BRANCH   1  17
ATOM     17  C   UNL     1      47.136   7.382  12.428  0.00  0.00    +0.000 A 
ATOM     18  C   UNL     1      46.180   8.349  12.786  0.00  0.00    +0.000 A 
ATOM     19  C   UNL     1      44.857   8.266  12.349  0.00  0.00    +0.000 A 
ATOM     20  C   UNL     1      44.458   7.201  11.553  0.00  0.00    +0.000 A 
ATOM     21  F   UNL     1      43.189   7.169  11.123  0.00  0.00    +0.000 F 
ATOM     22  C   UNL     1      45.352   6.201  11.194  0.00  0.00    +0.000 A 
ATOM     23  C   UNL     1      46.687   6.301  11.640  0.00  0.00    +0.000 A 
BRANCH  22  24
ATOM     24  C   UNL     1      44.924   5.048  10.335  0.00  0.00    +0.000 C 
ATOM     25  F   UNL     1      43.587   4.967  10.093  0.00  0.00    +0.000 F 
ATOM     26  F   UNL     1      45.514   5.081   9.105  0.00  0.00    +0.000 F 
ATOM     27  F   UNL     1      45.275   3.846  10.872  0.00  0.00    +0.000 F 
ENDBRANCH  22  24
ENDBRANCH   1  17
TORSDOF 4
ENDMDL
MODEL 6
REMARK VINA RESULT:    -6.341      2.475      3.420
REMARK INTER + INTRA:          -8.520
REMARK INTER:                  -8.044
REMARK INTRA:                  -0.476
REMARK UNBOUND:                -0.697
REMARK  Name = 
REMARK  4 active torsions:
REMARK  status: ('A' for Active; 'I' for Inactive)
REMARK    1  A    between atoms: C_2  and  C_4
REMARK    2  A    between atoms: N_8  and  C_9
REMARK    3  A    between atoms: C_9  and  C_10
REMARK    4  A    between atoms: C_15  and  C_16
REMARK                            x       y       z     vdW  Elec       q    Type
REMARK                         _______ _______ _______ _____ _____    ______ ____
ROOT
ATOM      1  C   UNL     1      45.041   5.994  11.996  0.00  0.00    +0.000 C 
ATOM      2  C   UNL     1      44.570   7.309  11.406  0.00  0.00    +0.000 C 
ATOM      3  C   UNL     1      43.737   6.639  12.447  0.00  0.00    +0.000 C 
ENDROOT
BRANCH   1   8
ATOM      4  C   UNL     1      49.775   7.829  12.691  0.00  0.00    +0.000 A 
ATOM      5  C   UNL     1      49.313   7.230  13.838  0.00  0.00    +0.000 A 
ATOM      6  N   UNL     1      48.127   6.588  13.924  0.00  0.00    +0.000 NA
ATOM      7  C   UNL     1      47.356   6.576  12.822  0.00  0.00    +0.000 A 
ATOM      8  N   UNL     1      46.123   5.957  12.972  0.00  0.00    +0.000 N 
ATOM      9  N   UNL     1      47.720   7.140  11.658  0.00  0.00    +0.000 NA
ATOM     10  C   UNL     1      48.920   7.767  11.617  0.00  0.00    +0.000 A 
ATOM     11  H   UNL     1      46.021   5.547  13.887  0.00  0.00    +0.000 HD
BRANCH   4  13
ATOM     12  N   UNL     1      52.127   7.804  12.105  0.00  0.00    +0.000 N 
ATOM     13  C   UNL     1      51.066   8.518  12.593  0.00  0.00    +0.000 C 
ATOM     14  O   UNL     1      51.181   9.695  12.905  0.00  0.00    +0.000 OA
ATOM     15  H   UNL     1      52.983   8.324  11.952  0.00  0.00    +0.000 HD
ATOM     16  H   UNL     1      52.027   6.931  11.606  0.00  0.00    +0.000 HD
ENDBRANCH   4  13
ENDBRANCH   1   8
BRANCH   1  17
ATOM     17  C   UNL     1      44.981   4.729  11.142  0.00  0.00    +0.000 A 
ATOM     18  C   UNL     1      44.176   3.646  11.537  0.00  0.00    +0.000 A 
ATOM     19  C   UNL     1      43.995   2.532  10.715  0.00  0.00    +0.000 A 
ATOM     20  C   UNL     1      44.630   2.472   9.482  0.00  0.00    +0.000 A 
ATOM     21  F   UNL     1      44.409   1.405   8.703  0.00  0.00    +0.000 F 
ATOM     22  C   UNL     1      45.461   3.500   9.054  0.00  0.00    +0.000 A 
ATOM     23  C   UNL     1      45.630   4.621   9.894  0.00  0.00    +0.000 A 
BRANCH  22  24
ATOM     24  C   UNL     1      46.148   3.439   7.722  0.00  0.00    +0.000 C 
ATOM     25  F   UNL     1      45.324   3.338   6.645  0.00  0.00    +0.000 F 
ATOM     26  F   UNL     1      46.915   4.544   7.491  0.00  0.00    +0.000 F 
ATOM     27  F   UNL     1      47.004   2.381   7.632  0.00  0.00    +0.000 F 
ENDBRANCH  22  24
ENDBRANCH   1  17
TORSDOF 4
ENDMDL
MODEL 7
REMARK VINA RESULT:    -6.213      3.605      5.425
REMARK INTER + INTRA:          -8.363
REMARK INTER:                  -7.838
REMARK INTRA:                  -0.524
REMARK UNBOUND:                -0.697
REMARK  Name = 
REMARK  4 active torsions:
REMARK  status: ('A' for Active; 'I' for Inactive)
REMARK    1  A    between atoms: C_2  and  C_4
REMARK    2  A    between atoms: N_8  and  C_9
REMARK    3  A    between atoms: C_9  and  C_10
REMARK    4  A    between atoms: C_15  and  C_16
REMARK                            x       y       z     vdW  Elec       q    Type
REMARK                         _______ _______ _______ _____ _____    ______ ____
ROOT
ATOM      1  C   UNL     1      48.107   7.436  13.286  0.00  0.00    +0.000 C 
ATOM      2  C   UNL     1      49.382   6.987  12.598  0.00  0.00    +0.000 C 
ATOM      3  C   UNL     1      48.851   8.354  12.325  0.00  0.00    +0.000 C 
ENDROOT
BRANCH   1   8
ATOM      4  C   UNL     1      48.844   5.384  17.923  0.00  0.00    +0.000 A 
ATOM      5  C   UNL     1      48.765   6.754  18.005  0.00  0.00    +0.000 A 
ATOM      6  N   UNL     1      48.494   7.554  16.950  0.00  0.00    +0.000 NA
ATOM      7  C   UNL     1      48.330   6.958  15.756  0.00  0.00    +0.000 A 
ATOM      8  N   UNL     1      48.111   7.821  14.692  0.00  0.00    +0.000 N 
ATOM      9  N   UNL     1      48.395   5.628  15.578  0.00  0.00    +0.000 NA
ATOM     10  C   UNL     1      48.663   4.865  16.664  0.00  0.00    +0.000 A 
ATOM     11  H   UNL     1      48.045   8.779  14.997  0.00  0.00    +0.000 HD
BRANCH   4  13
ATOM     12  N   UNL     1      48.431   3.340  19.158  0.00  0.00    +0.000 N 
ATOM     13  C   UNL     1      49.129   4.514  19.069  0.00  0.00    +0.000 C 
ATOM     14  O   UNL     1      49.981   4.812  19.894  0.00  0.00    +0.000 OA
ATOM     15  H   UNL     1      48.712   2.709  19.900  0.00  0.00    +0.000 HD
ATOM     16  H   UNL     1      47.917   2.939  18.387  0.00  0.00    +0.000 HD
ENDBRANCH   4  13
ENDBRANCH   1   8
BRANCH   1  17
ATOM     17  C   UNL     1      46.772   6.836  12.849  0.00  0.00    +0.000 A 
ATOM     18  C   UNL     1      45.743   7.668  12.373  0.00  0.00    +0.000 A 
ATOM     19  C   UNL     1      44.564   7.142  11.842  0.00  0.00    +0.000 A 
ATOM     20  C   UNL     1      44.384   5.766  11.789  0.00  0.00    +0.000 A 
ATOM     21  F   UNL     1      43.256   5.294  11.242  0.00  0.00    +0.000 F 
ATOM     22  C   UNL     1      45.354   4.898  12.271  0.00  0.00    +0.000 A 
ATOM     23  C   UNL     1      46.542   5.445  12.801  0.00  0.00    +0.000 A 
BRANCH  22  24
ATOM     24  C   UNL     1      45.162   3.411  12.215  0.00  0.00    +0.000 C 
ATOM     25  F   UNL     1      43.979   2.958  12.711  0.00  0.00    +0.000 F 
ATOM     26  F   UNL     1      45.227   2.935  10.938  0.00  0.00    +0.000 F 
ATOM     27  F   UNL     1      46.130   2.740  12.900  0.00  0.00    +0.000 F 
ENDBRANCH  22  24
ENDBRANCH   1  17
TORSDOF 4
ENDMDL
MODEL 8
REMARK VINA RESULT:    -5.955      5.845      8.719
REMARK INTER + INTRA:          -8.044
REMARK INTER:                  -7.499
REMARK INTRA:                  -0.545
REMARK UNBOUND:                -0.697
REMARK  Name = 
REMARK  4 active torsions:
REMARK  status: ('A' for Active; 'I' for Inactive)
REMARK    1  A    between atoms: C_2  and  C_4
REMARK    2  A    between atoms: N_8  and  C_9
REMARK    3  A    between atoms: C_9  and  C_10
REMARK    4  A    between atoms: C_15  and  C_16
REMARK                            x       y       z     vdW  Elec       q    Type
REMARK                         _______ _______ _______ _____ _____    ______ ____
ROOT
ATOM      1  C   UNL     1      48.294   5.198  17.254  0.00  0.00    +0.000 C 
ATOM      2  C   UNL     1      46.975   5.130  18.001  0.00  0.00    +0.000 C 
ATOM      3  C   UNL     1      48.036   6.062  18.482  0.00  0.00    +0.000 C 
ENDROOT
BRANCH   1   8
ATOM      4  C   UNL     1      46.100   5.252  12.623  0.00  0.00    +0.000 A 
ATOM      5  C   UNL     1      46.958   6.316  12.767  0.00  0.00    +0.000 A 
ATOM      6  N   UNL     1      47.735   6.512  13.855  0.00  0.00    +0.000 NA
ATOM      7  C   UNL     1      47.622   5.622  14.856  0.00  0.00    +0.000 A 
ATOM      8  N   UNL     1      48.395   5.893  15.976  0.00  0.00    +0.000 N 
ATOM      9  N   UNL     1      46.807   4.554  14.809  0.00  0.00    +0.000 NA
ATOM     10  C   UNL     1      46.052   4.395  13.696  0.00  0.00    +0.000 A 
ATOM     11  H   UNL     1      48.982   6.700  15.838  0.00  0.00    +0.000 HD
BRANCH   4  13
ATOM     12  N   UNL     1      44.892   6.133  10.716  0.00  0.00    +0.000 N 
ATOM     13  C   UNL     1      45.263   5.032  11.439  0.00  0.00    +0.000 C 
ATOM     14  O   UNL     1      44.940   3.905  11.093  0.00  0.00    +0.000 OA
ATOM     15  H   UNL     1      44.399   5.953   9.849  0.00  0.00    +0.000 HD
ATOM     16  H   UNL     1      45.335   7.036  10.810  0.00  0.00    +0.000 HD
ENDBRANCH   4  13
ENDBRANCH   1   8
BRANCH   1  17
ATOM     17  C   UNL     1      49.276   4.034  17.365  0.00  0.00    +0.000 A 
ATOM     18  C   UNL     1      48.898   2.747  16.944  0.00  0.00    +0.000 A 
ATOM     19  C   UNL     1      49.812   1.692  16.906  0.00  0.00    +0.000 A 
ATOM     20  C   UNL     1      51.125   1.901  17.305  0.00  0.00    +0.000 A 
ATOM     21  F   UNL     1      51.985   0.877  17.225  0.00  0.00    +0.000 F 
ATOM     22  C   UNL     1      51.547   3.145  17.758  0.00  0.00    +0.000 A 
ATOM     23  C   UNL     1      50.612   4.202  17.785  0.00  0.00    +0.000 A 
BRANCH  22  24
ATOM     24  C   UNL     1      52.965   3.375  18.189  0.00  0.00    +0.000 C 
ATOM     25  F   UNL     1      53.915   2.991  17.293  0.00  0.00    +0.000 F 
ATOM     26  F   UNL     1      53.215   4.692  18.442  0.00  0.00    +0.000 F 
ATOM     27  F   UNL     1      53.264   2.721  19.347  0.00  0.00    +0.000 F 
ENDBRANCH  22  24
ENDBRANCH   1  17
TORSDOF 4
ENDMDL
MODEL 9
REMARK VINA RESULT:    -5.896      4.879      7.918
REMARK INTER + INTRA:          -7.972
REMARK INTER:                  -7.865
REMARK INTRA:                  -0.107
REMARK UNBOUND:                -0.697
REMARK  Name = 
REMARK  4 active torsions:
REMARK  status: ('A' for Active; 'I' for Inactive)
REMARK    1  A    between atoms: C_2  and  C_4
REMARK    2  A    between atoms: N_8  and  C_9
REMARK    3  A    between atoms: C_9  and  C_10
REMARK    4  A    between atoms: C_15  and  C_16
REMARK                            x       y       z     vdW  Elec       q    Type
REMARK                         _______ _______ _______ _____ _____    ______ ____
ROOT
ATOM      1  C   UNL     1      48.354   7.622  13.994  0.00  0.00    +0.000 C 
ATOM      2  C   UNL     1      49.433   8.623  13.629  0.00  0.00    +0.000 C 
ATOM      3  C   UNL     1      49.343   7.342  12.870  0.00  0.00    +0.000 C 
ENDROOT
BRANCH   1   8
ATOM      4  C   UNL     1      44.608   5.350  11.336  0.00  0.00    +0.000 A 
ATOM      5  C   UNL     1      44.126   6.441  12.018  0.00  0.00    +0.000 A 
ATOM      6  N   UNL     1      44.904   7.279  12.739  0.00  0.00    +0.000 NA
ATOM      7  C   UNL     1      46.216   6.990  12.806  0.00  0.00    +0.000 A 
ATOM      8  N   UNL     1      46.966   7.842  13.603  0.00  0.00    +0.000 N 
ATOM      9  N   UNL     1      46.776   5.943  12.178  0.00  0.00    +0.000 NA
ATOM     10  C   UNL     1      45.958   5.134  11.463  0.00  0.00    +0.000 A 
ATOM     11  H   UNL     1      46.410   8.601  13.966  0.00  0.00    +0.000 HD
BRANCH   4  13
ATOM     12  N   UNL     1      43.890   4.497   9.183  0.00  0.00    +0.000 N 
ATOM     13  C   UNL     1      43.766   4.446  10.545  0.00  0.00    +0.000 C 
ATOM     14  O   UNL     1      43.007   3.653  11.085  0.00  0.00    +0.000 OA
ATOM     15  H   UNL     1      43.375   3.798   8.661  0.00  0.00    +0.000 HD
ATOM     16  H   UNL     1      44.667   4.939   8.712  0.00  0.00    +0.000 HD
ENDBRANCH   4  13
ENDBRANCH   1   8
BRANCH   1  17
ATOM     17  C   UNL     1      48.475   6.834  15.296  0.00  0.00    +0.000 A 
ATOM     18  C   UNL     1      48.760   7.499  16.502  0.00  0.00    +0.000 A 
ATOM     19  C   UNL     1      48.745   6.829  17.727  0.00  0.00    +0.000 A 
ATOM     20  C   UNL     1      48.459   5.471  17.769  0.00  0.00    +0.000 A 
ATOM     21  F   UNL     1      48.420   4.866  18.964  0.00  0.00    +0.000 F 
ATOM     22  C   UNL     1      48.200   4.758  16.606  0.00  0.00    +0.000 A 
ATOM     23  C   UNL     1      48.213   5.450  15.376  0.00  0.00    +0.000 A 
BRANCH  22  24
ATOM     24  C   UNL     1      47.889   3.291  16.648  0.00  0.00    +0.000 C 
ATOM     25  F   UNL     1      48.847   2.509  17.217  0.00  0.00    +0.000 F 
ATOM     26  F   UNL     1      46.746   3.030  17.346  0.00  0.00    +0.000 F 
ATOM     27  F   UNL     1      47.681   2.773  15.405  0.00  0.00    +0.000 F 
ENDBRANCH  22  24
ENDBRANCH   1  17
TORSDOF 4
ENDMDL
