MODEL 1
REMARK VINA RESULT:    -8.080      0.000      0.000
REMARK INTER + INTRA:         -13.472
REMARK INTER:                 -12.568
REMARK INTRA:                  -0.904
REMARK UNBOUND:                -0.904
REMARK  Name = 
REMARK  10 active torsions:
REMARK  status: ('A' for Active; 'I' for Inactive)
REMARK    1  A    between atoms: N_1  and  C_2
REMARK    2  A    between atoms: C_2  and  C_3
REMARK    3  A    between atoms: C_3  and  N_4
REMARK    4  A    between atoms: C_3  and  C_20
REMARK    5  A    between atoms: N_4  and  C_5
REMARK    6  A    between atoms: C_5  and  C_6
REMARK    7  A    between atoms: C_9  and  C_10
REMARK    8  A    between atoms: C_10  and  N_11
REMARK    9  A    between atoms: N_11  and  C_12
REMARK   10  A    between atoms: C_12  and  C_13
REMARK                            x       y       z     vdW  Elec       q    Type
REMARK                         _______ _______ _______ _____ _____    ______ ____
ROOT
ATOM      1  N   UNL     1      48.273   4.682  15.632  0.00  0.00    +0.000 NA
ATOM      2  H   UNL     1      49.217   4.433  15.343  0.00  0.00    +0.000 HD
ENDROOT
BRANCH   1   3
ATOM      3  C   UNL     1      48.290   5.120  17.036  0.00  0.00    +0.000 C 
BRANCH   3   4
ATOM      4  C   UNL     1      49.696   4.881  17.566  0.00  0.00    +0.000 A 
ATOM      5  C   UNL     1      50.509   5.842  18.153  0.00  0.00    +0.000 A 
ATOM      6  S   UNL     1      52.043   5.245  18.608  0.00  0.00    +0.000 S 
ATOM      7  C   UNL     1      51.681   3.691  18.016  0.00  0.00    +0.000 A 
ATOM      8  N   UNL     1      52.591   2.681  18.077  0.00  0.00    +0.000 NA
ATOM      9  C   UNL     1      52.179   1.568  17.566  0.00  0.00    +0.000 A 
ATOM     10  N   UNL     1      50.940   1.366  17.013  0.00  0.00    +0.000 N 
ATOM     11  C   UNL     1      49.976   2.348  16.948  0.00  0.00    +0.000 A 
ATOM     12  O   UNL     1      48.863   2.121  16.481  0.00  0.00    +0.000 OA
ATOM     13  C   UNL     1      50.402   3.625  17.494  0.00  0.00    +0.000 A 
ATOM     14  H   UNL     1      50.681   0.467  16.639  0.00  0.00    +0.000 HD
ENDBRANCH   3   4
BRANCH   3  15
ATOM     15  C   UNL     1      47.219   4.397  17.919  0.00  0.00    +0.000 C 
BRANCH  15  16
ATOM     16  N   UNL     1      46.464   3.336  17.238  0.00  0.00    +0.000 NA
ATOM     17  H   UNL     1      46.921   3.120  16.355  0.00  0.00    +0.000 HD
ATOM     18  H   UNL     1      45.528   3.683  17.014  0.00  0.00    +0.000 HD
ENDBRANCH  15  16
ENDBRANCH   3  15
ENDBRANCH   1   3
BRANCH   1  19
ATOM     19  C   UNL     1      47.742   5.686  14.709  0.00  0.00    +0.000 C 
BRANCH  19  20
ATOM     20  C   UNL     1      46.877   5.075  13.624  0.00  0.00    +0.000 A 
ATOM     21  C   UNL     1      46.473   5.837  12.532  0.00  0.00    +0.000 A 
ATOM     22  C   UNL     1      45.622   5.259  11.593  0.00  0.00    +0.000 A 
ATOM     23  C   UNL     1      45.201   3.937  11.753  0.00  0.00    +0.000 A 
ATOM     24  C   UNL     1      45.664   3.253  12.869  0.00  0.00    +0.000 A 
ATOM     25  N   UNL     1      46.476   3.790  13.801  0.00  0.00    +0.000 NA
BRANCH  23  26
ATOM     26  C   UNL     1      44.264   3.282  10.778  0.00  0.00    +0.000 C 
BRANCH  26  27
ATOM     27  N   UNL     1      44.995   2.419   9.853  0.00  0.00    +0.000 NA
ATOM     28  H   UNL     1      44.519   1.516   9.807  0.00  0.00    +0.000 HD
BRANCH  27  29
ATOM     29  C   UNL     1      45.018   2.993   8.514  0.00  0.00    +0.000 C 
BRANCH  29  30
ATOM     30  C   UNL     1      46.221   2.494   7.813  0.00  0.00    +0.000 A 
ATOM     31  C   UNL     1      46.771   1.239   7.682  0.00  0.00    +0.000 A 
ATOM     32  N   UNL     1      47.915   1.282   6.928  0.00  0.00    +0.000 NA
ATOM     33  C   UNL     1      48.071   2.545   6.608  0.00  0.00    +0.000 A 
ATOM     34  N   UNL     1      47.072   3.318   7.117  0.00  0.00    +0.000 N 
ATOM     35  H   UNL     1      46.982   4.323   7.040  0.00  0.00    +0.000 HD
ENDBRANCH  29  30
ENDBRANCH  27  29
ENDBRANCH  26  27
ENDBRANCH  23  26
ENDBRANCH  19  20
ENDBRANCH   1  19
TORSDOF 10
ENDMDL
MODEL 2
REMARK VINA RESULT:    -7.766      2.167      3.115
REMARK INTER + INTRA:         -12.984
REMARK INTER:                 -11.609
REMARK INTRA:                  -1.375
REMARK UNBOUND:                -0.904
REMARK  Name = 
REMARK  10 active torsions:
REMARK  status: ('A' for Active; 'I' for Inactive)
REMARK    1  A    between atoms: N_1  and  C_2
REMARK    2  A    between atoms: C_2  and  C_3
REMARK    3  A    between atoms: C_3  and  N_4
REMARK    4  A    between atoms: C_3  and  C_20
REMARK    5  A    between atoms: N_4  and  C_5
REMARK    6  A    between atoms: C_5  and  C_6
REMARK    7  A    between atoms: C_9  and  C_10
REMARK    8  A    between atoms: C_10  and  N_11
REMARK    9  A    between atoms: N_11  and  C_12
REMARK   10  A    between atoms: C_12  and  C_13
REMARK                            x       y       z     vdW  Elec       q    Type
REMARK                         _______ _______ _______ _____ _____    ______ ____
ROOT
ATOM      1  N   UNL     1      47.204   7.616  14.367  0.00  0.00    +0.000 NA
ATOM      2  H   UNL     1      46.499   7.083  14.875  0.00  0.00    +0.000 HD
ENDROOT
BRANCH   1   3
ATOM      3  C   UNL     1      48.399   6.781  14.169  0.00  0.00    +0.000 C 
BRANCH   3   4
ATOM      4  C   UNL     1      48.857   6.315  15.544  0.00  0.00    +0.000 A 
ATOM      5  C   UNL     1      49.879   6.889  16.289  0.00  0.00    +0.000 A 
ATOM      6  S   UNL     1      50.157   6.099  17.778  0.00  0.00    +0.000 S 
ATOM      7  C   UNL     1      48.939   4.952  17.466  0.00  0.00    +0.000 A 
ATOM      8  N   UNL     1      48.664   3.955  18.349  0.00  0.00    +0.000 NA
ATOM      9  C   UNL     1      47.731   3.149  17.962  0.00  0.00    +0.000 A 
ATOM     10  N   UNL     1      47.037   3.255  16.783  0.00  0.00    +0.000 N 
ATOM     11  C   UNL     1      47.261   4.260  15.868  0.00  0.00    +0.000 A 
ATOM     12  O   UNL     1      46.594   4.347  14.840  0.00  0.00    +0.000 OA
ATOM     13  C   UNL     1      48.318   5.179  16.252  0.00  0.00    +0.000 A 
ATOM     14  H   UNL     1      46.313   2.595  16.548  0.00  0.00    +0.000 HD
ENDBRANCH   3   4
BRANCH   3  15
ATOM     15  C   UNL     1      49.549   7.525  13.410  0.00  0.00    +0.000 C 
BRANCH  15  16
ATOM     16  N   UNL     1      49.814   7.035  12.050  0.00  0.00    +0.000 NA
ATOM     17  H   UNL     1      50.414   6.214  12.105  0.00  0.00    +0.000 HD
ATOM     18  H   UNL     1      50.333   7.750  11.533  0.00  0.00    +0.000 HD
ENDBRANCH  15  16
ENDBRANCH   3  15
ENDBRANCH   1   3
BRANCH   1  19
ATOM     19  C   UNL     1      46.619   8.111  13.120  0.00  0.00    +0.000 C 
BRANCH  19  20
ATOM     20  C   UNL     1      45.912   7.021  12.340  0.00  0.00    +0.000 A 
ATOM     21  C   UNL     1      44.748   6.440  12.836  0.00  0.00    +0.000 A 
ATOM     22  C   UNL     1      44.166   5.395  12.124  0.00  0.00    +0.000 A 
ATOM     23  C   UNL     1      44.746   4.956  10.931  0.00  0.00    +0.000 A 
ATOM     24  C   UNL     1      45.900   5.602  10.509  0.00  0.00    +0.000 A 
ATOM     25  N   UNL     1      46.493   6.607  11.185  0.00  0.00    +0.000 NA
BRANCH  23  26
ATOM     26  C   UNL     1      44.166   3.815  10.143  0.00  0.00    +0.000 C 
BRANCH  26  27
ATOM     27  N   UNL     1      45.078   2.674  10.133  0.00  0.00    +0.000 NA
ATOM     28  H   UNL     1      44.920   2.125  10.980  0.00  0.00    +0.000 HD
BRANCH  27  29
ATOM     29  C   UNL     1      44.826   1.818   8.980  0.00  0.00    +0.000 C 
BRANCH  29  30
ATOM     30  C   UNL     1      46.039   1.808   8.133  0.00  0.00    +0.000 A 
ATOM     31  C   UNL     1      46.851   0.793   7.680  0.00  0.00    +0.000 A 
ATOM     32  N   UNL     1      47.875   1.290   6.916  0.00  0.00    +0.000 NA
ATOM     33  C   UNL     1      47.701   2.590   6.907  0.00  0.00    +0.000 A 
ATOM     34  N   UNL     1      46.603   2.953   7.627  0.00  0.00    +0.000 N 
ATOM     35  H   UNL     1      46.275   3.894   7.800  0.00  0.00    +0.000 HD
ENDBRANCH  29  30
ENDBRANCH  27  29
ENDBRANCH  26  27
ENDBRANCH  23  26
ENDBRANCH  19  20
ENDBRANCH   1  19
TORSDOF 10
ENDMDL
MODEL 3
REMARK VINA RESULT:    -7.023      1.943      2.700
REMARK INTER + INTRA:         -11.827
REMARK INTER:                 -11.059
REMARK INTRA:                  -0.768
REMARK UNBOUND:                -0.904
REMARK  Name = 
REMARK  10 active torsions:
REMARK  status: ('A' for Active; 'I' for Inactive)
REMARK    1  A    between atoms: N_1  and  C_2
REMARK    2  A    between atoms: C_2  and  C_3
REMARK    3  A    between atoms: C_3  and  N_4
REMARK    4  A    between atoms: C_3  and  C_20
REMARK    5  A    between atoms: N_4  and  C_5
REMARK    6  A    between atoms: C_5  and  C_6
REMARK    7  A    between atoms: C_9  and  C_10
REMARK    8  A    between atoms: C_10  and  N_11
REMARK    9  A    between atoms: N_11  and  C_12
REMARK   10  A    between atoms: C_12  and  C_13
REMARK                            x       y       z     vdW  Elec       q    Type
REMARK                         _______ _______ _______ _____ _____    ______ ____
ROOT
ATOM      1  N   UNL     1      47.602   6.469  14.660  0.00  0.00    +0.000 NA
ATOM      2  H   UNL     1      47.342   5.488  14.746  0.00  0.00    +0.000 HD
ENDROOT
BRANCH   1   3
ATOM      3  C   UNL     1      49.033   6.626  14.965  0.00  0.00    +0.000 C 
BRANCH   3   4
ATOM      4  C   UNL     1      49.162   6.736  16.478  0.00  0.00    +0.000 A 
ATOM      5  C   UNL     1      49.529   7.880  17.173  0.00  0.00    +0.000 A 
ATOM      6  S   UNL     1      49.609   7.650  18.863  0.00  0.00    +0.000 S 
ATOM      7  C   UNL     1      49.178   6.009  18.721  0.00  0.00    +0.000 A 
ATOM      8  N   UNL     1      49.082   5.206  19.815  0.00  0.00    +0.000 NA
ATOM      9  C   UNL     1      48.770   3.982  19.544  0.00  0.00    +0.000 A 
ATOM     10  N   UNL     1      48.532   3.489  18.286  0.00  0.00    +0.000 N 
ATOM     11  C   UNL     1      48.593   4.266  17.151  0.00  0.00    +0.000 A 
ATOM     12  O   UNL     1      48.335   3.800  16.044  0.00  0.00    +0.000 OA
ATOM     13  C   UNL     1      48.960   5.648  17.404  0.00  0.00    +0.000 A 
ATOM     14  H   UNL     1      48.283   2.522  18.148  0.00  0.00    +0.000 HD
ENDBRANCH   3   4
BRANCH   3  15
ATOM     15  C   UNL     1      49.683   7.856  14.249  0.00  0.00    +0.000 C 
BRANCH  15  16
ATOM     16  N   UNL     1      51.112   7.713  13.940  0.00  0.00    +0.000 NA
ATOM     17  H   UNL     1      51.332   6.723  13.843  0.00  0.00    +0.000 HD
ATOM     18  H   UNL     1      51.661   8.066  14.728  0.00  0.00    +0.000 HD
ENDBRANCH  15  16
ENDBRANCH   3  15
ENDBRANCH   1   3
BRANCH   1  19
ATOM     19  C   UNL     1      47.230   6.945  13.327  0.00  0.00    +0.000 C 
BRANCH  19  20
ATOM     20  C   UNL     1      46.446   5.913  12.542  0.00  0.00    +0.000 A 
ATOM     21  C   UNL     1      45.847   6.251  11.332  0.00  0.00    +0.000 A 
ATOM     22  C   UNL     1      45.078   5.293  10.676  0.00  0.00    +0.000 A 
ATOM     23  C   UNL     1      44.928   4.019  11.230  0.00  0.00    +0.000 A 
ATOM     24  C   UNL     1      45.571   3.771  12.435  0.00  0.00    +0.000 A 
ATOM     25  N   UNL     1      46.310   4.682  13.099  0.00  0.00    +0.000 NA
BRANCH  23  26
ATOM     26  C   UNL     1      44.088   2.964  10.570  0.00  0.00    +0.000 C 
BRANCH  26  27
ATOM     27  N   UNL     1      44.867   2.220   9.583  0.00  0.00    +0.000 NA
ATOM     28  H   UNL     1      44.349   1.376   9.331  0.00  0.00    +0.000 HD
BRANCH  27  29
ATOM     29  C   UNL     1      45.067   3.010   8.376  0.00  0.00    +0.000 C 
BRANCH  29  30
ATOM     30  C   UNL     1      46.269   2.501   7.679  0.00  0.00    +0.000 A 
ATOM     31  C   UNL     1      46.863   1.260   7.631  0.00  0.00    +0.000 A 
ATOM     32  N   UNL     1      47.983   1.284   6.841  0.00  0.00    +0.000 NA
ATOM     33  C   UNL     1      48.081   2.522   6.417  0.00  0.00    +0.000 A 
ATOM     34  N   UNL     1      47.068   3.296   6.894  0.00  0.00    +0.000 N 
ATOM     35  H   UNL     1      46.937   4.288   6.741  0.00  0.00    +0.000 HD
ENDBRANCH  29  30
ENDBRANCH  27  29
ENDBRANCH  26  27
ENDBRANCH  23  26
ENDBRANCH  19  20
ENDBRANCH   1  19
TORSDOF 10
ENDMDL
MODEL 4
REMARK VINA RESULT:    -7.011      1.679      2.380
REMARK INTER + INTRA:         -11.809
REMARK INTER:                 -10.689
REMARK INTRA:                  -1.120
REMARK UNBOUND:                -0.904
REMARK  Name = 
REMARK  10 active torsions:
REMARK  status: ('A' for Active; 'I' for Inactive)
REMARK    1  A    between atoms: N_1  and  C_2
REMARK    2  A    between atoms: C_2  and  C_3
REMARK    3  A    between atoms: C_3  and  N_4
REMARK    4  A    between atoms: C_3  and  C_20
REMARK    5  A    between atoms: N_4  and  C_5
REMARK    6  A    between atoms: C_5  and  C_6
REMARK    7  A    between atoms: C_9  and  C_10
REMARK    8  A    between atoms: C_10  and  N_11
REMARK    9  A    between atoms: N_11  and  C_12
REMARK   10  A    between atoms: C_12  and  C_13
REMARK                            x       y       z     vdW  Elec       q    Type
REMARK                         _______ _______ _______ _____ _____    ______ ____
ROOT
ATOM      1  N   UNL     1      49.508   5.580  16.088  0.00  0.00    +0.000 NA
ATOM      2  H   UNL     1      50.361   5.131  15.758  0.00  0.00    +0.000 HD
ENDROOT
BRANCH   1   3
ATOM      3  C   UNL     1      49.593   5.783  17.543  0.00  0.00    +0.000 C 
BRANCH   3   4
ATOM      4  C   UNL     1      50.806   5.007  18.036  0.00  0.00    +0.000 A 
ATOM      5  C   UNL     1      51.876   5.546  18.737  0.00  0.00    +0.000 A 
ATOM      6  S   UNL     1      53.087   4.402  19.110  0.00  0.00    +0.000 S 
ATOM      7  C   UNL     1      52.234   3.154  18.328  0.00  0.00    +0.000 A 
ATOM      8  N   UNL     1      52.734   1.890  18.260  0.00  0.00    +0.000 NA
ATOM      9  C   UNL     1      51.983   1.060  17.614  0.00  0.00    +0.000 A 
ATOM     10  N   UNL     1      50.775   1.371  17.043  0.00  0.00    +0.000 N 
ATOM     11  C   UNL     1      50.216   2.628  17.104  0.00  0.00    +0.000 A 
ATOM     12  O   UNL     1      49.114   2.860  16.614  0.00  0.00    +0.000 OA
ATOM     13  C   UNL     1      51.035   3.601  17.805  0.00  0.00    +0.000 A 
ATOM     14  H   UNL     1      50.236   0.669  16.560  0.00  0.00    +0.000 HD
ENDBRANCH   3   4
BRANCH   3  15
ATOM     15  C   UNL     1      48.294   5.350  18.301  0.00  0.00    +0.000 C 
BRANCH  15  16
ATOM     16  N   UNL     1      47.173   4.953  17.439  0.00  0.00    +0.000 NA
ATOM     17  H   UNL     1      46.644   5.783  17.181  0.00  0.00    +0.000 HD
ATOM     18  H   UNL     1      46.542   4.348  17.970  0.00  0.00    +0.000 HD
ENDBRANCH  15  16
ENDBRANCH   3  15
ENDBRANCH   1   3
BRANCH   1  19
ATOM     19  C   UNL     1      49.298   6.817  15.333  0.00  0.00    +0.000 C 
BRANCH  19  20
ATOM     20  C   UNL     1      48.155   6.704  14.345  0.00  0.00    +0.000 A 
ATOM     21  C   UNL     1      47.740   7.814  13.615  0.00  0.00    +0.000 A 
ATOM     22  C   UNL     1      46.643   7.686  12.768  0.00  0.00    +0.000 A 
ATOM     23  C   UNL     1      45.987   6.457  12.656  0.00  0.00    +0.000 A 
ATOM     24  C   UNL     1      46.479   5.403  13.415  0.00  0.00    +0.000 A 
ATOM     25  N   UNL     1      47.530   5.502  14.254  0.00  0.00    +0.000 NA
BRANCH  23  26
ATOM     26  C   UNL     1      44.784   6.280  11.775  0.00  0.00    +0.000 C 
BRANCH  26  27
ATOM     27  N   UNL     1      43.976   5.147  12.219  0.00  0.00    +0.000 NA
ATOM     28  H   UNL     1      43.392   5.452  13.000  0.00  0.00    +0.000 HD
BRANCH  27  29
ATOM     29  C   UNL     1      43.101   4.682  11.150  0.00  0.00    +0.000 C 
BRANCH  29  30
ATOM     30  C   UNL     1      43.925   3.970  10.149  0.00  0.00    +0.000 A 
ATOM     31  C   UNL     1      44.667   2.812  10.206  0.00  0.00    +0.000 A 
ATOM     32  N   UNL     1      45.270   2.558   9.001  0.00  0.00    +0.000 NA
ATOM     33  C   UNL     1      44.913   3.550   8.220  0.00  0.00    +0.000 A 
ATOM     34  N   UNL     1      44.098   4.428   8.866  0.00  0.00    +0.000 N 
ATOM     35  H   UNL     1      43.716   5.289   8.494  0.00  0.00    +0.000 HD
ENDBRANCH  29  30
ENDBRANCH  27  29
ENDBRANCH  26  27
ENDBRANCH  23  26
ENDBRANCH  19  20
ENDBRANCH   1  19
TORSDOF 10
ENDMDL
MODEL 5
REMARK VINA RESULT:    -6.796      3.677      8.430
REMARK INTER + INTRA:         -11.474
REMARK INTER:                  -9.829
REMARK INTRA:                  -1.645
REMARK UNBOUND:                -0.904
REMARK  Name = 
REMARK  10 active torsions:
REMARK  status: ('A' for Active; 'I' for Inactive)
REMARK    1  A    between atoms: N_1  and  C_2
REMARK    2  A    between atoms: C_2  and  C_3
REMARK    3  A    between atoms: C_3  and  N_4
REMARK    4  A    between atoms: C_3  and  C_20
REMARK    5  A    between atoms: N_4  and  C_5
REMARK    6  A    between atoms: C_5  and  C_6
REMARK    7  A    between atoms: C_9  and  C_10
REMARK    8  A    between atoms: C_10  and  N_11
REMARK    9  A    between atoms: N_11  and  C_12
REMARK   10  A    between atoms: C_12  and  C_13
REMARK                            x       y       z     vdW  Elec       q    Type
REMARK                         _______ _______ _______ _____ _____    ______ ____
ROOT
ATOM      1  N   UNL     1      47.717   7.093  11.379  0.00  0.00    +0.000 NA
ATOM      2  H   UNL     1      48.270   6.287  11.665  0.00  0.00    +0.000 HD
ENDROOT
BRANCH   1   3
ATOM      3  C   UNL     1      46.319   6.901  11.795  0.00  0.00    +0.000 C 
BRANCH   3   4
ATOM      4  C   UNL     1      45.748   5.772  10.950  0.00  0.00    +0.000 A 
ATOM      5  C   UNL     1      45.901   5.640   9.576  0.00  0.00    +0.000 A 
ATOM      6  S   UNL     1      45.103   4.272   8.934  0.00  0.00    +0.000 S 
ATOM      7  C   UNL     1      44.509   3.825  10.466  0.00  0.00    +0.000 A 
ATOM      8  N   UNL     1      43.718   2.730  10.625  0.00  0.00    +0.000 NA
ATOM      9  C   UNL     1      43.326   2.534  11.841  0.00  0.00    +0.000 A 
ATOM     10  N   UNL     1      43.662   3.322  12.913  0.00  0.00    +0.000 N 
ATOM     11  C   UNL     1      44.478   4.427  12.808  0.00  0.00    +0.000 A 
ATOM     12  O   UNL     1      44.789   5.086  13.796  0.00  0.00    +0.000 OA
ATOM     13  C   UNL     1      44.927   4.697  11.453  0.00  0.00    +0.000 A 
ATOM     14  H   UNL     1      43.327   3.105  13.838  0.00  0.00    +0.000 HD
ENDBRANCH   3   4
BRANCH   3  15
ATOM     15  C   UNL     1      45.455   8.200  11.667  0.00  0.00    +0.000 C 
BRANCH  15  16
ATOM     16  N   UNL     1      45.009   8.779  12.942  0.00  0.00    +0.000 NA
ATOM     17  H   UNL     1      45.249   9.768  12.958  0.00  0.00    +0.000 HD
ATOM     18  H   UNL     1      45.520   8.334  13.708  0.00  0.00    +0.000 HD
ENDBRANCH  15  16
ENDBRANCH   3  15
ENDBRANCH   1   3
BRANCH   1  19
ATOM     19  C   UNL     1      48.330   8.307  11.922  0.00  0.00    +0.000 C 
BRANCH  19  20
ATOM     20  C   UNL     1      48.583   8.210  13.413  0.00  0.00    +0.000 A 
ATOM     21  C   UNL     1      49.387   7.197  13.928  0.00  0.00    +0.000 A 
ATOM     22  C   UNL     1      49.539   7.101  15.308  0.00  0.00    +0.000 A 
ATOM     23  C   UNL     1      48.900   8.018  16.146  0.00  0.00    +0.000 A 
ATOM     24  C   UNL     1      48.127   9.001  15.541  0.00  0.00    +0.000 A 
ATOM     25  N   UNL     1      47.951   9.109  14.209  0.00  0.00    +0.000 NA
BRANCH  23  26
ATOM     26  C   UNL     1      49.016   7.937  17.642  0.00  0.00    +0.000 C 
BRANCH  26  27
ATOM     27  N   UNL     1      47.887   7.206  18.212  0.00  0.00    +0.000 NA
ATOM     28  H   UNL     1      47.229   6.988  17.462  0.00  0.00    +0.000 HD
BRANCH  27  29
ATOM     29  C   UNL     1      48.329   5.952  18.809  0.00  0.00    +0.000 C 
BRANCH  29  30
ATOM     30  C   UNL     1      48.234   4.889  17.785  0.00  0.00    +0.000 A 
ATOM     31  C   UNL     1      49.033   3.808  17.486  0.00  0.00    +0.000 A 
ATOM     32  N   UNL     1      48.525   3.103  16.426  0.00  0.00    +0.000 NA
ATOM     33  C   UNL     1      47.436   3.744  16.074  0.00  0.00    +0.000 A 
ATOM     34  N   UNL     1      47.216   4.829  16.865  0.00  0.00    +0.000 N 
ATOM     35  H   UNL     1      46.466   5.503  16.778  0.00  0.00    +0.000 HD
ENDBRANCH  29  30
ENDBRANCH  27  29
ENDBRANCH  26  27
ENDBRANCH  23  26
ENDBRANCH  19  20
ENDBRANCH   1  19
TORSDOF 10
ENDMDL
MODEL 6
REMARK VINA RESULT:    -6.694      2.387      3.345
REMARK INTER + INTRA:         -11.317
REMARK INTER:                 -10.235
REMARK INTRA:                  -1.081
REMARK UNBOUND:                -0.904
REMARK  Name = 
REMARK  10 active torsions:
REMARK  status: ('A' for Active; 'I' for Inactive)
REMARK    1  A    between atoms: N_1  and  C_2
REMARK    2  A    between atoms: C_2  and  C_3
REMARK    3  A    between atoms: C_3  and  N_4
REMARK    4  A    between atoms: C_3  and  C_20
REMARK    5  A    between atoms: N_4  and  C_5
REMARK    6  A    between atoms: C_5  and  C_6
REMARK    7  A    between atoms: C_9  and  C_10
REMARK    8  A    between atoms: C_10  and  N_11
REMARK    9  A    between atoms: N_11  and  C_12
REMARK   10  A    between atoms: C_12  and  C_13
REMARK                            x       y       z     vdW  Elec       q    Type
REMARK                         _______ _______ _______ _____ _____    ______ ____
ROOT
ATOM      1  N   UNL     1      48.209   7.672  14.871  0.00  0.00    +0.000 NA
ATOM      2  H   UNL     1      47.298   7.607  15.323  0.00  0.00    +0.000 HD
ENDROOT
BRANCH   1   3
ATOM      3  C   UNL     1      49.192   6.887  15.635  0.00  0.00    +0.000 C 
BRANCH   3   4
ATOM      4  C   UNL     1      48.801   6.982  17.103  0.00  0.00    +0.000 A 
ATOM      5  C   UNL     1      48.433   8.146  17.764  0.00  0.00    +0.000 A 
ATOM      6  S   UNL     1      48.086   7.905  19.419  0.00  0.00    +0.000 S 
ATOM      7  C   UNL     1      48.439   6.243  19.313  0.00  0.00    +0.000 A 
ATOM      8  N   UNL     1      48.359   5.433  20.402  0.00  0.00    +0.000 NA
ATOM      9  C   UNL     1      48.679   4.202  20.170  0.00  0.00    +0.000 A 
ATOM     10  N   UNL     1      49.058   3.705  18.948  0.00  0.00    +0.000 N 
ATOM     11  C   UNL     1      49.132   4.479  17.811  0.00  0.00    +0.000 A 
ATOM     12  O   UNL     1      49.437   3.991  16.726  0.00  0.00    +0.000 OA
ATOM     13  C   UNL     1      48.799   5.876  18.030  0.00  0.00    +0.000 A 
ATOM     14  H   UNL     1      49.286   2.730  18.836  0.00  0.00    +0.000 HD
ENDBRANCH   3   4
BRANCH   3  15
ATOM     15  C   UNL     1      50.666   7.360  15.408  0.00  0.00    +0.000 C 
BRANCH  15  16
ATOM     16  N   UNL     1      51.699   6.431  15.887  0.00  0.00    +0.000 NA
ATOM     17  H   UNL     1      52.104   6.800  16.746  0.00  0.00    +0.000 HD
ATOM     18  H   UNL     1      52.453   6.385  15.197  0.00  0.00    +0.000 HD
ENDBRANCH  15  16
ENDBRANCH   3  15
ENDBRANCH   1   3
BRANCH   1  19
ATOM     19  C   UNL     1      48.079   7.250  13.475  0.00  0.00    +0.000 C 
BRANCH  19  20
ATOM     20  C   UNL     1      46.788   6.500  13.215  0.00  0.00    +0.000 A 
ATOM     21  C   UNL     1      45.722   7.129  12.580  0.00  0.00    +0.000 A 
ATOM     22  C   UNL     1      44.530   6.428  12.422  0.00  0.00    +0.000 A 
ATOM     23  C   UNL     1      44.426   5.115  12.888  0.00  0.00    +0.000 A 
ATOM     24  C   UNL     1      45.545   4.567  13.499  0.00  0.00    +0.000 A 
ATOM     25  N   UNL     1      46.707   5.227  13.679  0.00  0.00    +0.000 NA
BRANCH  23  26
ATOM     26  C   UNL     1      43.151   4.329  12.761  0.00  0.00    +0.000 C 
BRANCH  26  27
ATOM     27  N   UNL     1      42.897   3.971  11.368  0.00  0.00    +0.000 NA
ATOM     28  H   UNL     1      43.128   4.774  10.780  0.00  0.00    +0.000 HD
BRANCH  27  29
ATOM     29  C   UNL     1      43.733   2.850  10.958  0.00  0.00    +0.000 C 
BRANCH  29  30
ATOM     30  C   UNL     1      44.500   3.253   9.760  0.00  0.00    +0.000 A 
ATOM     31  C   UNL     1      44.942   4.474   9.302  0.00  0.00    +0.000 A 
ATOM     32  N   UNL     1      45.617   4.336   8.117  0.00  0.00    +0.000 NA
ATOM     33  C   UNL     1      45.583   3.053   7.846  0.00  0.00    +0.000 A 
ATOM     34  N   UNL     1      44.921   2.355   8.809  0.00  0.00    +0.000 N 
ATOM     35  H   UNL     1      44.730   1.361   8.816  0.00  0.00    +0.000 HD
ENDBRANCH  29  30
ENDBRANCH  27  29
ENDBRANCH  26  27
ENDBRANCH  23  26
ENDBRANCH  19  20
ENDBRANCH   1  19
TORSDOF 10
ENDMDL
MODEL 7
REMARK VINA RESULT:    -6.618      2.173      2.788
REMARK INTER + INTRA:         -11.198
REMARK INTER:                 -10.157
REMARK INTRA:                  -1.041
REMARK UNBOUND:                -0.904
REMARK  Name = 
REMARK  10 active torsions:
REMARK  status: ('A' for Active; 'I' for Inactive)
REMARK    1  A    between atoms: N_1  and  C_2
REMARK    2  A    between atoms: C_2  and  C_3
REMARK    3  A    between atoms: C_3  and  N_4
REMARK    4  A    between atoms: C_3  and  C_20
REMARK    5  A    between atoms: N_4  and  C_5
REMARK    6  A    between atoms: C_5  and  C_6
REMARK    7  A    between atoms: C_9  and  C_10
REMARK    8  A    between atoms: C_10  and  N_11
REMARK    9  A    between atoms: N_11  and  C_12
REMARK   10  A    between atoms: C_12  and  C_13
REMARK                            x       y       z     vdW  Elec       q    Type
REMARK                         _______ _______ _______ _____ _____    ______ ____
ROOT
ATOM      1  N   UNL     1      47.886   7.017  15.087  0.00  0.00    +0.000 NA
ATOM      2  H   UNL     1      47.278   6.267  15.415  0.00  0.00    +0.000 HD
ENDROOT
BRANCH   1   3
ATOM      3  C   UNL     1      49.008   7.182  16.024  0.00  0.00    +0.000 C 
BRANCH   3   4
ATOM      4  C   UNL     1      49.244   5.832  16.687  0.00  0.00    +0.000 A 
ATOM      5  C   UNL     1      48.252   4.940  17.070  0.00  0.00    +0.000 A 
ATOM      6  S   UNL     1      48.861   3.529  17.817  0.00  0.00    +0.000 S 
ATOM      7  C   UNL     1      50.467   4.074  17.674  0.00  0.00    +0.000 A 
ATOM      8  N   UNL     1      51.508   3.336  18.144  0.00  0.00    +0.000 NA
ATOM      9  C   UNL     1      52.664   3.892  17.985  0.00  0.00    +0.000 A 
ATOM     10  N   UNL     1      52.876   5.110  17.388  0.00  0.00    +0.000 N 
ATOM     11  C   UNL     1      51.859   5.884  16.876  0.00  0.00    +0.000 A 
ATOM     12  O   UNL     1      52.090   6.951  16.314  0.00  0.00    +0.000 OA
ATOM     13  C   UNL     1      50.537   5.306  17.051  0.00  0.00    +0.000 A 
ATOM     14  H   UNL     1      53.808   5.481  17.289  0.00  0.00    +0.000 HD
ENDBRANCH   3   4
BRANCH   3  15
ATOM     15  C   UNL     1      48.760   8.302  17.089  0.00  0.00    +0.000 C 
BRANCH  15  16
ATOM     16  N   UNL     1      49.960   8.759  17.803  0.00  0.00    +0.000 NA
ATOM     17  H   UNL     1      50.006   9.775  17.756  0.00  0.00    +0.000 HD
ATOM     18  H   UNL     1      50.790   8.399  17.325  0.00  0.00    +0.000 HD
ENDBRANCH  15  16
ENDBRANCH   3  15
ENDBRANCH   1   3
BRANCH   1  19
ATOM     19  C   UNL     1      48.304   6.724  13.715  0.00  0.00    +0.000 C 
BRANCH  19  20
ATOM     20  C   UNL     1      47.187   6.123  12.886  0.00  0.00    +0.000 A 
ATOM     21  C   UNL     1      46.462   5.035  13.361  0.00  0.00    +0.000 A 
ATOM     22  C   UNL     1      45.490   4.469  12.541  0.00  0.00    +0.000 A 
ATOM     23  C   UNL     1      45.252   5.001  11.271  0.00  0.00    +0.000 A 
ATOM     24  C   UNL     1      46.018   6.094  10.887  0.00  0.00    +0.000 A 
ATOM     25  N   UNL     1      46.974   6.654  11.654  0.00  0.00    +0.000 NA
BRANCH  23  26
ATOM     26  C   UNL     1      44.232   4.407  10.343  0.00  0.00    +0.000 C 
BRANCH  26  27
ATOM     27  N   UNL     1      44.800   3.292   9.589  0.00  0.00    +0.000 NA
ATOM     28  H   UNL     1      44.050   2.635   9.368  0.00  0.00    +0.000 HD
BRANCH  27  29
ATOM     29  C   UNL     1      45.386   3.755   8.338  0.00  0.00    +0.000 C 
BRANCH  29  30
ATOM     30  C   UNL     1      46.272   2.692   7.816  0.00  0.00    +0.000 A 
ATOM     31  C   UNL     1      47.325   2.706   6.929  0.00  0.00    +0.000 A 
ATOM     32  N   UNL     1      47.835   1.446   6.754  0.00  0.00    +0.000 NA
ATOM     33  C   UNL     1      47.102   0.668   7.515  0.00  0.00    +0.000 A 
ATOM     34  N   UNL     1      46.145   1.372   8.179  0.00  0.00    +0.000 N 
ATOM     35  H   UNL     1      45.436   1.000   8.797  0.00  0.00    +0.000 HD
ENDBRANCH  29  30
ENDBRANCH  27  29
ENDBRANCH  26  27
ENDBRANCH  23  26
ENDBRANCH  19  20
ENDBRANCH   1  19
TORSDOF 10
ENDMDL
MODEL 8
REMARK VINA RESULT:    -6.033      3.884      4.881
REMARK INTER + INTRA:         -10.288
REMARK INTER:                  -9.247
REMARK INTRA:                  -1.040
REMARK UNBOUND:                -0.904
REMARK  Name = 
REMARK  10 active torsions:
REMARK  status: ('A' for Active; 'I' for Inactive)
REMARK    1  A    between atoms: N_1  and  C_2
REMARK    2  A    between atoms: C_2  and  C_3
REMARK    3  A    between atoms: C_3  and  N_4
REMARK    4  A    between atoms: C_3  and  C_20
REMARK    5  A    between atoms: N_4  and  C_5
REMARK    6  A    between atoms: C_5  and  C_6
REMARK    7  A    between atoms: C_9  and  C_10
REMARK    8  A    between atoms: C_10  and  N_11
REMARK    9  A    between atoms: N_11  and  C_12
REMARK   10  A    between atoms: C_12  and  C_13
REMARK                            x       y       z     vdW  Elec       q    Type
REMARK                         _______ _______ _______ _____ _____    ______ ____
ROOT
ATOM      1  N   UNL     1      48.060   7.073  14.995  0.00  0.00    +0.000 NA
ATOM      2  H   UNL     1      48.556   6.657  15.782  0.00  0.00    +0.000 HD
ENDROOT
BRANCH   1   3
ATOM      3  C   UNL     1      48.544   8.446  14.783  0.00  0.00    +0.000 C 
BRANCH   3   4
ATOM      4  C   UNL     1      50.044   8.363  14.541  0.00  0.00    +0.000 A 
ATOM      5  C   UNL     1      50.998   8.050  15.500  0.00  0.00    +0.000 A 
ATOM      6  S   UNL     1      52.597   8.076  14.901  0.00  0.00    +0.000 S 
ATOM      7  C   UNL     1      52.070   8.530  13.347  0.00  0.00    +0.000 A 
ATOM      8  N   UNL     1      52.955   8.744  12.336  0.00  0.00    +0.000 NA
ATOM      9  C   UNL     1      52.407   9.106  11.222  0.00  0.00    +0.000 A 
ATOM     10  N   UNL     1      51.058   9.261  11.023  0.00  0.00    +0.000 N 
ATOM     11  C   UNL     1      50.121   9.033  12.007  0.00  0.00    +0.000 A 
ATOM     12  O   UNL     1      48.919   9.144  11.781  0.00  0.00    +0.000 OA
ATOM     13  C   UNL     1      50.694   8.643  13.283  0.00  0.00    +0.000 A 
ATOM     14  H   UNL     1      50.697   9.538  10.124  0.00  0.00    +0.000 HD
ENDBRANCH   3   4
BRANCH   3  15
ATOM     15  C   UNL     1      48.213   9.406  15.974  0.00  0.00    +0.000 C 
BRANCH  15  16
ATOM     16  N   UNL     1      47.759   8.740  17.202  0.00  0.00    +0.000 NA
ATOM     17  H   UNL     1      46.782   8.474  17.093  0.00  0.00    +0.000 HD
ATOM     18  H   UNL     1      47.803   9.404  17.979  0.00  0.00    +0.000 HD
ENDBRANCH  15  16
ENDBRANCH   3  15
ENDBRANCH   1   3
BRANCH   1  19
ATOM     19  C   UNL     1      48.215   6.208  13.824  0.00  0.00    +0.000 C 
BRANCH  19  20
ATOM     20  C   UNL     1      46.900   5.949  13.118  0.00  0.00    +0.000 A 
ATOM     21  C   UNL     1      46.004   5.007  13.617  0.00  0.00    +0.000 A 
ATOM     22  C   UNL     1      44.838   4.749  12.902  0.00  0.00    +0.000 A 
ATOM     23  C   UNL     1      44.581   5.438  11.714  0.00  0.00    +0.000 A 
ATOM     24  C   UNL     1      45.527   6.366  11.300  0.00  0.00    +0.000 A 
ATOM     25  N   UNL     1      46.671   6.626  11.964  0.00  0.00    +0.000 NA
BRANCH  23  26
ATOM     26  C   UNL     1      43.348   5.174  10.897  0.00  0.00    +0.000 C 
BRANCH  26  27
ATOM     27  N   UNL     1      43.697   4.603   9.599  0.00  0.00    +0.000 NA
ATOM     28  H   UNL     1      44.472   5.140   9.206  0.00  0.00    +0.000 HD
BRANCH  27  29
ATOM     29  C   UNL     1      44.125   3.217   9.738  0.00  0.00    +0.000 C 
BRANCH  29  30
ATOM     30  C   UNL     1      45.221   2.969   8.776  0.00  0.00    +0.000 A 
ATOM     31  C   UNL     1      45.913   1.832   8.423  0.00  0.00    +0.000 A 
ATOM     32  N   UNL     1      46.860   2.111   7.473  0.00  0.00    +0.000 NA
ATOM     33  C   UNL     1      46.759   3.400   7.251  0.00  0.00    +0.000 A 
ATOM     34  N   UNL     1      45.782   3.964   8.013  0.00  0.00    +0.000 N 
ATOM     35  H   UNL     1      45.531   4.943   8.051  0.00  0.00    +0.000 HD
ENDBRANCH  29  30
ENDBRANCH  27  29
ENDBRANCH  26  27
ENDBRANCH  23  26
ENDBRANCH  19  20
ENDBRANCH   1  19
TORSDOF 10
ENDMDL
MODEL 9
REMARK VINA RESULT:    -6.018      2.972      4.084
REMARK INTER + INTRA:         -10.264
REMARK INTER:                  -9.535
REMARK INTRA:                  -0.729
REMARK UNBOUND:                -0.904
REMARK  Name = 
REMARK  10 active torsions:
REMARK  status: ('A' for Active; 'I' for Inactive)
REMARK    1  A    between atoms: N_1  and  C_2
REMARK    2  A    between atoms: C_2  and  C_3
REMARK    3  A    between atoms: C_3  and  N_4
REMARK    4  A    between atoms: C_3  and  C_20
REMARK    5  A    between atoms: N_4  and  C_5
REMARK    6  A    between atoms: C_5  and  C_6
REMARK    7  A    between atoms: C_9  and  C_10
REMARK    8  A    between atoms: C_10  and  N_11
REMARK    9  A    between atoms: N_11  and  C_12
REMARK   10  A    between atoms: C_12  and  C_13
REMARK                            x       y       z     vdW  Elec       q    Type
REMARK                         _______ _______ _______ _____ _____    ______ ____
ROOT
ATOM      1  N   UNL     1      48.182   7.121  17.984  0.00  0.00    +0.000 NA
ATOM      2  H   UNL     1      47.575   6.422  17.558  0.00  0.00    +0.000 HD
ENDROOT
BRANCH   1   3
ATOM      3  C   UNL     1      48.915   6.514  19.106  0.00  0.00    +0.000 C 
BRANCH   3   4
ATOM      4  C   UNL     1      49.687   5.326  18.550  0.00  0.00    +0.000 A 
ATOM      5  C   UNL     1      51.062   5.152  18.628  0.00  0.00    +0.000 A 
ATOM      6  S   UNL     1      51.609   3.721  17.872  0.00  0.00    +0.000 S 
ATOM      7  C   UNL     1      50.030   3.299  17.395  0.00  0.00    +0.000 A 
ATOM      8  N   UNL     1      49.787   2.170  16.677  0.00  0.00    +0.000 NA
ATOM      9  C   UNL     1      48.543   1.997  16.369  0.00  0.00    +0.000 A 
ATOM     10  N   UNL     1      47.520   2.840  16.723  0.00  0.00    +0.000 N 
ATOM     11  C   UNL     1      47.712   3.983  17.469  0.00  0.00    +0.000 A 
ATOM     12  O   UNL     1      46.766   4.693  17.800  0.00  0.00    +0.000 OA
ATOM     13  C   UNL     1      49.099   4.228  17.821  0.00  0.00    +0.000 A 
ATOM     14  H   UNL     1      46.570   2.640  16.456  0.00  0.00    +0.000 HD
ENDBRANCH   3   4
BRANCH   3  15
ATOM     15  C   UNL     1      47.984   6.084  20.288  0.00  0.00    +0.000 C 
BRANCH  15  16
ATOM     16  N   UNL     1      48.242   4.742  20.827  0.00  0.00    +0.000 NA
ATOM     17  H   UNL     1      47.807   4.664  21.744  0.00  0.00    +0.000 HD
ATOM     18  H   UNL     1      49.249   4.624  20.963  0.00  0.00    +0.000 HD
ENDBRANCH  15  16
ENDBRANCH   3  15
ENDBRANCH   1   3
BRANCH   1  19
ATOM     19  C   UNL     1      49.052   7.688  16.951  0.00  0.00    +0.000 C 
BRANCH  19  20
ATOM     20  C   UNL     1      48.497   7.488  15.555  0.00  0.00    +0.000 A 
ATOM     21  C   UNL     1      47.972   8.563  14.843  0.00  0.00    +0.000 A 
ATOM     22  C   UNL     1      47.410   8.325  13.592  0.00  0.00    +0.000 A 
ATOM     23  C   UNL     1      47.391   7.030  13.070  0.00  0.00    +0.000 A 
ATOM     24  C   UNL     1      47.947   6.023  13.848  0.00  0.00    +0.000 A 
ATOM     25  N   UNL     1      48.485   6.220  15.068  0.00  0.00    +0.000 NA
BRANCH  23  26
ATOM     26  C   UNL     1      46.772   6.724  11.736  0.00  0.00    +0.000 C 
BRANCH  26  27
ATOM     27  N   UNL     1      45.344   7.027  11.743  0.00  0.00    +0.000 NA
ATOM     28  H   UNL     1      44.947   6.737  10.847  0.00  0.00    +0.000 HD
BRANCH  27  29
ATOM     29  C   UNL     1      44.662   6.296  12.803  0.00  0.00    +0.000 C 
BRANCH  29  30
ATOM     30  C   UNL     1      44.164   5.020  12.244  0.00  0.00    +0.000 A 
ATOM     31  C   UNL     1      43.647   4.679  11.014  0.00  0.00    +0.000 A 
ATOM     32  N   UNL     1      43.313   3.350  10.976  0.00  0.00    +0.000 NA
ATOM     33  C   UNL     1      43.612   2.884  12.165  0.00  0.00    +0.000 A 
ATOM     34  N   UNL     1      44.131   3.853  12.967  0.00  0.00    +0.000 N 
ATOM     35  H   UNL     1      44.407   3.756  13.936  0.00  0.00    +0.000 HD
ENDBRANCH  29  30
ENDBRANCH  27  29
ENDBRANCH  26  27
ENDBRANCH  23  26
ENDBRANCH  19  20
ENDBRANCH   1  19
TORSDOF 10
ENDMDL
