MODEL 1
REMARK VINA RESULT:    -8.692      0.000      0.000
REMARK INTER + INTRA:         -13.139
REMARK INTER:                 -12.249
REMARK INTRA:                  -0.890
REMARK UNBOUND:                -0.890
REMARK  Name = 
REMARK  8 active torsions:
REMARK  status: ('A' for Active; 'I' for Inactive)
REMARK    1  A    between atoms: C_1  and  C_2
REMARK    2  A    between atoms: C_2  and  N_3
REMARK    3  A    between atoms: C_2  and  C_26
REMARK    4  A    between atoms: N_3  and  C_4
REMARK    5  A    between atoms: C_4  and  C_5
REMARK    6  A    between atoms: C_8  and  C_9
REMARK    7  A    between atoms: C_9  and  N_10
REMARK    8  A    between atoms: C_11  and  C_13
REMARK                            x       y       z     vdW  Elec       q    Type
REMARK                         _______ _______ _______ _____ _____    ______ ____
ROOT
ATOM      1  C   UNL     1      44.661   6.078  11.124  0.00  0.00    +0.000 A 
ATOM      2  C   UNL     1      45.907   5.547  11.489  0.00  0.00    +0.000 A 
ATOM      3  C   UNL     1      46.809   6.295  12.254  0.00  0.00    +0.000 A 
ATOM      4  C   UNL     1      46.476   7.586  12.683  0.00  0.00    +0.000 A 
ATOM      5  C   UNL     1      45.257   8.128  12.273  0.00  0.00    +0.000 A 
ATOM      6  F   UNL     1      44.913   9.367  12.658  0.00  0.00    +0.000 F 
ATOM      7  C   UNL     1      44.357   7.393  11.501  0.00  0.00    +0.000 A 
ENDROOT
BRANCH   1   8
ATOM      8  C   UNL     1      43.603   5.188  10.513  0.00  0.00    +0.000 C 
BRANCH   8   9
ATOM      9  N   UNL     1      44.013   4.506   9.280  0.00  0.00    +0.000 NA
ATOM     10  H   UNL     1      44.587   5.159   8.743  0.00  0.00    +0.000 HD
BRANCH   9  12
ATOM     11  C   UNL     1      44.068   2.162  10.197  0.00  0.00    +0.000 C 
ATOM     12  C   UNL     1      44.868   3.322   9.591  0.00  0.00    +0.000 C 
BRANCH  12  13
ATOM     13  C   UNL     1      45.678   2.803   8.400  0.00  0.00    +0.000 A 
ATOM     14  C   UNL     1      45.982   3.599   7.297  0.00  0.00    +0.000 A 
ATOM     15  C   UNL     1      46.791   3.078   6.285  0.00  0.00    +0.000 A 
ATOM     16  C   UNL     1      47.244   1.770   6.375  0.00  0.00    +0.000 A 
ATOM     17  C   UNL     1      46.854   1.023   7.471  0.00  0.00    +0.000 A 
ATOM     18  N   UNL     1      46.096   1.509   8.481  0.00  0.00    +0.000 NA
ENDBRANCH  12  13
ENDBRANCH   9  12
ENDBRANCH   8   9
ENDBRANCH   1   8
BRANCH   4  19
ATOM     19  C   UNL     1      47.422   8.371  13.550  0.00  0.00    +0.000 C 
BRANCH  19  20
ATOM     20  N   UNL     1      47.784   7.612  14.718  0.00  0.00    +0.000 N 
ATOM     21  C   UNL     1      48.997   6.990  14.846  0.00  0.00    +0.000 C 
ATOM     22  O   UNL     1      49.890   7.106  14.010  0.00  0.00    +0.000 OA
ATOM     23  H   UNL     1      47.009   7.298  15.295  0.00  0.00    +0.000 HD
BRANCH  21  24
ATOM     24  C   UNL     1      49.204   6.234  16.087  0.00  0.00    +0.000 A 
ATOM     25  C   UNL     1      50.205   6.615  16.969  0.00  0.00    +0.000 A 
ATOM     26  S   UNL     1      50.265   5.664  18.384  0.00  0.00    +0.000 S 
ATOM     27  C   UNL     1      48.979   4.683  17.847  0.00  0.00    +0.000 A 
ATOM     28  N   UNL     1      48.532   3.642  18.599  0.00  0.00    +0.000 NA
ATOM     29  C   UNL     1      47.579   2.964  18.055  0.00  0.00    +0.000 A 
ATOM     30  N   UNL     1      47.031   3.233  16.826  0.00  0.00    +0.000 N 
ATOM     31  C   UNL     1      47.429   4.291  16.047  0.00  0.00    +0.000 A 
ATOM     32  O   UNL     1      46.882   4.536  14.974  0.00  0.00    +0.000 OA
ATOM     33  C   UNL     1      48.508   5.082  16.609  0.00  0.00    +0.000 A 
ATOM     34  H   UNL     1      46.282   2.664  16.457  0.00  0.00    +0.000 HD
ENDBRANCH  21  24
ENDBRANCH  19  20
ENDBRANCH   4  19
TORSDOF 7
ENDMDL
MODEL 2
REMARK VINA RESULT:    -8.454      2.177      2.467
REMARK INTER + INTRA:         -12.804
REMARK INTER:                 -11.841
REMARK INTRA:                  -0.962
REMARK UNBOUND:                -0.890
REMARK  Name = 
REMARK  8 active torsions:
REMARK  status: ('A' for Active; 'I' for Inactive)
REMARK    1  A    between atoms: C_1  and  C_2
REMARK    2  A    between atoms: C_2  and  N_3
REMARK    3  A    between atoms: C_2  and  C_26
REMARK    4  A    between atoms: N_3  and  C_4
REMARK    5  A    between atoms: C_4  and  C_5
REMARK    6  A    between atoms: C_8  and  C_9
REMARK    7  A    between atoms: C_9  and  N_10
REMARK    8  A    between atoms: C_11  and  C_13
REMARK                            x       y       z     vdW  Elec       q    Type
REMARK                         _______ _______ _______ _____ _____    ______ ____
ROOT
ATOM      1  C   UNL     1      44.744   5.602  11.549  0.00  0.00    +0.000 A 
ATOM      2  C   UNL     1      45.690   6.517  11.061  0.00  0.00    +0.000 A 
ATOM      3  C   UNL     1      46.859   6.791  11.778  0.00  0.00    +0.000 A 
ATOM      4  C   UNL     1      47.115   6.143  12.994  0.00  0.00    +0.000 A 
ATOM      5  C   UNL     1      46.147   5.274  13.499  0.00  0.00    +0.000 A 
ATOM      6  F   UNL     1      46.358   4.646  14.666  0.00  0.00    +0.000 F 
ATOM      7  C   UNL     1      44.974   5.003  12.795  0.00  0.00    +0.000 A 
ENDROOT
BRANCH   1   8
ATOM      8  C   UNL     1      43.613   5.130  10.665  0.00  0.00    +0.000 C 
BRANCH   8   9
ATOM      9  N   UNL     1      44.037   4.495   9.412  0.00  0.00    +0.000 NA
ATOM     10  H   UNL     1      44.608   5.172   8.902  0.00  0.00    +0.000 HD
BRANCH   9  12
ATOM     11  C   UNL     1      44.121   2.143  10.305  0.00  0.00    +0.000 C 
ATOM     12  C   UNL     1      44.902   3.310   9.688  0.00  0.00    +0.000 C 
BRANCH  12  13
ATOM     13  C   UNL     1      45.679   2.803   8.469  0.00  0.00    +0.000 A 
ATOM     14  C   UNL     1      45.986   3.622   7.383  0.00  0.00    +0.000 A 
ATOM     15  C   UNL     1      46.764   3.108   6.344  0.00  0.00    +0.000 A 
ATOM     16  C   UNL     1      47.182   1.786   6.389  0.00  0.00    +0.000 A 
ATOM     17  C   UNL     1      46.789   1.019   7.471  0.00  0.00    +0.000 A 
ATOM     18  N   UNL     1      46.061   1.497   8.506  0.00  0.00    +0.000 NA
ENDBRANCH  12  13
ENDBRANCH   9  12
ENDBRANCH   8   9
ENDBRANCH   1   8
BRANCH   4  19
ATOM     19  C   UNL     1      48.396   6.397  13.740  0.00  0.00    +0.000 C 
BRANCH  19  20
ATOM     20  N   UNL     1      48.120   6.910  15.056  0.00  0.00    +0.000 N 
ATOM     21  C   UNL     1      48.994   6.764  16.101  0.00  0.00    +0.000 C 
ATOM     22  O   UNL     1      50.106   6.261  15.967  0.00  0.00    +0.000 OA
ATOM     23  H   UNL     1      47.144   7.101  15.257  0.00  0.00    +0.000 HD
BRANCH  21  24
ATOM     24  C   UNL     1      48.555   7.321  17.386  0.00  0.00    +0.000 A 
ATOM     25  C   UNL     1      48.438   8.695  17.540  0.00  0.00    +0.000 A 
ATOM     26  S   UNL     1      47.860   9.163  19.075  0.00  0.00    +0.000 S 
ATOM     27  C   UNL     1      47.786   7.545  19.603  0.00  0.00    +0.000 A 
ATOM     28  N   UNL     1      47.377   7.237  20.863  0.00  0.00    +0.000 NA
ATOM     29  C   UNL     1      47.404   5.978  21.138  0.00  0.00    +0.000 A 
ATOM     30  N   UNL     1      47.801   4.995  20.267  0.00  0.00    +0.000 N 
ATOM     31  C   UNL     1      48.190   5.255  18.977  0.00  0.00    +0.000 A 
ATOM     32  O   UNL     1      48.491   4.348  18.204  0.00  0.00    +0.000 OA
ATOM     33  C   UNL     1      48.189   6.661  18.617  0.00  0.00    +0.000 A 
ATOM     34  H   UNL     1      47.794   4.024  20.543  0.00  0.00    +0.000 HD
ENDBRANCH  21  24
ENDBRANCH  19  20
ENDBRANCH   4  19
TORSDOF 7
ENDMDL
MODEL 3
REMARK VINA RESULT:    -8.398      2.488      2.974
REMARK INTER + INTRA:         -12.725
REMARK INTER:                 -11.634
REMARK INTRA:                  -1.091
REMARK UNBOUND:                -0.890
REMARK  Name = 
REMARK  8 active torsions:
REMARK  status: ('A' for Active; 'I' for Inactive)
REMARK    1  A    between atoms: C_1  and  C_2
REMARK    2  A    between atoms: C_2  and  N_3
REMARK    3  A    between atoms: C_2  and  C_26
REMARK    4  A    between atoms: N_3  and  C_4
REMARK    5  A    between atoms: C_4  and  C_5
REMARK    6  A    between atoms: C_8  and  C_9
REMARK    7  A    between atoms: C_9  and  N_10
REMARK    8  A    between atoms: C_11  and  C_13
REMARK                            x       y       z     vdW  Elec       q    Type
REMARK                         _______ _______ _______ _____ _____    ______ ____
ROOT
ATOM      1  C   UNL     1      46.101   4.706  12.978  0.00  0.00    +0.000 A 
ATOM      2  C   UNL     1      46.469   4.232  14.246  0.00  0.00    +0.000 A 
ATOM      3  C   UNL     1      47.370   4.944  15.045  0.00  0.00    +0.000 A 
ATOM      4  C   UNL     1      47.913   6.155  14.597  0.00  0.00    +0.000 A 
ATOM      5  C   UNL     1      47.583   6.596  13.314  0.00  0.00    +0.000 A 
ATOM      6  F   UNL     1      48.095   7.747  12.852  0.00  0.00    +0.000 F 
ATOM      7  C   UNL     1      46.693   5.886  12.508  0.00  0.00    +0.000 A 
ENDROOT
BRANCH   1   8
ATOM      8  C   UNL     1      44.954   4.069  12.228  0.00  0.00    +0.000 C 
BRANCH   8   9
ATOM      9  N   UNL     1      45.332   2.934  11.380  0.00  0.00    +0.000 NA
ATOM     10  H   UNL     1      45.053   2.079  11.867  0.00  0.00    +0.000 HD
BRANCH   9  12
ATOM     11  C   UNL     1      43.803   4.272   9.895  0.00  0.00    +0.000 C 
ATOM     12  C   UNL     1      44.585   2.967  10.088  0.00  0.00    +0.000 C 
BRANCH  12  13
ATOM     13  C   UNL     1      45.456   2.718   8.853  0.00  0.00    +0.000 A 
ATOM     14  C   UNL     1      45.788   3.731   7.955  0.00  0.00    +0.000 A 
ATOM     15  C   UNL     1      46.650   3.443   6.894  0.00  0.00    +0.000 A 
ATOM     16  C   UNL     1      47.127   2.151   6.731  0.00  0.00    +0.000 A 
ATOM     17  C   UNL     1      46.708   1.187   7.629  0.00  0.00    +0.000 A 
ATOM     18  N   UNL     1      45.899   1.442   8.682  0.00  0.00    +0.000 NA
ENDBRANCH  12  13
ENDBRANCH   9  12
ENDBRANCH   8   9
ENDBRANCH   1   8
BRANCH   4  19
ATOM     19  C   UNL     1      48.841   6.948  15.476  0.00  0.00    +0.000 C 
BRANCH  19  20
ATOM     20  N   UNL     1      49.876   6.102  16.010  0.00  0.00    +0.000 N 
ATOM     21  C   UNL     1      49.926   5.743  17.331  0.00  0.00    +0.000 C 
ATOM     22  O   UNL     1      49.047   6.050  18.132  0.00  0.00    +0.000 OA
ATOM     23  H   UNL     1      50.722   6.039  15.453  0.00  0.00    +0.000 HD
BRANCH  21  24
ATOM     24  C   UNL     1      51.058   4.896  17.723  0.00  0.00    +0.000 A 
ATOM     25  C   UNL     1      52.194   5.473  18.274  0.00  0.00    +0.000 A 
ATOM     26  S   UNL     1      53.385   4.338  18.725  0.00  0.00    +0.000 S 
ATOM     27  C   UNL     1      52.440   3.037  18.160  0.00  0.00    +0.000 A 
ATOM     28  N   UNL     1      52.895   1.758  18.235  0.00  0.00    +0.000 NA
ATOM     29  C   UNL     1      52.092   0.879  17.738  0.00  0.00    +0.000 A 
ATOM     30  N   UNL     1      50.874   1.162  17.174  0.00  0.00    +0.000 N 
ATOM     31  C   UNL     1      50.361   2.433  17.106  0.00  0.00    +0.000 A 
ATOM     32  O   UNL     1      49.244   2.649  16.642  0.00  0.00    +0.000 OA
ATOM     33  C   UNL     1      51.230   3.465  17.643  0.00  0.00    +0.000 A 
ATOM     34  H   UNL     1      50.289   0.425  16.805  0.00  0.00    +0.000 HD
ENDBRANCH  21  24
ENDBRANCH  19  20
ENDBRANCH   4  19
TORSDOF 7
ENDMDL
MODEL 4
REMARK VINA RESULT:    -8.317      2.541      3.196
REMARK INTER + INTRA:         -12.611
REMARK INTER:                 -11.479
REMARK INTRA:                  -1.132
REMARK UNBOUND:                -0.890
REMARK  Name = 
REMARK  8 active torsions:
REMARK  status: ('A' for Active; 'I' for Inactive)
REMARK    1  A    between atoms: C_1  and  C_2
REMARK    2  A    between atoms: C_2  and  N_3
REMARK    3  A    between atoms: C_2  and  C_26
REMARK    4  A    between atoms: N_3  and  C_4
REMARK    5  A    between atoms: C_4  and  C_5
REMARK    6  A    between atoms: C_8  and  C_9
REMARK    7  A    between atoms: C_9  and  N_10
REMARK    8  A    between atoms: C_11  and  C_13
REMARK                            x       y       z     vdW  Elec       q    Type
REMARK                         _______ _______ _______ _____ _____    ______ ____
ROOT
ATOM      1  C   UNL     1      44.781   5.512  11.644  0.00  0.00    +0.000 A 
ATOM      2  C   UNL     1      45.649   6.548  11.266  0.00  0.00    +0.000 A 
ATOM      3  C   UNL     1      46.790   6.839  12.022  0.00  0.00    +0.000 A 
ATOM      4  C   UNL     1      47.095   6.090  13.166  0.00  0.00    +0.000 A 
ATOM      5  C   UNL     1      46.201   5.095  13.565  0.00  0.00    +0.000 A 
ATOM      6  F   UNL     1      46.459   4.367  14.662  0.00  0.00    +0.000 F 
ATOM      7  C   UNL     1      45.056   4.806  12.822  0.00  0.00    +0.000 A 
ENDROOT
BRANCH   1   8
ATOM      8  C   UNL     1      43.695   5.045  10.702  0.00  0.00    +0.000 C 
BRANCH   8   9
ATOM      9  N   UNL     1      44.180   4.515   9.423  0.00  0.00    +0.000 NA
ATOM     10  H   UNL     1      44.830   5.199   9.031  0.00  0.00    +0.000 HD
BRANCH   9  12
ATOM     11  C   UNL     1      44.063   2.105  10.142  0.00  0.00    +0.000 C 
ATOM     12  C   UNL     1      44.946   3.251   9.632  0.00  0.00    +0.000 C 
BRANCH  12  13
ATOM     13  C   UNL     1      45.721   2.775   8.400  0.00  0.00    +0.000 A 
ATOM     14  C   UNL     1      45.972   3.604   7.307  0.00  0.00    +0.000 A 
ATOM     15  C   UNL     1      46.752   3.122   6.254  0.00  0.00    +0.000 A 
ATOM     16  C   UNL     1      47.227   1.819   6.294  0.00  0.00    +0.000 A 
ATOM     17  C   UNL     1      46.888   1.038   7.383  0.00  0.00    +0.000 A 
ATOM     18  N   UNL     1      46.161   1.486   8.431  0.00  0.00    +0.000 NA
ENDBRANCH  12  13
ENDBRANCH   9  12
ENDBRANCH   8   9
ENDBRANCH   1   8
BRANCH   4  19
ATOM     19  C   UNL     1      48.348   6.367  13.949  0.00  0.00    +0.000 C 
BRANCH  19  20
ATOM     20  N   UNL     1      48.030   6.660  15.322  0.00  0.00    +0.000 N 
ATOM     21  C   UNL     1      48.884   6.371  16.354  0.00  0.00    +0.000 C 
ATOM     22  O   UNL     1      50.010   5.918  16.171  0.00  0.00    +0.000 OA
ATOM     23  H   UNL     1      47.045   6.797  15.525  0.00  0.00    +0.000 HD
BRANCH  21  24
ATOM     24  C   UNL     1      48.402   6.708  17.698  0.00  0.00    +0.000 A 
ATOM     25  C   UNL     1      48.248   5.708  18.648  0.00  0.00    +0.000 A 
ATOM     26  S   UNL     1      47.737   6.285  20.170  0.00  0.00    +0.000 S 
ATOM     27  C   UNL     1      47.665   7.890  19.600  0.00  0.00    +0.000 A 
ATOM     28  N   UNL     1      47.273   8.905  20.415  0.00  0.00    +0.000 NA
ATOM     29  C   UNL     1      47.230  10.060  19.843  0.00  0.00    +0.000 A 
ATOM     30  N   UNL     1      47.546  10.294  18.528  0.00  0.00    +0.000 N 
ATOM     31  C   UNL     1      47.977   9.306  17.678  0.00  0.00    +0.000 A 
ATOM     32  O   UNL     1      48.303   9.556  16.520  0.00  0.00    +0.000 OA
ATOM     33  C   UNL     1      48.033   7.982  18.270  0.00  0.00    +0.000 A 
ATOM     34  H   UNL     1      47.496  11.225  18.141  0.00  0.00    +0.000 HD
ENDBRANCH  21  24
ENDBRANCH  19  20
ENDBRANCH   4  19
TORSDOF 7
ENDMDL
MODEL 5
REMARK VINA RESULT:    -7.672      3.003      8.143
REMARK INTER + INTRA:         -11.701
REMARK INTER:                 -10.080
REMARK INTRA:                  -1.621
REMARK UNBOUND:                -0.890
REMARK  Name = 
REMARK  8 active torsions:
REMARK  status: ('A' for Active; 'I' for Inactive)
REMARK    1  A    between atoms: C_1  and  C_2
REMARK    2  A    between atoms: C_2  and  N_3
REMARK    3  A    between atoms: C_2  and  C_26
REMARK    4  A    between atoms: N_3  and  C_4
REMARK    5  A    between atoms: C_4  and  C_5
REMARK    6  A    between atoms: C_8  and  C_9
REMARK    7  A    between atoms: C_9  and  N_10
REMARK    8  A    between atoms: C_11  and  C_13
REMARK                            x       y       z     vdW  Elec       q    Type
REMARK                         _______ _______ _______ _____ _____    ______ ____
ROOT
ATOM      1  C   UNL     1      49.858   8.020  14.795  0.00  0.00    +0.000 A 
ATOM      2  C   UNL     1      48.591   8.439  15.226  0.00  0.00    +0.000 A 
ATOM      3  C   UNL     1      47.516   8.507  14.333  0.00  0.00    +0.000 A 
ATOM      4  C   UNL     1      47.683   8.142  12.991  0.00  0.00    +0.000 A 
ATOM      5  C   UNL     1      48.958   7.776  12.556  0.00  0.00    +0.000 A 
ATOM      6  F   UNL     1      49.153   7.431  11.275  0.00  0.00    +0.000 F 
ATOM      7  C   UNL     1      50.037   7.716  13.438  0.00  0.00    +0.000 A 
ENDROOT
BRANCH   1   8
ATOM      8  C   UNL     1      50.945   7.717  15.801  0.00  0.00    +0.000 C 
BRANCH   8   9
ATOM      9  N   UNL     1      51.220   6.289  15.994  0.00  0.00    +0.000 NA
ATOM     10  H   UNL     1      52.232   6.160  15.939  0.00  0.00    +0.000 HD
BRANCH   9  12
ATOM     11  C   UNL     1      50.593   7.024  18.319  0.00  0.00    +0.000 C 
ATOM     12  C   UNL     1      50.793   5.848  17.355  0.00  0.00    +0.000 C 
BRANCH  12  13
ATOM     13  C   UNL     1      49.537   4.972  17.365  0.00  0.00    +0.000 A 
ATOM     14  C   UNL     1      48.288   5.461  17.746  0.00  0.00    +0.000 A 
ATOM     15  C   UNL     1      47.174   4.622  17.656  0.00  0.00    +0.000 A 
ATOM     16  C   UNL     1      47.337   3.312  17.229  0.00  0.00    +0.000 A 
ATOM     17  C   UNL     1      48.615   2.883  16.924  0.00  0.00    +0.000 A 
ATOM     18  N   UNL     1      49.707   3.679  16.974  0.00  0.00    +0.000 NA
ENDBRANCH  12  13
ENDBRANCH   9  12
ENDBRANCH   8   9
ENDBRANCH   1   8
BRANCH   4  19
ATOM     19  C   UNL     1      46.516   8.164  12.042  0.00  0.00    +0.000 C 
BRANCH  19  20
ATOM     20  N   UNL     1      46.070   6.824  11.760  0.00  0.00    +0.000 N 
ATOM     21  C   UNL     1      44.764   6.528  11.470  0.00  0.00    +0.000 C 
ATOM     22  O   UNL     1      43.902   7.394  11.350  0.00  0.00    +0.000 OA
ATOM     23  H   UNL     1      46.680   6.081  12.086  0.00  0.00    +0.000 HD
BRANCH  21  24
ATOM     24  C   UNL     1      44.466   5.111  11.231  0.00  0.00    +0.000 A 
ATOM     25  C   UNL     1      43.698   4.404  12.145  0.00  0.00    +0.000 A 
ATOM     26  S   UNL     1      43.400   2.790  11.681  0.00  0.00    +0.000 S 
ATOM     27  C   UNL     1      44.324   2.968  10.260  0.00  0.00    +0.000 A 
ATOM     28  N   UNL     1      44.492   1.929   9.399  0.00  0.00    +0.000 NA
ATOM     29  C   UNL     1      45.243   2.196   8.386  0.00  0.00    +0.000 A 
ATOM     30  N   UNL     1      45.841   3.408   8.152  0.00  0.00    +0.000 N 
ATOM     31  C   UNL     1      45.673   4.493   8.975  0.00  0.00    +0.000 A 
ATOM     32  O   UNL     1      46.180   5.581   8.712  0.00  0.00    +0.000 OA
ATOM     33  C   UNL     1      44.844   4.245  10.140  0.00  0.00    +0.000 A 
ATOM     34  H   UNL     1      46.416   3.554   7.334  0.00  0.00    +0.000 HD
ENDBRANCH  21  24
ENDBRANCH  19  20
ENDBRANCH   4  19
TORSDOF 7
ENDMDL
MODEL 6
REMARK VINA RESULT:    -7.292      3.193      7.832
REMARK INTER + INTRA:         -11.167
REMARK INTER:                  -9.584
REMARK INTRA:                  -1.583
REMARK UNBOUND:                -0.890
REMARK  Name = 
REMARK  8 active torsions:
REMARK  status: ('A' for Active; 'I' for Inactive)
REMARK    1  A    between atoms: C_1  and  C_2
REMARK    2  A    between atoms: C_2  and  N_3
REMARK    3  A    between atoms: C_2  and  C_26
REMARK    4  A    between atoms: N_3  and  C_4
REMARK    5  A    between atoms: C_4  and  C_5
REMARK    6  A    between atoms: C_8  and  C_9
REMARK    7  A    between atoms: C_9  and  N_10
REMARK    8  A    between atoms: C_11  and  C_13
REMARK                            x       y       z     vdW  Elec       q    Type
REMARK                         _______ _______ _______ _____ _____    ______ ____
ROOT
ATOM      1  C   UNL     1      48.841   7.648  16.250  0.00  0.00    +0.000 A 
ATOM      2  C   UNL     1      48.806   6.539  15.391  0.00  0.00    +0.000 A 
ATOM      3  C   UNL     1      48.584   6.701  14.019  0.00  0.00    +0.000 A 
ATOM      4  C   UNL     1      48.409   7.979  13.474  0.00  0.00    +0.000 A 
ATOM      5  C   UNL     1      48.393   9.074  14.340  0.00  0.00    +0.000 A 
ATOM      6  F   UNL     1      48.216  10.310  13.851  0.00  0.00    +0.000 F 
ATOM      7  C   UNL     1      48.602   8.919  15.711  0.00  0.00    +0.000 A 
ENDROOT
BRANCH   1   8
ATOM      8  C   UNL     1      49.317   7.494  17.676  0.00  0.00    +0.000 C 
BRANCH   8   9
ATOM      9  N   UNL     1      48.246   7.341  18.667  0.00  0.00    +0.000 NA
ATOM     10  H   UNL     1      47.362   7.283  18.158  0.00  0.00    +0.000 HD
BRANCH   9  12
ATOM     11  C   UNL     1      47.347   5.897  20.523  0.00  0.00    +0.000 C 
ATOM     12  C   UNL     1      48.403   6.064  19.422  0.00  0.00    +0.000 C 
BRANCH  12  13
ATOM     13  C   UNL     1      48.410   4.810  18.542  0.00  0.00    +0.000 A 
ATOM     14  C   UNL     1      47.281   4.377  17.847  0.00  0.00    +0.000 A 
ATOM     15  C   UNL     1      47.387   3.269  17.003  0.00  0.00    +0.000 A 
ATOM     16  C   UNL     1      48.596   2.597  16.903  0.00  0.00    +0.000 A 
ATOM     17  C   UNL     1      49.656   3.051  17.666  0.00  0.00    +0.000 A 
ATOM     18  N   UNL     1      49.592   4.138  18.469  0.00  0.00    +0.000 NA
ENDBRANCH  12  13
ENDBRANCH   9  12
ENDBRANCH   8   9
ENDBRANCH   1   8
BRANCH   4  19
ATOM     19  C   UNL     1      48.224   8.159  11.992  0.00  0.00    +0.000 C 
BRANCH  19  20
ATOM     20  N   UNL     1      47.514   7.039  11.433  0.00  0.00    +0.000 N 
ATOM     21  C   UNL     1      46.148   7.002  11.348  0.00  0.00    +0.000 C 
ATOM     22  O   UNL     1      45.440   7.953  11.666  0.00  0.00    +0.000 OA
ATOM     23  H   UNL     1      48.032   6.167  11.393  0.00  0.00    +0.000 HD
BRANCH  21  24
ATOM     24  C   UNL     1      45.574   5.778  10.775  0.00  0.00    +0.000 A 
ATOM     25  C   UNL     1      45.762   5.492   9.430  0.00  0.00    +0.000 A 
ATOM     26  S   UNL     1      45.079   4.005   8.948  0.00  0.00    +0.000 S 
ATOM     27  C   UNL     1      44.472   3.711  10.513  0.00  0.00    +0.000 A 
ATOM     28  N   UNL     1      43.756   2.588  10.787  0.00  0.00    +0.000 NA
ATOM     29  C   UNL     1      43.329   2.513  12.001  0.00  0.00    +0.000 A 
ATOM     30  N   UNL     1      43.553   3.459  12.969  0.00  0.00    +0.000 N 
ATOM     31  C   UNL     1      44.297   4.591  12.747  0.00  0.00    +0.000 A 
ATOM     32  O   UNL     1      44.524   5.395  13.649  0.00  0.00    +0.000 OA
ATOM     33  C   UNL     1      44.794   4.731  11.391  0.00  0.00    +0.000 A 
ATOM     34  H   UNL     1      43.194   3.338  13.905  0.00  0.00    +0.000 HD
ENDBRANCH  21  24
ENDBRANCH  19  20
ENDBRANCH   4  19
TORSDOF 7
ENDMDL
MODEL 7
REMARK VINA RESULT:    -6.963      3.409      8.999
REMARK INTER + INTRA:         -10.702
REMARK INTER:                  -9.376
REMARK INTRA:                  -1.325
REMARK UNBOUND:                -0.890
REMARK  Name = 
REMARK  8 active torsions:
REMARK  status: ('A' for Active; 'I' for Inactive)
REMARK    1  A    between atoms: C_1  and  C_2
REMARK    2  A    between atoms: C_2  and  N_3
REMARK    3  A    between atoms: C_2  and  C_26
REMARK    4  A    between atoms: N_3  and  C_4
REMARK    5  A    between atoms: C_4  and  C_5
REMARK    6  A    between atoms: C_8  and  C_9
REMARK    7  A    between atoms: C_9  and  N_10
REMARK    8  A    between atoms: C_11  and  C_13
REMARK                            x       y       z     vdW  Elec       q    Type
REMARK                         _______ _______ _______ _____ _____    ______ ____
ROOT
ATOM      1  C   UNL     1      47.189   6.406  13.663  0.00  0.00    +0.000 A 
ATOM      2  C   UNL     1      47.174   5.079  14.118  0.00  0.00    +0.000 A 
ATOM      3  C   UNL     1      46.270   4.151  13.590  0.00  0.00    +0.000 A 
ATOM      4  C   UNL     1      45.372   4.527  12.583  0.00  0.00    +0.000 A 
ATOM      5  C   UNL     1      45.357   5.861  12.171  0.00  0.00    +0.000 A 
ATOM      6  F   UNL     1      44.500   6.255  11.217  0.00  0.00    +0.000 F 
ATOM      7  C   UNL     1      46.247   6.795  12.701  0.00  0.00    +0.000 A 
ENDROOT
BRANCH   1   8
ATOM      8  C   UNL     1      48.315   7.335  14.056  0.00  0.00    +0.000 C 
BRANCH   8   9
ATOM      9  N   UNL     1      49.494   6.665  14.616  0.00  0.00    +0.000 NA
ATOM     10  H   UNL     1      50.314   7.015  14.117  0.00  0.00    +0.000 HD
BRANCH   9  12
ATOM     11  C   UNL     1      48.875   8.271  16.453  0.00  0.00    +0.000 C 
ATOM     12  C   UNL     1      49.670   7.020  16.055  0.00  0.00    +0.000 C 
BRANCH  12  13
ATOM     13  C   UNL     1      49.336   5.885  17.028  0.00  0.00    +0.000 A 
ATOM     14  C   UNL     1      50.112   4.731  17.125  0.00  0.00    +0.000 A 
ATOM     15  C   UNL     1      49.788   3.775  18.090  0.00  0.00    +0.000 A 
ATOM     16  C   UNL     1      48.682   3.970  18.905  0.00  0.00    +0.000 A 
ATOM     17  C   UNL     1      47.928   5.112  18.710  0.00  0.00    +0.000 A 
ATOM     18  N   UNL     1      48.233   6.069  17.805  0.00  0.00    +0.000 NA
ENDBRANCH  12  13
ENDBRANCH   9  12
ENDBRANCH   8   9
ENDBRANCH   1   8
BRANCH   4  19
ATOM     19  C   UNL     1      44.437   3.516  11.977  0.00  0.00    +0.000 C 
BRANCH  19  20
ATOM     20  N   UNL     1      45.101   2.775  10.937  0.00  0.00    +0.000 N 
ATOM     21  C   UNL     1      44.841   2.978   9.608  0.00  0.00    +0.000 C 
ATOM     22  O   UNL     1      44.087   3.861   9.209  0.00  0.00    +0.000 OA
ATOM     23  H   UNL     1      45.526   1.899  11.225  0.00  0.00    +0.000 HD
BRANCH  21  24
ATOM     24  C   UNL     1      45.582   2.124   8.672  0.00  0.00    +0.000 A 
ATOM     25  C   UNL     1      45.464   0.744   8.754  0.00  0.00    +0.000 A 
ATOM     26  S   UNL     1      46.346  -0.089   7.555  0.00  0.00    +0.000 S 
ATOM     27  C   UNL     1      46.951   1.366   6.909  0.00  0.00    +0.000 A 
ATOM     28  N   UNL     1      47.801   1.361   5.848  0.00  0.00    +0.000 NA
ATOM     29  C   UNL     1      48.208   2.530   5.487  0.00  0.00    +0.000 A 
ATOM     30  N   UNL     1      47.839   3.707   6.088  0.00  0.00    +0.000 N 
ATOM     31  C   UNL     1      46.959   3.763   7.140  0.00  0.00    +0.000 A 
ATOM     32  O   UNL     1      46.609   4.837   7.625  0.00  0.00    +0.000 OA
ATOM     33  C   UNL     1      46.479   2.471   7.595  0.00  0.00    +0.000 A 
ATOM     34  H   UNL     1      48.191   4.593   5.753  0.00  0.00    +0.000 HD
ENDBRANCH  21  24
ENDBRANCH  19  20
ENDBRANCH   4  19
TORSDOF 7
ENDMDL
MODEL 8
REMARK VINA RESULT:    -6.332      3.603      8.653
REMARK INTER + INTRA:          -9.814
REMARK INTER:                  -8.700
REMARK INTRA:                  -1.114
REMARK UNBOUND:                -0.890
REMARK  Name = 
REMARK  8 active torsions:
REMARK  status: ('A' for Active; 'I' for Inactive)
REMARK    1  A    between atoms: C_1  and  C_2
REMARK    2  A    between atoms: C_2  and  N_3
REMARK    3  A    between atoms: C_2  and  C_26
REMARK    4  A    between atoms: N_3  and  C_4
REMARK    5  A    between atoms: C_4  and  C_5
REMARK    6  A    between atoms: C_8  and  C_9
REMARK    7  A    between atoms: C_9  and  N_10
REMARK    8  A    between atoms: C_11  and  C_13
REMARK                            x       y       z     vdW  Elec       q    Type
REMARK                         _______ _______ _______ _____ _____    ______ ____
ROOT
ATOM      1  C   UNL     1      49.543   6.128  18.800  0.00  0.00    +0.000 A 
ATOM      2  C   UNL     1      49.063   5.430  17.682  0.00  0.00    +0.000 A 
ATOM      3  C   UNL     1      48.841   6.087  16.467  0.00  0.00    +0.000 A 
ATOM      4  C   UNL     1      49.110   7.456  16.340  0.00  0.00    +0.000 A 
ATOM      5  C   UNL     1      49.538   8.156  17.470  0.00  0.00    +0.000 A 
ATOM      6  F   UNL     1      49.793   9.470  17.384  0.00  0.00    +0.000 F 
ATOM      7  C   UNL     1      49.751   7.510  18.688  0.00  0.00    +0.000 A 
ENDROOT
BRANCH   1   8
ATOM      8  C   UNL     1      50.008   5.378  20.027  0.00  0.00    +0.000 C 
BRANCH   8   9
ATOM      9  N   UNL     1      50.745   4.141  19.745  0.00  0.00    +0.000 NA
ATOM     10  H   UNL     1      50.289   3.684  18.953  0.00  0.00    +0.000 HD
BRANCH   9  12
ATOM     11  C   UNL     1      53.035   4.852  20.512  0.00  0.00    +0.000 C 
ATOM     12  C   UNL     1      52.146   4.444  19.330  0.00  0.00    +0.000 C 
BRANCH  12  13
ATOM     13  C   UNL     1      52.831   3.313  18.556  0.00  0.00    +0.000 A 
ATOM     14  C   UNL     1      54.199   3.311  18.288  0.00  0.00    +0.000 A 
ATOM     15  C   UNL     1      54.763   2.207  17.645  0.00  0.00    +0.000 A 
ATOM     16  C   UNL     1      53.949   1.155  17.249  0.00  0.00    +0.000 A 
ATOM     17  C   UNL     1      52.593   1.256  17.498  0.00  0.00    +0.000 A 
ATOM     18  N   UNL     1      52.023   2.297  18.145  0.00  0.00    +0.000 NA
ENDBRANCH  12  13
ENDBRANCH   9  12
ENDBRANCH   8   9
ENDBRANCH   1   8
BRANCH   4  19
ATOM     19  C   UNL     1      48.923   8.152  15.020  0.00  0.00    +0.000 C 
BRANCH  19  20
ATOM     20  N   UNL     1      47.748   7.657  14.351  0.00  0.00    +0.000 N 
ATOM     21  C   UNL     1      47.815   6.803  13.282  0.00  0.00    +0.000 C 
ATOM     22  O   UNL     1      48.875   6.337  12.875  0.00  0.00    +0.000 OA
ATOM     23  H   UNL     1      46.901   8.197  14.495  0.00  0.00    +0.000 HD
BRANCH  21  24
ATOM     24  C   UNL     1      46.529   6.409  12.694  0.00  0.00    +0.000 A 
ATOM     25  C   UNL     1      45.719   7.367  12.102  0.00  0.00    +0.000 A 
ATOM     26  S   UNL     1      44.293   6.726  11.419  0.00  0.00    +0.000 S 
ATOM     27  C   UNL     1      44.690   5.150  11.930  0.00  0.00    +0.000 A 
ATOM     28  N   UNL     1      43.861   4.102  11.675  0.00  0.00    +0.000 NA
ATOM     29  C   UNL     1      44.268   2.975  12.150  0.00  0.00    +0.000 A 
ATOM     30  N   UNL     1      45.432   2.797  12.855  0.00  0.00    +0.000 N 
ATOM     31  C   UNL     1      46.313   3.818  13.108  0.00  0.00    +0.000 A 
ATOM     32  O   UNL     1      47.373   3.618  13.698  0.00  0.00    +0.000 OA
ATOM     33  C   UNL     1      45.897   5.114  12.604  0.00  0.00    +0.000 A 
ATOM     34  H   UNL     1      45.697   1.885  13.197  0.00  0.00    +0.000 HD
ENDBRANCH  21  24
ENDBRANCH  19  20
ENDBRANCH   4  19
TORSDOF 7
ENDMDL
MODEL 9
REMARK VINA RESULT:    -6.072      4.810      6.029
REMARK INTER + INTRA:          -9.447
REMARK INTER:                  -8.301
REMARK INTRA:                  -1.146
REMARK UNBOUND:                -0.890
REMARK  Name = 
REMARK  8 active torsions:
REMARK  status: ('A' for Active; 'I' for Inactive)
REMARK    1  A    between atoms: C_1  and  C_2
REMARK    2  A    between atoms: C_2  and  N_3
REMARK    3  A    between atoms: C_2  and  C_26
REMARK    4  A    between atoms: N_3  and  C_4
REMARK    5  A    between atoms: C_4  and  C_5
REMARK    6  A    between atoms: C_8  and  C_9
REMARK    7  A    between atoms: C_9  and  N_10
REMARK    8  A    between atoms: C_11  and  C_13
REMARK                            x       y       z     vdW  Elec       q    Type
REMARK                         _______ _______ _______ _____ _____    ______ ____
ROOT
ATOM      1  C   UNL     1      46.875   7.483  12.689  0.00  0.00    +0.000 A 
ATOM      2  C   UNL     1      47.847   7.179  11.725  0.00  0.00    +0.000 A 
ATOM      3  C   UNL     1      49.072   7.855  11.705  0.00  0.00    +0.000 A 
ATOM      4  C   UNL     1      49.356   8.840  12.659  0.00  0.00    +0.000 A 
ATOM      5  C   UNL     1      48.365   9.174  13.584  0.00  0.00    +0.000 A 
ATOM      6  F   UNL     1      48.602  10.121  14.504  0.00  0.00    +0.000 F 
ATOM      7  C   UNL     1      47.137   8.512  13.604  0.00  0.00    +0.000 A 
ENDROOT
BRANCH   1   8
ATOM      8  C   UNL     1      45.665   6.593  12.859  0.00  0.00    +0.000 C 
BRANCH   8   9
ATOM      9  N   UNL     1      45.858   5.207  12.421  0.00  0.00    +0.000 NA
ATOM     10  H   UNL     1      45.950   4.628  13.259  0.00  0.00    +0.000 HD
BRANCH   9  12
ATOM     11  C   UNL     1      43.587   5.798  11.510  0.00  0.00    +0.000 C 
ATOM     12  C   UNL     1      44.660   4.715  11.678  0.00  0.00    +0.000 C 
BRANCH  12  13
ATOM     13  C   UNL     1      44.977   4.109  10.307  0.00  0.00    +0.000 A 
ATOM     14  C   UNL     1      45.513   4.860   9.262  0.00  0.00    +0.000 A 
ATOM     15  C   UNL     1      45.847   4.219   8.067  0.00  0.00    +0.000 A 
ATOM     16  C   UNL     1      45.604   2.860   7.927  0.00  0.00    +0.000 A 
ATOM     17  C   UNL     1      45.016   2.194   8.987  0.00  0.00    +0.000 A 
ATOM     18  N   UNL     1      44.709   2.781  10.166  0.00  0.00    +0.000 NA
ENDBRANCH  12  13
ENDBRANCH   9  12
ENDBRANCH   8   9
ENDBRANCH   1   8
BRANCH   4  19
ATOM     19  C   UNL     1      50.693   9.530  12.671  0.00  0.00    +0.000 C 
BRANCH  19  20
ATOM     20  N   UNL     1      51.753   8.581  12.452  0.00  0.00    +0.000 N 
ATOM     21  C   UNL     1      52.692   8.740  11.469  0.00  0.00    +0.000 C 
ATOM     22  O   UNL     1      52.744   9.742  10.761  0.00  0.00    +0.000 OA
ATOM     23  H   UNL     1      51.598   7.654  12.838  0.00  0.00    +0.000 HD
BRANCH  21  24
ATOM     24  C   UNL     1      53.692   7.671  11.358  0.00  0.00    +0.000 A 
ATOM     25  C   UNL     1      54.593   7.460  12.393  0.00  0.00    +0.000 A 
ATOM     26  S   UNL     1      55.643   6.142  12.123  0.00  0.00    +0.000 S 
ATOM     27  C   UNL     1      54.956   5.834  10.595  0.00  0.00    +0.000 A 
ATOM     28  N   UNL     1      55.418   4.824   9.810  0.00  0.00    +0.000 NA
ATOM     29  C   UNL     1      54.831   4.729   8.666  0.00  0.00    +0.000 A 
ATOM     30  N   UNL     1      53.822   5.551   8.234  0.00  0.00    +0.000 N 
ATOM     31  C   UNL     1      53.302   6.562   9.003  0.00  0.00    +0.000 A 
ATOM     32  O   UNL     1      52.362   7.248   8.609  0.00  0.00    +0.000 OA
ATOM     33  C   UNL     1      53.935   6.720  10.299  0.00  0.00    +0.000 A 
ATOM     34  H   UNL     1      53.399   5.420   7.326  0.00  0.00    +0.000 HD
ENDBRANCH  21  24
ENDBRANCH  19  20
ENDBRANCH   4  19
TORSDOF 7
ENDMDL
