MODEL 1
REMARK VINA RESULT:    -7.817      0.000      0.000
REMARK INTER + INTRA:         -11.288
REMARK INTER:                 -10.787
REMARK INTRA:                  -0.501
REMARK UNBOUND:                -0.501
REMARK  Name = 
REMARK  7 active torsions:
REMARK  status: ('A' for Active; 'I' for Inactive)
REMARK    1  A    between atoms: N_1  and  C_2
REMARK    2  A    between atoms: C_2  and  C_3
REMARK    3  A    between atoms: C_7  and  C_8
REMARK    4  A    between atoms: C_8  and  C_9
REMARK    5  A    between atoms: C_9  and  N_10
REMARK    6  A    between atoms: N_10  and  C_11
REMARK    7  A    between atoms: C_14  and  C_15
REMARK                            x       y       z     vdW  Elec       q    Type
REMARK                         _______ _______ _______ _____ _____    ______ ____
ROOT
ATOM      1  N   UNL     1      43.840   5.043   9.784  0.00  0.00    +0.000 N 
ATOM      2  H   UNL     1      43.659   5.823   9.154  0.00  0.00    +0.000 HD
ENDROOT
BRANCH   1   3
ATOM      3  C   UNL     1      44.693   4.125   9.124  0.00  0.00    +0.000 A 
ATOM      4  N   UNL     1      45.506   4.603   8.152  0.00  0.00    +0.000 NA
ATOM      5  C   UNL     1      46.334   3.749   7.508  0.00  0.00    +0.000 A 
ATOM      6  C   UNL     1      46.426   2.400   7.791  0.00  0.00    +0.000 A 
ATOM      7  C   UNL     1      45.608   1.903   8.807  0.00  0.00    +0.000 A 
ATOM      8  C   UNL     1      44.730   2.765   9.476  0.00  0.00    +0.000 A 
ATOM      9 CL   UNL     1      43.706   2.106  10.700  0.00  0.00    +0.000 Cl
BRANCH   6  10
ATOM     10  C   UNL     1      47.335   1.487   7.061  0.00  0.00    +0.000 C 
ATOM     11  N   UNL     1      48.420   2.005   6.407  0.00  0.00    +0.000 N 
ATOM     12  O   UNL     1      47.117   0.284   7.030  0.00  0.00    +0.000 OA
ATOM     13  H   UNL     1      48.674   2.974   6.338  0.00  0.00    +0.000 HD
ATOM     14  H   UNL     1      48.999   1.341   5.904  0.00  0.00    +0.000 HD
ENDBRANCH   6  10
ENDBRANCH   1   3
BRANCH   1  15
ATOM     15  C   UNL     1      44.373   5.455  11.092  0.00  0.00    +0.000 C 
BRANCH  15  16
ATOM     16  C   UNL     1      45.295   6.677  11.006  0.00  0.00    +0.000 C 
BRANCH  16  21
ATOM     17  C   UNL     1      47.240   5.546  14.114  0.00  0.00    +0.000 A 
ATOM     18  C   UNL     1      48.368   6.372  14.033  0.00  0.00    +0.000 A 
ATOM     19  C   UNL     1      48.474   7.331  13.025  0.00  0.00    +0.000 A 
ATOM     20  C   UNL     1      47.462   7.462  12.070  0.00  0.00    +0.000 A 
ATOM     21  C   UNL     1      46.334   6.632  12.112  0.00  0.00    +0.000 A 
ATOM     22  C   UNL     1      46.229   5.688  13.147  0.00  0.00    +0.000 A 
BRANCH  17  23
ATOM     23  C   UNL     1      47.144   4.477  15.176  0.00  0.00    +0.000 C 
BRANCH  23  24
ATOM     24  N   UNL     1      47.557   3.166  14.688  0.00  0.00    +0.000 NA
ATOM     25  H   UNL     1      47.655   2.533  15.481  0.00  0.00    +0.000 HD
ATOM     26  H   UNL     1      48.486   3.250  14.274  0.00  0.00    +0.000 HD
ENDBRANCH  23  24
ENDBRANCH  17  23
ENDBRANCH  16  21
ENDBRANCH  15  16
ENDBRANCH   1  15
TORSDOF 7
ENDMDL
MODEL 2
REMARK VINA RESULT:    -7.666      2.714      6.524
REMARK INTER + INTRA:         -11.080
REMARK INTER:                 -10.541
REMARK INTRA:                  -0.539
REMARK UNBOUND:                -0.501
REMARK  Name = 
REMARK  7 active torsions:
REMARK  status: ('A' for Active; 'I' for Inactive)
REMARK    1  A    between atoms: N_1  and  C_2
REMARK    2  A    between atoms: C_2  and  C_3
REMARK    3  A    between atoms: C_7  and  C_8
REMARK    4  A    between atoms: C_8  and  C_9
REMARK    5  A    between atoms: C_9  and  N_10
REMARK    6  A    between atoms: N_10  and  C_11
REMARK    7  A    between atoms: C_14  and  C_15
REMARK                            x       y       z     vdW  Elec       q    Type
REMARK                         _______ _______ _______ _____ _____    ______ ____
ROOT
ATOM      1  N   UNL     1      43.526   3.830  12.487  0.00  0.00    +0.000 N 
ATOM      2  H   UNL     1      43.557   2.943  12.988  0.00  0.00    +0.000 HD
ENDROOT
BRANCH   1   3
ATOM      3  C   UNL     1      44.682   4.575  12.822  0.00  0.00    +0.000 A 
ATOM      4  N   UNL     1      45.641   3.959  13.554  0.00  0.00    +0.000 NA
ATOM      5  C   UNL     1      46.759   4.646  13.884  0.00  0.00    +0.000 A 
ATOM      6  C   UNL     1      47.006   5.951  13.504  0.00  0.00    +0.000 A 
ATOM      7  C   UNL     1      46.032   6.586  12.730  0.00  0.00    +0.000 A 
ATOM      8  C   UNL     1      44.860   5.901  12.390  0.00  0.00    +0.000 A 
ATOM      9 CL   UNL     1      43.662   6.732  11.465  0.00  0.00    +0.000 Cl
BRANCH   6  10
ATOM     10  C   UNL     1      48.234   6.681  13.891  0.00  0.00    +0.000 C 
ATOM     11  N   UNL     1      48.233   7.433  15.034  0.00  0.00    +0.000 N 
ATOM     12  O   UNL     1      49.239   6.623  13.195  0.00  0.00    +0.000 OA
ATOM     13  H   UNL     1      47.460   7.579  15.657  0.00  0.00    +0.000 HD
ATOM     14  H   UNL     1      49.092   7.931  15.243  0.00  0.00    +0.000 HD
ENDBRANCH   6  10
ENDBRANCH   1   3
BRANCH   1  15
ATOM     15  C   UNL     1      43.364   3.678  11.032  0.00  0.00    +0.000 C 
BRANCH  15  16
ATOM     16  C   UNL     1      44.102   2.456  10.473  0.00  0.00    +0.000 C 
BRANCH  16  21
ATOM     17  C   UNL     1      46.646   2.277   7.607  0.00  0.00    +0.000 A 
ATOM     18  C   UNL     1      46.729   3.627   7.244  0.00  0.00    +0.000 A 
ATOM     19  C   UNL     1      46.023   4.597   7.957  0.00  0.00    +0.000 A 
ATOM     20  C   UNL     1      45.207   4.227   9.029  0.00  0.00    +0.000 A 
ATOM     21  C   UNL     1      45.085   2.881   9.397  0.00  0.00    +0.000 A 
ATOM     22  C   UNL     1      45.822   1.918   8.687  0.00  0.00    +0.000 A 
BRANCH  17  23
ATOM     23  C   UNL     1      47.373   1.220   6.810  0.00  0.00    +0.000 C 
BRANCH  23  24
ATOM     24  N   UNL     1      48.340   1.791   5.878  0.00  0.00    +0.000 NA
ATOM     25  H   UNL     1      48.904   1.039   5.484  0.00  0.00    +0.000 HD
ATOM     26  H   UNL     1      48.983   2.387   6.398  0.00  0.00    +0.000 HD
ENDBRANCH  23  24
ENDBRANCH  17  23
ENDBRANCH  16  21
ENDBRANCH  15  16
ENDBRANCH   1  15
TORSDOF 7
ENDMDL
MODEL 3
REMARK VINA RESULT:    -7.663      3.069      6.699
REMARK INTER + INTRA:         -11.075
REMARK INTER:                 -10.421
REMARK INTRA:                  -0.654
REMARK UNBOUND:                -0.501
REMARK  Name = 
REMARK  7 active torsions:
REMARK  status: ('A' for Active; 'I' for Inactive)
REMARK    1  A    between atoms: N_1  and  C_2
REMARK    2  A    between atoms: C_2  and  C_3
REMARK    3  A    between atoms: C_7  and  C_8
REMARK    4  A    between atoms: C_8  and  C_9
REMARK    5  A    between atoms: C_9  and  N_10
REMARK    6  A    between atoms: N_10  and  C_11
REMARK    7  A    between atoms: C_14  and  C_15
REMARK                            x       y       z     vdW  Elec       q    Type
REMARK                         _______ _______ _______ _____ _____    ______ ____
ROOT
ATOM      1  N   UNL     1      44.079   3.545  12.615  0.00  0.00    +0.000 N 
ATOM      2  H   UNL     1      44.703   2.772  12.841  0.00  0.00    +0.000 HD
ENDROOT
BRANCH   1   3
ATOM      3  C   UNL     1      44.796   4.757  12.762  0.00  0.00    +0.000 A 
ATOM      4  N   UNL     1      44.164   5.909  12.434  0.00  0.00    +0.000 NA
ATOM      5  C   UNL     1      44.824   7.082  12.569  0.00  0.00    +0.000 A 
ATOM      6  C   UNL     1      46.116   7.193  13.045  0.00  0.00    +0.000 A 
ATOM      7  C   UNL     1      46.767   6.011  13.407  0.00  0.00    +0.000 A 
ATOM      8  C   UNL     1      46.110   4.784  13.260  0.00  0.00    +0.000 A 
ATOM      9 CL   UNL     1      46.961   3.342  13.681  0.00  0.00    +0.000 Cl
BRANCH   6  10
ATOM     10  C   UNL     1      46.817   8.491  13.171  0.00  0.00    +0.000 C 
ATOM     11  N   UNL     1      47.112   8.973  14.417  0.00  0.00    +0.000 N 
ATOM     12  O   UNL     1      47.123   9.134  12.176  0.00  0.00    +0.000 OA
ATOM     13  H   UNL     1      46.879   8.549  15.297  0.00  0.00    +0.000 HD
ATOM     14  H   UNL     1      47.574   9.877  14.450  0.00  0.00    +0.000 HD
ENDBRANCH   6  10
ENDBRANCH   1   3
BRANCH   1  15
ATOM     15  C   UNL     1      43.453   3.426  11.288  0.00  0.00    +0.000 C 
BRANCH  15  16
ATOM     16  C   UNL     1      43.992   2.243  10.476  0.00  0.00    +0.000 C 
BRANCH  16  21
ATOM     17  C   UNL     1      46.558   2.226   7.623  0.00  0.00    +0.000 A 
ATOM     18  C   UNL     1      46.625   3.593   7.322  0.00  0.00    +0.000 A 
ATOM     19  C   UNL     1      45.901   4.521   8.072  0.00  0.00    +0.000 A 
ATOM     20  C   UNL     1      45.083   4.092   9.120  0.00  0.00    +0.000 A 
ATOM     21  C   UNL     1      44.977   2.729   9.428  0.00  0.00    +0.000 A 
ATOM     22  C   UNL     1      45.731   1.809   8.680  0.00  0.00    +0.000 A 
BRANCH  17  23
ATOM     23  C   UNL     1      47.305   1.217   6.785  0.00  0.00    +0.000 C 
BRANCH  23  24
ATOM     24  N   UNL     1      48.318   1.835   5.937  0.00  0.00    +0.000 NA
ATOM     25  H   UNL     1      48.047   1.723   4.961  0.00  0.00    +0.000 HD
ATOM     26  H   UNL     1      49.194   1.325   6.050  0.00  0.00    +0.000 HD
ENDBRANCH  23  24
ENDBRANCH  17  23
ENDBRANCH  16  21
ENDBRANCH  15  16
ENDBRANCH   1  15
TORSDOF 7
ENDMDL
MODEL 4
REMARK VINA RESULT:    -7.392      2.061      2.899
REMARK INTER + INTRA:         -10.702
REMARK INTER:                  -9.713
REMARK INTRA:                  -0.989
REMARK UNBOUND:                -0.501
REMARK  Name = 
REMARK  7 active torsions:
REMARK  status: ('A' for Active; 'I' for Inactive)
REMARK    1  A    between atoms: N_1  and  C_2
REMARK    2  A    between atoms: C_2  and  C_3
REMARK    3  A    between atoms: C_7  and  C_8
REMARK    4  A    between atoms: C_8  and  C_9
REMARK    5  A    between atoms: C_9  and  N_10
REMARK    6  A    between atoms: N_10  and  C_11
REMARK    7  A    between atoms: C_14  and  C_15
REMARK                            x       y       z     vdW  Elec       q    Type
REMARK                         _______ _______ _______ _____ _____    ______ ____
ROOT
ATOM      1  N   UNL     1      43.412   4.094  10.583  0.00  0.00    +0.000 N 
ATOM      2  H   UNL     1      43.645   5.085  10.583  0.00  0.00    +0.000 HD
ENDROOT
BRANCH   1   3
ATOM      3  C   UNL     1      44.347   3.413   9.766  0.00  0.00    +0.000 A 
ATOM      4  N   UNL     1      44.135   2.098   9.522  0.00  0.00    +0.000 NA
ATOM      5  C   UNL     1      45.010   1.425   8.742  0.00  0.00    +0.000 A 
ATOM      6  C   UNL     1      46.117   1.998   8.147  0.00  0.00    +0.000 A 
ATOM      7  C   UNL     1      46.331   3.360   8.375  0.00  0.00    +0.000 A 
ATOM      8  C   UNL     1      45.448   4.073   9.194  0.00  0.00    +0.000 A 
ATOM      9 CL   UNL     1      45.767   5.746   9.484  0.00  0.00    +0.000 Cl
BRANCH   6  10
ATOM     10  C   UNL     1      47.064   1.232   7.306  0.00  0.00    +0.000 C 
ATOM     11  N   UNL     1      48.093   1.891   6.687  0.00  0.00    +0.000 N 
ATOM     12  O   UNL     1      46.929   0.026   7.154  0.00  0.00    +0.000 OA
ATOM     13  H   UNL     1      48.278   2.877   6.714  0.00  0.00    +0.000 HD
ATOM     14  H   UNL     1      48.701   1.325   6.105  0.00  0.00    +0.000 HD
ENDBRANCH   6  10
ENDBRANCH   1   3
BRANCH   1  15
ATOM     15  C   UNL     1      43.324   3.511  11.932  0.00  0.00    +0.000 C 
BRANCH  15  16
ATOM     16  C   UNL     1      43.412   4.562  13.044  0.00  0.00    +0.000 C 
BRANCH  16  21
ATOM     17  C   UNL     1      46.054   7.337  12.828  0.00  0.00    +0.000 A 
ATOM     18  C   UNL     1      47.213   6.622  13.156  0.00  0.00    +0.000 A 
ATOM     19  C   UNL     1      47.158   5.246  13.379  0.00  0.00    +0.000 A 
ATOM     20  C   UNL     1      45.937   4.569  13.302  0.00  0.00    +0.000 A 
ATOM     21  C   UNL     1      44.758   5.263  13.002  0.00  0.00    +0.000 A 
ATOM     22  C   UNL     1      44.833   6.644  12.753  0.00  0.00    +0.000 A 
BRANCH  17  23
ATOM     23  C   UNL     1      46.103   8.832  12.629  0.00  0.00    +0.000 C 
BRANCH  23  24
ATOM     24  N   UNL     1      44.806   9.467  12.841  0.00  0.00    +0.000 NA
ATOM     25  H   UNL     1      44.172   8.790  13.263  0.00  0.00    +0.000 HD
ATOM     26  H   UNL     1      44.407   9.705  11.933  0.00  0.00    +0.000 HD
ENDBRANCH  23  24
ENDBRANCH  17  23
ENDBRANCH  16  21
ENDBRANCH  15  16
ENDBRANCH   1  15
TORSDOF 7
ENDMDL
MODEL 5
REMARK VINA RESULT:    -7.319      1.758      2.216
REMARK INTER + INTRA:         -10.601
REMARK INTER:                 -10.122
REMARK INTRA:                  -0.479
REMARK UNBOUND:                -0.501
REMARK  Name = 
REMARK  7 active torsions:
REMARK  status: ('A' for Active; 'I' for Inactive)
REMARK    1  A    between atoms: N_1  and  C_2
REMARK    2  A    between atoms: C_2  and  C_3
REMARK    3  A    between atoms: C_7  and  C_8
REMARK    4  A    between atoms: C_8  and  C_9
REMARK    5  A    between atoms: C_9  and  N_10
REMARK    6  A    between atoms: N_10  and  C_11
REMARK    7  A    between atoms: C_14  and  C_15
REMARK                            x       y       z     vdW  Elec       q    Type
REMARK                         _______ _______ _______ _____ _____    ______ ____
ROOT
ATOM      1  N   UNL     1      44.145   5.098   9.921  0.00  0.00    +0.000 N 
ATOM      2  H   UNL     1      43.777   5.831   9.317  0.00  0.00    +0.000 HD
ENDROOT
BRANCH   1   3
ATOM      3  C   UNL     1      44.957   4.240   9.141  0.00  0.00    +0.000 A 
ATOM      4  N   UNL     1      45.786   4.808   8.233  0.00  0.00    +0.000 NA
ATOM      5  C   UNL     1      46.577   4.013   7.476  0.00  0.00    +0.000 A 
ATOM      6  C   UNL     1      46.615   2.636   7.580  0.00  0.00    +0.000 A 
ATOM      7  C   UNL     1      45.780   2.044   8.530  0.00  0.00    +0.000 A 
ATOM      8  C   UNL     1      44.940   2.845   9.312  0.00  0.00    +0.000 A 
ATOM      9 CL   UNL     1      43.894   2.073  10.448  0.00  0.00    +0.000 Cl
BRANCH   6  10
ATOM     10  C   UNL     1      47.484   1.791   6.730  0.00  0.00    +0.000 C 
ATOM     11  N   UNL     1      48.559   2.357   6.100  0.00  0.00    +0.000 N 
ATOM     12  O   UNL     1      47.242   0.601   6.580  0.00  0.00    +0.000 OA
ATOM     13  H   UNL     1      48.829   3.324   6.124  0.00  0.00    +0.000 HD
ATOM     14  H   UNL     1      49.110   1.740   5.512  0.00  0.00    +0.000 HD
ENDBRANCH   6  10
ENDBRANCH   1   3
BRANCH   1  15
ATOM     15  C   UNL     1      44.854   5.611  11.104  0.00  0.00    +0.000 C 
BRANCH  15  16
ATOM     16  C   UNL     1      44.344   6.983  11.559  0.00  0.00    +0.000 C 
BRANCH  16  21
ATOM     17  C   UNL     1      47.930   8.272  12.016  0.00  0.00    +0.000 A 
ATOM     18  C   UNL     1      47.707   9.654  12.071  0.00  0.00    +0.000 A 
ATOM     19  C   UNL     1      46.410  10.165  12.028  0.00  0.00    +0.000 A 
ATOM     20  C   UNL     1      45.317   9.302  11.906  0.00  0.00    +0.000 A 
ATOM     21  C   UNL     1      45.512   7.917  11.823  0.00  0.00    +0.000 A 
ATOM     22  C   UNL     1      46.822   7.415  11.893  0.00  0.00    +0.000 A 
BRANCH  17  23
ATOM     23  C   UNL     1      49.334   7.718  12.017  0.00  0.00    +0.000 C 
BRANCH  23  24
ATOM     24  N   UNL     1      49.493   6.601  12.941  0.00  0.00    +0.000 NA
ATOM     25  H   UNL     1      48.605   6.107  13.019  0.00  0.00    +0.000 HD
ATOM     26  H   UNL     1      49.695   6.972  13.869  0.00  0.00    +0.000 HD
ENDBRANCH  23  24
ENDBRANCH  17  23
ENDBRANCH  16  21
ENDBRANCH  15  16
ENDBRANCH   1  15
TORSDOF 7
ENDMDL
MODEL 6
REMARK VINA RESULT:    -6.786      1.862      2.985
REMARK INTER + INTRA:          -9.866
REMARK INTER:                  -9.858
REMARK INTRA:                  -0.009
REMARK UNBOUND:                -0.501
REMARK  Name = 
REMARK  7 active torsions:
REMARK  status: ('A' for Active; 'I' for Inactive)
REMARK    1  A    between atoms: N_1  and  C_2
REMARK    2  A    between atoms: C_2  and  C_3
REMARK    3  A    between atoms: C_7  and  C_8
REMARK    4  A    between atoms: C_8  and  C_9
REMARK    5  A    between atoms: C_9  and  N_10
REMARK    6  A    between atoms: N_10  and  C_11
REMARK    7  A    between atoms: C_14  and  C_15
REMARK                            x       y       z     vdW  Elec       q    Type
REMARK                         _______ _______ _______ _____ _____    ______ ____
ROOT
ATOM      1  N   UNL     1      43.797   4.840   9.905  0.00  0.00    +0.000 N 
ATOM      2  H   UNL     1      43.799   5.785   9.524  0.00  0.00    +0.000 HD
ENDROOT
BRANCH   1   3
ATOM      3  C   UNL     1      44.730   4.062   9.177  0.00  0.00    +0.000 A 
ATOM      4  N   UNL     1      45.574   4.708   8.338  0.00  0.00    +0.000 NA
ATOM      5  C   UNL     1      46.478   3.991   7.633  0.00  0.00    +0.000 A 
ATOM      6  C   UNL     1      46.620   2.620   7.726  0.00  0.00    +0.000 A 
ATOM      7  C   UNL     1      45.769   1.948   8.607  0.00  0.00    +0.000 A 
ATOM      8  C   UNL     1      44.814   2.668   9.333  0.00  0.00    +0.000 A 
ATOM      9 CL   UNL     1      43.754   1.797  10.384  0.00  0.00    +0.000 Cl
BRANCH   6  10
ATOM     10  C   UNL     1      47.612   1.860   6.933  0.00  0.00    +0.000 C 
ATOM     11  N   UNL     1      48.449   2.534   6.085  0.00  0.00    +0.000 N 
ATOM     12  O   UNL     1      47.681   0.642   7.022  0.00  0.00    +0.000 OA
ATOM     13  H   UNL     1      48.457   3.523   5.908  0.00  0.00    +0.000 HD
ATOM     14  H   UNL     1      49.096   1.966   5.548  0.00  0.00    +0.000 HD
ENDBRANCH   6  10
ENDBRANCH   1   3
BRANCH   1  15
ATOM     15  C   UNL     1      44.044   4.791  11.355  0.00  0.00    +0.000 C 
BRANCH  15  16
ATOM     16  C   UNL     1      45.517   5.005  11.720  0.00  0.00    +0.000 C 
BRANCH  16  21
ATOM     17  C   UNL     1      45.108   8.815  11.527  0.00  0.00    +0.000 A 
ATOM     18  C   UNL     1      46.287   9.239  12.153  0.00  0.00    +0.000 A 
ATOM     19  C   UNL     1      47.239   8.309  12.575  0.00  0.00    +0.000 A 
ATOM     20  C   UNL     1      47.013   6.941  12.398  0.00  0.00    +0.000 A 
ATOM     21  C   UNL     1      45.830   6.489  11.798  0.00  0.00    +0.000 A 
ATOM     22  C   UNL     1      44.893   7.437  11.355  0.00  0.00    +0.000 A 
BRANCH  17  23
ATOM     23  C   UNL     1      44.057   9.816  11.110  0.00  0.00    +0.000 C 
BRANCH  23  24
ATOM     24  N   UNL     1      43.535  10.580  12.238  0.00  0.00    +0.000 NA
ATOM     25  H   UNL     1      43.838  10.139  13.105  0.00  0.00    +0.000 HD
ATOM     26  H   UNL     1      42.517  10.521  12.229  0.00  0.00    +0.000 HD
ENDBRANCH  23  24
ENDBRANCH  17  23
ENDBRANCH  16  21
ENDBRANCH  15  16
ENDBRANCH   1  15
TORSDOF 7
ENDMDL
MODEL 7
REMARK VINA RESULT:    -6.574      3.574      5.520
REMARK INTER + INTRA:          -9.573
REMARK INTER:                  -9.194
REMARK INTRA:                  -0.379
REMARK UNBOUND:                -0.501
REMARK  Name = 
REMARK  7 active torsions:
REMARK  status: ('A' for Active; 'I' for Inactive)
REMARK    1  A    between atoms: N_1  and  C_2
REMARK    2  A    between atoms: C_2  and  C_3
REMARK    3  A    between atoms: C_7  and  C_8
REMARK    4  A    between atoms: C_8  and  C_9
REMARK    5  A    between atoms: C_9  and  N_10
REMARK    6  A    between atoms: N_10  and  C_11
REMARK    7  A    between atoms: C_14  and  C_15
REMARK                            x       y       z     vdW  Elec       q    Type
REMARK                         _______ _______ _______ _____ _____    ______ ____
ROOT
ATOM      1  N   UNL     1      46.738   4.969  14.797  0.00  0.00    +0.000 N 
ATOM      2  H   UNL     1      47.383   5.744  14.657  0.00  0.00    +0.000 HD
ENDROOT
BRANCH   1   3
ATOM      3  C   UNL     1      46.139   4.655  13.552  0.00  0.00    +0.000 A 
ATOM      4  N   UNL     1      45.906   3.350  13.274  0.00  0.00    +0.000 NA
ATOM      5  C   UNL     1      45.331   3.022  12.095  0.00  0.00    +0.000 A 
ATOM      6  C   UNL     1      44.937   3.942  11.143  0.00  0.00    +0.000 A 
ATOM      7  C   UNL     1      45.153   5.291  11.432  0.00  0.00    +0.000 A 
ATOM      8  C   UNL     1      45.763   5.654  12.638  0.00  0.00    +0.000 A 
ATOM      9 CL   UNL     1      46.049   7.330  12.943  0.00  0.00    +0.000 Cl
BRANCH   6  10
ATOM     10  C   UNL     1      44.320   3.552   9.855  0.00  0.00    +0.000 C 
ATOM     11  N   UNL     1      44.191   4.487   8.864  0.00  0.00    +0.000 N 
ATOM     12  O   UNL     1      43.918   2.410   9.677  0.00  0.00    +0.000 OA
ATOM     13  H   UNL     1      44.453   5.455   8.914  0.00  0.00    +0.000 HD
ATOM     14  H   UNL     1      43.742   4.175   8.009  0.00  0.00    +0.000 HD
ENDBRANCH   6  10
ENDBRANCH   1   3
BRANCH   1  15
ATOM     15  C   UNL     1      47.359   3.793  15.427  0.00  0.00    +0.000 C 
BRANCH  15  16
ATOM     16  C   UNL     1      47.532   3.948  16.942  0.00  0.00    +0.000 C 
BRANCH  16  21
ATOM     17  C   UNL     1      51.132   2.736  17.481  0.00  0.00    +0.000 A 
ATOM     18  C   UNL     1      51.780   3.949  17.748  0.00  0.00    +0.000 A 
ATOM     19  C   UNL     1      51.056   5.139  17.821  0.00  0.00    +0.000 A 
ATOM     20  C   UNL     1      49.675   5.136  17.603  0.00  0.00    +0.000 A 
ATOM     21  C   UNL     1      49.005   3.942  17.309  0.00  0.00    +0.000 A 
ATOM     22  C   UNL     1      49.743   2.747  17.265  0.00  0.00    +0.000 A 
BRANCH  17  23
ATOM     23  C   UNL     1      51.920   1.454  17.358  0.00  0.00    +0.000 C 
BRANCH  23  24
ATOM     24  N   UNL     1      51.336   0.364  18.133  0.00  0.00    +0.000 NA
ATOM     25  H   UNL     1      51.420   0.582  19.125  0.00  0.00    +0.000 HD
ATOM     26  H   UNL     1      51.889  -0.479  17.978  0.00  0.00    +0.000 HD
ENDBRANCH  23  24
ENDBRANCH  17  23
ENDBRANCH  16  21
ENDBRANCH  15  16
ENDBRANCH   1  15
TORSDOF 7
ENDMDL
MODEL 8
REMARK VINA RESULT:    -6.332      3.833      7.792
REMARK INTER + INTRA:          -9.239
REMARK INTER:                  -8.779
REMARK INTRA:                  -0.460
REMARK UNBOUND:                -0.501
REMARK  Name = 
REMARK  7 active torsions:
REMARK  status: ('A' for Active; 'I' for Inactive)
REMARK    1  A    between atoms: N_1  and  C_2
REMARK    2  A    between atoms: C_2  and  C_3
REMARK    3  A    between atoms: C_7  and  C_8
REMARK    4  A    between atoms: C_8  and  C_9
REMARK    5  A    between atoms: C_9  and  N_10
REMARK    6  A    between atoms: N_10  and  C_11
REMARK    7  A    between atoms: C_14  and  C_15
REMARK                            x       y       z     vdW  Elec       q    Type
REMARK                         _______ _______ _______ _____ _____    ______ ____
ROOT
ATOM      1  N   UNL     1      47.000   5.229  13.035  0.00  0.00    +0.000 N 
ATOM      2  H   UNL     1      47.729   5.751  12.551  0.00  0.00    +0.000 HD
ENDROOT
BRANCH   1   3
ATOM      3  C   UNL     1      47.377   5.087  14.393  0.00  0.00    +0.000 A 
ATOM      4  N   UNL     1      46.952   3.984  15.055  0.00  0.00    +0.000 NA
ATOM      5  C   UNL     1      47.302   3.821  16.351  0.00  0.00    +0.000 A 
ATOM      6  C   UNL     1      48.094   4.705  17.057  0.00  0.00    +0.000 A 
ATOM      7  C   UNL     1      48.556   5.833  16.375  0.00  0.00    +0.000 A 
ATOM      8  C   UNL     1      48.193   6.032  15.038  0.00  0.00    +0.000 A 
ATOM      9 CL   UNL     1      48.751   7.458  14.239  0.00  0.00    +0.000 Cl
BRANCH   6  10
ATOM     10  C   UNL     1      48.451   4.504  18.479  0.00  0.00    +0.000 C 
ATOM     11  N   UNL     1      48.301   3.263  19.038  0.00  0.00    +0.000 N 
ATOM     12  O   UNL     1      48.866   5.435  19.156  0.00  0.00    +0.000 OA
ATOM     13  H   UNL     1      47.940   2.442  18.589  0.00  0.00    +0.000 HD
ATOM     14  H   UNL     1      48.539   3.183  20.021  0.00  0.00    +0.000 HD
ENDBRANCH   6  10
ENDBRANCH   1   3
BRANCH   1  15
ATOM     15  C   UNL     1      45.660   5.819  12.889  0.00  0.00    +0.000 C 
BRANCH  15  16
ATOM     16  C   UNL     1      45.322   6.187  11.440  0.00  0.00    +0.000 C 
BRANCH  16  21
ATOM     17  C   UNL     1      45.310   3.532   8.670  0.00  0.00    +0.000 A 
ATOM     18  C   UNL     1      44.530   2.533   9.267  0.00  0.00    +0.000 A 
ATOM     19  C   UNL     1      43.956   2.737  10.522  0.00  0.00    +0.000 A 
ATOM     20  C   UNL     1      44.175   3.934  11.209  0.00  0.00    +0.000 A 
ATOM     21  C   UNL     1      44.972   4.940  10.648  0.00  0.00    +0.000 A 
ATOM     22  C   UNL     1      45.522   4.731   9.372  0.00  0.00    +0.000 A 
BRANCH  17  23
ATOM     23  C   UNL     1      45.968   3.296   7.332  0.00  0.00    +0.000 C 
BRANCH  23  24
ATOM     24  N   UNL     1      46.872   4.379   6.957  0.00  0.00    +0.000 NA
ATOM     25  H   UNL     1      47.807   3.996   6.819  0.00  0.00    +0.000 HD
ATOM     26  H   UNL     1      46.943   5.030   7.738  0.00  0.00    +0.000 HD
ENDBRANCH  23  24
ENDBRANCH  17  23
ENDBRANCH  16  21
ENDBRANCH  15  16
ENDBRANCH   1  15
TORSDOF 7
ENDMDL
MODEL 9
REMARK VINA RESULT:    -6.276      3.058      6.436
REMARK INTER + INTRA:          -9.162
REMARK INTER:                  -8.814
REMARK INTRA:                  -0.348
REMARK UNBOUND:                -0.501
REMARK  Name = 
REMARK  7 active torsions:
REMARK  status: ('A' for Active; 'I' for Inactive)
REMARK    1  A    between atoms: N_1  and  C_2
REMARK    2  A    between atoms: C_2  and  C_3
REMARK    3  A    between atoms: C_7  and  C_8
REMARK    4  A    between atoms: C_8  and  C_9
REMARK    5  A    between atoms: C_9  and  N_10
REMARK    6  A    between atoms: N_10  and  C_11
REMARK    7  A    between atoms: C_14  and  C_15
REMARK                            x       y       z     vdW  Elec       q    Type
REMARK                         _______ _______ _______ _____ _____    ______ ____
ROOT
ATOM      1  N   UNL     1      43.582   5.694  12.433  0.00  0.00    +0.000 N 
ATOM      2  H   UNL     1      43.289   5.069  13.183  0.00  0.00    +0.000 HD
ENDROOT
BRANCH   1   3
ATOM      3  C   UNL     1      44.935   6.052  12.652  0.00  0.00    +0.000 A 
ATOM      4  N   UNL     1      45.248   7.370  12.649  0.00  0.00    +0.000 NA
ATOM      5  C   UNL     1      46.532   7.741  12.860  0.00  0.00    +0.000 A 
ATOM      6  C   UNL     1      47.563   6.856  13.104  0.00  0.00    +0.000 A 
ATOM      7  C   UNL     1      47.244   5.496  13.132  0.00  0.00    +0.000 A 
ATOM      8  C   UNL     1      45.926   5.087  12.899  0.00  0.00    +0.000 A 
ATOM      9 CL   UNL     1      45.578   3.396  12.903  0.00  0.00    +0.000 Cl
BRANCH   6  10
ATOM     10  C   UNL     1      48.961   7.291  13.320  0.00  0.00    +0.000 C 
ATOM     11  N   UNL     1      49.900   7.027  12.359  0.00  0.00    +0.000 N 
ATOM     12  O   UNL     1      49.282   7.872  14.348  0.00  0.00    +0.000 OA
ATOM     13  H   UNL     1      49.757   6.530  11.499  0.00  0.00    +0.000 HD
ATOM     14  H   UNL     1      50.848   7.326  12.565  0.00  0.00    +0.000 HD
ENDBRANCH   6  10
ENDBRANCH   1   3
BRANCH   1  15
ATOM     15  C   UNL     1      43.364   5.141  11.088  0.00  0.00    +0.000 C 
BRANCH  15  16
ATOM     16  C   UNL     1      44.505   5.465  10.115  0.00  0.00    +0.000 C 
BRANCH  16  21
ATOM     17  C   UNL     1      46.414   3.122   7.751  0.00  0.00    +0.000 A 
ATOM     18  C   UNL     1      45.863   1.884   8.106  0.00  0.00    +0.000 A 
ATOM     19  C   UNL     1      44.839   1.808   9.051  0.00  0.00    +0.000 A 
ATOM     20  C   UNL     1      44.368   2.969   9.671  0.00  0.00    +0.000 A 
ATOM     21  C   UNL     1      44.918   4.218   9.354  0.00  0.00    +0.000 A 
ATOM     22  C   UNL     1      45.930   4.281   8.382  0.00  0.00    +0.000 A 
BRANCH  17  23
ATOM     23  C   UNL     1      47.552   3.202   6.763  0.00  0.00    +0.000 C 
BRANCH  23  24
ATOM     24  N   UNL     1      47.094   3.143   5.378  0.00  0.00    +0.000 NA
ATOM     25  H   UNL     1      47.844   2.771   4.797  0.00  0.00    +0.000 HD
ATOM     26  H   UNL     1      46.924   4.093   5.050  0.00  0.00    +0.000 HD
ENDBRANCH  23  24
ENDBRANCH  17  23
ENDBRANCH  16  21
ENDBRANCH  15  16
ENDBRANCH   1  15
TORSDOF 7
ENDMDL
