MODEL 1
REMARK VINA RESULT:    -7.686      0.000      0.000
REMARK INTER + INTRA:          -9.593
REMARK INTER:                  -9.259
REMARK INTRA:                  -0.334
REMARK UNBOUND:                -0.334
REMARK  Name = 
REMARK  4 active torsions:
REMARK  status: ('A' for Active; 'I' for Inactive)
REMARK    1  A    between atoms: N_1  and  C_2
REMARK    2  A    between atoms: C_2  and  C_3
REMARK    3  A    between atoms: C_7  and  C_8
REMARK    4  A    between atoms: C_8  and  N_9
REMARK                            x       y       z     vdW  Elec       q    Type
REMARK                         _______ _______ _______ _____ _____    ______ ____
ROOT
ATOM      1  C   UNL     1      45.409   4.537  13.163  0.00  0.00    +0.000 A 
ATOM      2  C   UNL     1      44.344   5.431  13.331  0.00  0.00    +0.000 A 
ATOM      3  C   UNL     1      43.215   5.355  12.514  0.00  0.00    +0.000 A 
ATOM      4  C   UNL     1      43.146   4.397  11.501  0.00  0.00    +0.000 A 
ATOM      5  C   UNL     1      44.204   3.501  11.305  0.00  0.00    +0.000 A 
ATOM      6  C   UNL     1      45.322   3.573  12.151  0.00  0.00    +0.000 A 
ENDROOT
BRANCH   1   7
ATOM      7  C   UNL     1      46.658   4.647  13.999  0.00  0.00    +0.000 C 
BRANCH   7   8
ATOM      8  N   UNL     1      47.320   3.358  14.166  0.00  0.00    +0.000 NA
ATOM      9  H   UNL     1      46.652   2.693  14.549  0.00  0.00    +0.000 HD
ATOM     10  H   UNL     1      48.054   3.463  14.865  0.00  0.00    +0.000 HD
ENDBRANCH   7   8
ENDBRANCH   1   7
BRANCH   5  11
ATOM     11  C   UNL     1      44.201   2.534  10.144  0.00  0.00    +0.000 C 
BRANCH  11  12
ATOM     12  N   UNL     1      45.042   3.034   9.065  0.00  0.00    +0.000 N 
ATOM     13  C   UNL     1      45.170   4.357   8.708  0.00  0.00    +0.000 A 
ATOM     14  C   UNL     1      46.127   4.438   7.719  0.00  0.00    +0.000 A 
ATOM     15  C   UNL     1      46.583   3.120   7.452  0.00  0.00    +0.000 A 
ATOM     16  C   UNL     1      47.539   2.547   6.596  0.00  0.00    +0.000 A 
ATOM     17  C   UNL     1      47.697   1.162   6.636  0.00  0.00    +0.000 A 
ATOM     18  C   UNL     1      46.900   0.418   7.496  0.00  0.00    +0.000 A 
ATOM     19  N   UNL     1      45.967   0.916   8.337  0.00  0.00    +0.000 NA
ATOM     20  C   UNL     1      45.862   2.261   8.281  0.00  0.00    +0.000 A 
ENDBRANCH  11  12
ENDBRANCH   5  11
TORSDOF 4
ENDMDL
MODEL 2
REMARK VINA RESULT:    -7.625      1.817      6.060
REMARK INTER + INTRA:          -9.519
REMARK INTER:                  -9.340
REMARK INTRA:                  -0.179
REMARK UNBOUND:                -0.334
REMARK  Name = 
REMARK  4 active torsions:
REMARK  status: ('A' for Active; 'I' for Inactive)
REMARK    1  A    between atoms: N_1  and  C_2
REMARK    2  A    between atoms: C_2  and  C_3
REMARK    3  A    between atoms: C_7  and  C_8
REMARK    4  A    between atoms: C_8  and  N_9
REMARK                            x       y       z     vdW  Elec       q    Type
REMARK                         _______ _______ _______ _____ _____    ______ ____
ROOT
ATOM      1  C   UNL     1      46.629   2.543   6.740  0.00  0.00    +0.000 A 
ATOM      2  C   UNL     1      46.684   1.286   7.355  0.00  0.00    +0.000 A 
ATOM      3  C   UNL     1      45.896   1.005   8.471  0.00  0.00    +0.000 A 
ATOM      4  C   UNL     1      45.056   1.985   9.002  0.00  0.00    +0.000 A 
ATOM      5  C   UNL     1      44.993   3.254   8.412  0.00  0.00    +0.000 A 
ATOM      6  C   UNL     1      45.773   3.515   7.274  0.00  0.00    +0.000 A 
ENDROOT
BRANCH   1   7
ATOM      7  C   UNL     1      47.518   2.879   5.570  0.00  0.00    +0.000 C 
BRANCH   7   8
ATOM      8  N   UNL     1      48.529   1.853   5.339  0.00  0.00    +0.000 NA
ATOM      9  H   UNL     1      49.264   2.244   4.754  0.00  0.00    +0.000 HD
ATOM     10  H   UNL     1      48.104   1.099   4.801  0.00  0.00    +0.000 HD
ENDBRANCH   7   8
ENDBRANCH   1   7
BRANCH   5  11
ATOM     11  C   UNL     1      44.182   4.364   9.038  0.00  0.00    +0.000 C 
BRANCH  11  12
ATOM     12  N   UNL     1      44.236   4.277  10.490  0.00  0.00    +0.000 N 
ATOM     13  C   UNL     1      43.450   3.453  11.264  0.00  0.00    +0.000 A 
ATOM     14  C   UNL     1      43.865   3.579  12.573  0.00  0.00    +0.000 A 
ATOM     15  C   UNL     1      44.925   4.524  12.599  0.00  0.00    +0.000 A 
ATOM     16  C   UNL     1      45.764   5.057  13.592  0.00  0.00    +0.000 A 
ATOM     17  C   UNL     1      46.720   5.994  13.199  0.00  0.00    +0.000 A 
ATOM     18  C   UNL     1      46.785   6.367  11.863  0.00  0.00    +0.000 A 
ATOM     19  N   UNL     1      46.006   5.888  10.869  0.00  0.00    +0.000 NA
ATOM     20  C   UNL     1      45.109   4.970  11.291  0.00  0.00    +0.000 A 
ENDBRANCH  11  12
ENDBRANCH   5  11
TORSDOF 4
ENDMDL
MODEL 3
REMARK VINA RESULT:    -6.878      1.524      2.704
REMARK INTER + INTRA:          -8.619
REMARK INTER:                  -8.197
REMARK INTRA:                  -0.422
REMARK UNBOUND:                -0.334
REMARK  Name = 
REMARK  4 active torsions:
REMARK  status: ('A' for Active; 'I' for Inactive)
REMARK    1  A    between atoms: N_1  and  C_2
REMARK    2  A    between atoms: C_2  and  C_3
REMARK    3  A    between atoms: C_7  and  C_8
REMARK    4  A    between atoms: C_8  and  N_9
REMARK                            x       y       z     vdW  Elec       q    Type
REMARK                         _______ _______ _______ _____ _____    ______ ____
ROOT
ATOM      1  C   UNL     1      46.537   5.329  13.648  0.00  0.00    +0.000 A 
ATOM      2  C   UNL     1      47.319   6.452  13.348  0.00  0.00    +0.000 A 
ATOM      3  C   UNL     1      47.033   7.242  12.234  0.00  0.00    +0.000 A 
ATOM      4  C   UNL     1      45.973   6.906  11.390  0.00  0.00    +0.000 A 
ATOM      5  C   UNL     1      45.185   5.780  11.661  0.00  0.00    +0.000 A 
ATOM      6  C   UNL     1      45.469   5.009  12.800  0.00  0.00    +0.000 A 
ENDROOT
BRANCH   1   7
ATOM      7  C   UNL     1      46.872   4.435  14.813  0.00  0.00    +0.000 C 
BRANCH   7   8
ATOM      8  N   UNL     1      47.408   3.149  14.381  0.00  0.00    +0.000 NA
ATOM      9  H   UNL     1      48.208   2.915  14.965  0.00  0.00    +0.000 HD
ATOM     10  H   UNL     1      47.766   3.253  13.432  0.00  0.00    +0.000 HD
ENDBRANCH   7   8
ENDBRANCH   1   7
BRANCH   5  11
ATOM     11  C   UNL     1      44.109   5.333  10.700  0.00  0.00    +0.000 C 
BRANCH  11  12
ATOM     12  N   UNL     1      44.456   4.046  10.112  0.00  0.00    +0.000 N 
ATOM     13  C   UNL     1      43.945   2.831  10.509  0.00  0.00    +0.000 A 
ATOM     14  C   UNL     1      44.432   1.868   9.650  0.00  0.00    +0.000 A 
ATOM     15  C   UNL     1      45.281   2.514   8.713  0.00  0.00    +0.000 A 
ATOM     16  C   UNL     1      46.037   2.107   7.602  0.00  0.00    +0.000 A 
ATOM     17  C   UNL     1      46.758   3.083   6.914  0.00  0.00    +0.000 A 
ATOM     18  C   UNL     1      46.712   4.395   7.366  0.00  0.00    +0.000 A 
ATOM     19  N   UNL     1      46.004   4.842   8.426  0.00  0.00    +0.000 NA
ATOM     20  C   UNL     1      45.305   3.868   9.049  0.00  0.00    +0.000 A 
ENDBRANCH  11  12
ENDBRANCH   5  11
TORSDOF 4
ENDMDL
MODEL 4
REMARK VINA RESULT:    -6.680      2.544      6.226
REMARK INTER + INTRA:          -8.382
REMARK INTER:                  -7.938
REMARK INTRA:                  -0.443
REMARK UNBOUND:                -0.334
REMARK  Name = 
REMARK  4 active torsions:
REMARK  status: ('A' for Active; 'I' for Inactive)
REMARK    1  A    between atoms: N_1  and  C_2
REMARK    2  A    between atoms: C_2  and  C_3
REMARK    3  A    between atoms: C_7  and  C_8
REMARK    4  A    between atoms: C_8  and  N_9
REMARK                            x       y       z     vdW  Elec       q    Type
REMARK                         _______ _______ _______ _____ _____    ______ ____
ROOT
ATOM      1  C   UNL     1      45.985   3.490   7.969  0.00  0.00    +0.000 A 
ATOM      2  C   UNL     1      45.773   2.121   8.173  0.00  0.00    +0.000 A 
ATOM      3  C   UNL     1      44.866   1.677   9.136  0.00  0.00    +0.000 A 
ATOM      4  C   UNL     1      44.175   2.598   9.925  0.00  0.00    +0.000 A 
ATOM      5  C   UNL     1      44.380   3.972   9.749  0.00  0.00    +0.000 A 
ATOM      6  C   UNL     1      45.276   4.405   8.758  0.00  0.00    +0.000 A 
ENDROOT
BRANCH   1   7
ATOM      7  C   UNL     1      47.004   3.981   6.973  0.00  0.00    +0.000 C 
BRANCH   7   8
ATOM      8  N   UNL     1      48.006   2.966   6.669  0.00  0.00    +0.000 NA
ATOM      9  H   UNL     1      47.661   2.382   5.911  0.00  0.00    +0.000 HD
ATOM     10  H   UNL     1      48.102   2.357   7.480  0.00  0.00    +0.000 HD
ENDBRANCH   7   8
ENDBRANCH   1   7
BRANCH   5  11
ATOM     11  C   UNL     1      43.732   4.981  10.668  0.00  0.00    +0.000 C 
BRANCH  11  12
ATOM     12  N   UNL     1      44.692   5.464  11.650  0.00  0.00    +0.000 N 
ATOM     13  C   UNL     1      45.480   4.665  12.447  0.00  0.00    +0.000 A 
ATOM     14  C   UNL     1      46.325   5.485  13.164  0.00  0.00    +0.000 A 
ATOM     15  C   UNL     1      46.029   6.827  12.807  0.00  0.00    +0.000 A 
ATOM     16  C   UNL     1      46.537   8.089  13.156  0.00  0.00    +0.000 A 
ATOM     17  C   UNL     1      45.956   9.209  12.560  0.00  0.00    +0.000 A 
ATOM     18  C   UNL     1      44.903   9.029  11.674  0.00  0.00    +0.000 A 
ATOM     19  N   UNL     1      44.376   7.841  11.303  0.00  0.00    +0.000 NA
ATOM     20  C   UNL     1      44.981   6.785  11.888  0.00  0.00    +0.000 A 
ENDBRANCH  11  12
ENDBRANCH   5  11
TORSDOF 4
ENDMDL
MODEL 5
REMARK VINA RESULT:    -6.502      1.592      2.182
REMARK INTER + INTRA:          -8.166
REMARK INTER:                  -7.675
REMARK INTRA:                  -0.491
REMARK UNBOUND:                -0.334
REMARK  Name = 
REMARK  4 active torsions:
REMARK  status: ('A' for Active; 'I' for Inactive)
REMARK    1  A    between atoms: N_1  and  C_2
REMARK    2  A    between atoms: C_2  and  C_3
REMARK    3  A    between atoms: C_7  and  C_8
REMARK    4  A    between atoms: C_8  and  N_9
REMARK                            x       y       z     vdW  Elec       q    Type
REMARK                         _______ _______ _______ _____ _____    ______ ____
ROOT
ATOM      1  C   UNL     1      45.460   5.745  12.444  0.00  0.00    +0.000 A 
ATOM      2  C   UNL     1      44.328   5.582  13.253  0.00  0.00    +0.000 A 
ATOM      3  C   UNL     1      43.166   5.002  12.743  0.00  0.00    +0.000 A 
ATOM      4  C   UNL     1      43.111   4.598  11.409  0.00  0.00    +0.000 A 
ATOM      5  C   UNL     1      44.225   4.763  10.575  0.00  0.00    +0.000 A 
ATOM      6  C   UNL     1      45.396   5.324  11.109  0.00  0.00    +0.000 A 
ENDROOT
BRANCH   1   7
ATOM      7  C   UNL     1      46.700   6.422  12.966  0.00  0.00    +0.000 C 
BRANCH   7   8
ATOM      8  N   UNL     1      47.485   7.029  11.896  0.00  0.00    +0.000 NA
ATOM      9  H   UNL     1      48.418   7.230  12.248  0.00  0.00    +0.000 HD
ATOM     10  H   UNL     1      47.066   7.928  11.661  0.00  0.00    +0.000 HD
ENDBRANCH   7   8
ENDBRANCH   1   7
BRANCH   5  11
ATOM     11  C   UNL     1      44.150   4.441   9.102  0.00  0.00    +0.000 C 
BRANCH  11  12
ATOM     12  N   UNL     1      44.848   3.195   8.818  0.00  0.00    +0.000 N 
ATOM     13  C   UNL     1      44.525   1.967   9.349  0.00  0.00    +0.000 A 
ATOM     14  C   UNL     1      45.344   1.024   8.764  0.00  0.00    +0.000 A 
ATOM     15  C   UNL     1      46.205   1.702   7.862  0.00  0.00    +0.000 A 
ATOM     16  C   UNL     1      47.220   1.318   6.969  0.00  0.00    +0.000 A 
ATOM     17  C   UNL     1      47.848   2.321   6.230  0.00  0.00    +0.000 A 
ATOM     18  C   UNL     1      47.459   3.640   6.421  0.00  0.00    +0.000 A 
ATOM     19  N   UNL     1      46.492   4.065   7.264  0.00  0.00    +0.000 NA
ATOM     20  C   UNL     1      45.898   3.060   7.943  0.00  0.00    +0.000 A 
ENDBRANCH  11  12
ENDBRANCH   5  11
TORSDOF 4
ENDMDL
MODEL 6
REMARK VINA RESULT:    -6.210      1.955      5.947
REMARK INTER + INTRA:          -7.814
REMARK INTER:                  -7.338
REMARK INTRA:                  -0.476
REMARK UNBOUND:                -0.334
REMARK  Name = 
REMARK  4 active torsions:
REMARK  status: ('A' for Active; 'I' for Inactive)
REMARK    1  A    between atoms: N_1  and  C_2
REMARK    2  A    between atoms: C_2  and  C_3
REMARK    3  A    between atoms: C_7  and  C_8
REMARK    4  A    between atoms: C_8  and  N_9
REMARK                            x       y       z     vdW  Elec       q    Type
REMARK                         _______ _______ _______ _____ _____    ______ ____
ROOT
ATOM      1  C   UNL     1      46.939   2.092   6.702  0.00  0.00    +0.000 A 
ATOM      2  C   UNL     1      46.820   0.888   7.408  0.00  0.00    +0.000 A 
ATOM      3  C   UNL     1      45.877   0.750   8.427  0.00  0.00    +0.000 A 
ATOM      4  C   UNL     1      45.053   1.824   8.770  0.00  0.00    +0.000 A 
ATOM      5  C   UNL     1      45.162   3.043   8.088  0.00  0.00    +0.000 A 
ATOM      6  C   UNL     1      46.099   3.158   7.048  0.00  0.00    +0.000 A 
ENDROOT
BRANCH   1   7
ATOM      7  C   UNL     1      47.993   2.272   5.641  0.00  0.00    +0.000 C 
BRANCH   7   8
ATOM      8  N   UNL     1      49.228   2.826   6.183  0.00  0.00    +0.000 NA
ATOM      9  H   UNL     1      49.744   2.083   6.650  0.00  0.00    +0.000 HD
ATOM     10  H   UNL     1      48.986   3.504   6.905  0.00  0.00    +0.000 HD
ENDBRANCH   7   8
ENDBRANCH   1   7
BRANCH   5  11
ATOM     11  C   UNL     1      44.365   4.251   8.518  0.00  0.00    +0.000 C 
BRANCH  11  12
ATOM     12  N   UNL     1      44.940   4.837   9.720  0.00  0.00    +0.000 N 
ATOM     13  C   UNL     1      45.993   5.725   9.743  0.00  0.00    +0.000 A 
ATOM     14  C   UNL     1      46.177   6.129  11.049  0.00  0.00    +0.000 A 
ATOM     15  C   UNL     1      45.219   5.452  11.849  0.00  0.00    +0.000 A 
ATOM     16  C   UNL     1      44.880   5.446  13.212  0.00  0.00    +0.000 A 
ATOM     17  C   UNL     1      43.835   4.615  13.617  0.00  0.00    +0.000 A 
ATOM     18  C   UNL     1      43.199   3.825  12.669  0.00  0.00    +0.000 A 
ATOM     19  N   UNL     1      43.483   3.790  11.349  0.00  0.00    +0.000 NA
ATOM     20  C   UNL     1      44.485   4.625  10.998  0.00  0.00    +0.000 A 
ENDBRANCH  11  12
ENDBRANCH   5  11
TORSDOF 4
ENDMDL
MODEL 7
REMARK VINA RESULT:    -6.015      1.980      5.674
REMARK INTER + INTRA:          -7.581
REMARK INTER:                  -7.176
REMARK INTRA:                  -0.404
REMARK UNBOUND:                -0.334
REMARK  Name = 
REMARK  4 active torsions:
REMARK  status: ('A' for Active; 'I' for Inactive)
REMARK    1  A    between atoms: N_1  and  C_2
REMARK    2  A    between atoms: C_2  and  C_3
REMARK    3  A    between atoms: C_7  and  C_8
REMARK    4  A    between atoms: C_8  and  N_9
REMARK                            x       y       z     vdW  Elec       q    Type
REMARK                         _______ _______ _______ _____ _____    ______ ____
ROOT
ATOM      1  C   UNL     1      45.253   3.307   8.313  0.00  0.00    +0.000 A 
ATOM      2  C   UNL     1      44.957   2.015   8.768  0.00  0.00    +0.000 A 
ATOM      3  C   UNL     1      44.247   1.824   9.954  0.00  0.00    +0.000 A 
ATOM      4  C   UNL     1      43.843   2.922  10.714  0.00  0.00    +0.000 A 
ATOM      5  C   UNL     1      44.139   4.223  10.288  0.00  0.00    +0.000 A 
ATOM      6  C   UNL     1      44.832   4.401   9.079  0.00  0.00    +0.000 A 
ENDROOT
BRANCH   1   7
ATOM      7  C   UNL     1      46.070   3.526   7.066  0.00  0.00    +0.000 C 
BRANCH   7   8
ATOM      8  N   UNL     1      47.107   4.533   7.260  0.00  0.00    +0.000 NA
ATOM      9  H   UNL     1      48.017   4.092   7.149  0.00  0.00    +0.000 HD
ATOM     10  H   UNL     1      47.062   4.859   8.224  0.00  0.00    +0.000 HD
ENDBRANCH   7   8
ENDBRANCH   1   7
BRANCH   5  11
ATOM     11  C   UNL     1      43.814   5.419  11.151  0.00  0.00    +0.000 C 
BRANCH  11  12
ATOM     12  N   UNL     1      45.037   6.043  11.635  0.00  0.00    +0.000 N 
ATOM     13  C   UNL     1      45.572   7.217  11.155  0.00  0.00    +0.000 A 
ATOM     14  C   UNL     1      46.666   7.533  11.931  0.00  0.00    +0.000 A 
ATOM     15  C   UNL     1      46.815   6.509  12.903  0.00  0.00    +0.000 A 
ATOM     16  C   UNL     1      47.695   6.264  13.971  0.00  0.00    +0.000 A 
ATOM     17  C   UNL     1      47.497   5.104  14.721  0.00  0.00    +0.000 A 
ATOM     18  C   UNL     1      46.465   4.245  14.371  0.00  0.00    +0.000 A 
ATOM     19  N   UNL     1      45.592   4.430  13.357  0.00  0.00    +0.000 NA
ATOM     20  C   UNL     1      45.806   5.574  12.671  0.00  0.00    +0.000 A 
ENDBRANCH  11  12
ENDBRANCH   5  11
TORSDOF 4
ENDMDL
MODEL 8
REMARK VINA RESULT:    -5.911      1.675      2.059
REMARK INTER + INTRA:          -7.455
REMARK INTER:                  -7.272
REMARK INTRA:                  -0.183
REMARK UNBOUND:                -0.334
REMARK  Name = 
REMARK  4 active torsions:
REMARK  status: ('A' for Active; 'I' for Inactive)
REMARK    1  A    between atoms: N_1  and  C_2
REMARK    2  A    between atoms: C_2  and  C_3
REMARK    3  A    between atoms: C_7  and  C_8
REMARK    4  A    between atoms: C_8  and  N_9
REMARK                            x       y       z     vdW  Elec       q    Type
REMARK                         _______ _______ _______ _____ _____    ______ ____
ROOT
ATOM      1  C   UNL     1      46.345   5.981  12.648  0.00  0.00    +0.000 A 
ATOM      2  C   UNL     1      46.615   5.096  13.700  0.00  0.00    +0.000 A 
ATOM      3  C   UNL     1      46.276   3.747  13.600  0.00  0.00    +0.000 A 
ATOM      4  C   UNL     1      45.641   3.266  12.454  0.00  0.00    +0.000 A 
ATOM      5  C   UNL     1      45.349   4.133  11.393  0.00  0.00    +0.000 A 
ATOM      6  C   UNL     1      45.719   5.484  11.498  0.00  0.00    +0.000 A 
ENDROOT
BRANCH   1   7
ATOM      7  C   UNL     1      46.652   7.451  12.767  0.00  0.00    +0.000 C 
BRANCH   7   8
ATOM      8  N   UNL     1      47.742   7.857  11.887  0.00  0.00    +0.000 NA
ATOM      9  H   UNL     1      47.860   7.149  11.165  0.00  0.00    +0.000 HD
ATOM     10  H   UNL     1      48.606   7.863  12.427  0.00  0.00    +0.000 HD
ENDBRANCH   7   8
ENDBRANCH   1   7
BRANCH   5  11
ATOM     11  C   UNL     1      44.560   3.661  10.195  0.00  0.00    +0.000 C 
BRANCH  11  12
ATOM     12  N   UNL     1      45.393   3.674   9.001  0.00  0.00    +0.000 N 
ATOM     13  C   UNL     1      45.844   4.807   8.361  0.00  0.00    +0.000 A 
ATOM     14  C   UNL     1      46.682   4.411   7.341  0.00  0.00    +0.000 A 
ATOM     15  C   UNL     1      46.730   2.992   7.347  0.00  0.00    +0.000 A 
ATOM     16  C   UNL     1      47.401   2.011   6.599  0.00  0.00    +0.000 A 
ATOM     17  C   UNL     1      47.177   0.675   6.932  0.00  0.00    +0.000 A 
ATOM     18  C   UNL     1      46.295   0.378   7.963  0.00  0.00    +0.000 A 
ATOM     19  N   UNL     1      45.624   1.279   8.714  0.00  0.00    +0.000 NA
ATOM     20  C   UNL     1      45.887   2.559   8.371  0.00  0.00    +0.000 A 
ENDBRANCH  11  12
ENDBRANCH   5  11
TORSDOF 4
ENDMDL
MODEL 9
REMARK VINA RESULT:    -5.656      3.727      6.192
REMARK INTER + INTRA:          -7.148
REMARK INTER:                  -6.618
REMARK INTRA:                  -0.530
REMARK UNBOUND:                -0.334
REMARK  Name = 
REMARK  4 active torsions:
REMARK  status: ('A' for Active; 'I' for Inactive)
REMARK    1  A    between atoms: N_1  and  C_2
REMARK    2  A    between atoms: C_2  and  C_3
REMARK    3  A    between atoms: C_7  and  C_8
REMARK    4  A    between atoms: C_8  and  N_9
REMARK                            x       y       z     vdW  Elec       q    Type
REMARK                         _______ _______ _______ _____ _____    ______ ____
ROOT
ATOM      1  C   UNL     1      44.645   4.592  10.331  0.00  0.00    +0.000 A 
ATOM      2  C   UNL     1      43.382   4.301  10.861  0.00  0.00    +0.000 A 
ATOM      3  C   UNL     1      43.035   4.722  12.145  0.00  0.00    +0.000 A 
ATOM      4  C   UNL     1      43.955   5.421  12.927  0.00  0.00    +0.000 A 
ATOM      5  C   UNL     1      45.230   5.713  12.424  0.00  0.00    +0.000 A 
ATOM      6  C   UNL     1      45.556   5.305  11.121  0.00  0.00    +0.000 A 
ENDROOT
BRANCH   1   7
ATOM      7  C   UNL     1      45.053   4.092   8.969  0.00  0.00    +0.000 C 
BRANCH   7   8
ATOM      8  N   UNL     1      45.946   5.023   8.289  0.00  0.00    +0.000 NA
ATOM      9  H   UNL     1      46.380   4.545   7.502  0.00  0.00    +0.000 HD
ATOM     10  H   UNL     1      46.701   5.269   8.928  0.00  0.00    +0.000 HD
ENDBRANCH   7   8
ENDBRANCH   1   7
BRANCH   5  11
ATOM     11  C   UNL     1      46.280   6.364  13.293  0.00  0.00    +0.000 C 
BRANCH  11  12
ATOM     12  N   UNL     1      46.629   7.677  12.769  0.00  0.00    +0.000 N 
ATOM     13  C   UNL     1      45.780   8.760  12.713  0.00  0.00    +0.000 A 
ATOM     14  C   UNL     1      46.502   9.841  12.254  0.00  0.00    +0.000 A 
ATOM     15  C   UNL     1      47.828   9.398  12.004  0.00  0.00    +0.000 A 
ATOM     16  C   UNL     1      49.016  10.002  11.560  0.00  0.00    +0.000 A 
ATOM     17  C   UNL     1      50.150   9.197  11.447  0.00  0.00    +0.000 A 
ATOM     18  C   UNL     1      50.049   7.847  11.755  0.00  0.00    +0.000 A 
ATOM     19  N   UNL     1      48.935   7.215  12.184  0.00  0.00    +0.000 NA
ATOM     20  C   UNL     1      47.868   8.036  12.300  0.00  0.00    +0.000 A 
ENDBRANCH  11  12
ENDBRANCH   5  11
TORSDOF 4
ENDMDL
