MODEL 1
REMARK VINA RESULT:    -7.983      0.000      0.000
REMARK INTER + INTRA:         -11.938
REMARK INTER:                 -11.016
REMARK INTRA:                  -0.922
REMARK UNBOUND:                -0.922
REMARK  Name = 
REMARK  8 active torsions:
REMARK  status: ('A' for Active; 'I' for Inactive)
REMARK    1  A    between atoms: C_1  and  O_2
REMARK    2  A    between atoms: O_2  and  C_3
REMARK    3  A    between atoms: C_7  and  N_8
REMARK    4  A    between atoms: N_8  and  C_9
REMARK    5  A    between atoms: C_9  and  C_10
REMARK    6  A    between atoms: C_15  and  C_16
REMARK    7  A    between atoms: C_20  and  C_21
REMARK    8  A    between atoms: C_21  and  O_22
REMARK                            x       y       z     vdW  Elec       q    Type
REMARK                         _______ _______ _______ _____ _____    ______ ____
ROOT
ATOM      1  C   UNL     1      45.345   6.399  11.244  0.00  0.00    +0.000 A 
ATOM      2  C   UNL     1      44.002   6.339  11.634  0.00  0.00    +0.000 A 
ATOM      3  C   UNL     1      43.171   5.378  11.092  0.00  0.00    +0.000 A 
ATOM      4  F   UNL     1      41.887   5.314  11.479  0.00  0.00    +0.000 F 
ATOM      5  C   UNL     1      43.639   4.457  10.164  0.00  0.00    +0.000 A 
ATOM      6  C   UNL     1      44.985   4.474   9.753  0.00  0.00    +0.000 A 
ATOM      7  C   UNL     1      45.812   5.480  10.292  0.00  0.00    +0.000 A 
ENDROOT
BRANCH   6   8
ATOM      8  C   UNL     1      45.513   3.457   8.823  0.00  0.00    +0.000 A 
ATOM      9  C   UNL     1      45.440   2.086   9.121  0.00  0.00    +0.000 A 
ATOM     10  C   UNL     1      45.941   1.121   8.246  0.00  0.00    +0.000 A 
ATOM     11  C   UNL     1      46.521   1.507   7.042  0.00  0.00    +0.000 A 
ATOM     12  C   UNL     1      46.608   2.860   6.705  0.00  0.00    +0.000 A 
ATOM     13  C   UNL     1      46.118   3.818   7.604  0.00  0.00    +0.000 A 
BRANCH  12  14
ATOM     14  C   UNL     1      47.217   3.308   5.404  0.00  0.00    +0.000 C 
BRANCH  14  15
ATOM     15  O   UNL     1      48.341   2.501   5.086  0.00  0.00    +0.000 OA
ATOM     16  H   UNL     1      48.104   1.990   4.293  0.00  0.00    +0.000 HD
ENDBRANCH  14  15
ENDBRANCH  12  14
ENDBRANCH   6   8
BRANCH   1  17
ATOM     17  C   UNL     1      46.282   7.404  11.863  0.00  0.00    +0.000 C 
BRANCH  17  18
ATOM     18  N   UNL     1      47.573   6.800  12.147  0.00  0.00    +0.000 N 
ATOM     19  H   UNL     1      47.906   6.181  11.410  0.00  0.00    +0.000 HD
BRANCH  18  24
ATOM     20  C   UNL     1      47.401   4.799  15.296  0.00  0.00    +0.000 A 
ATOM     21  C   UNL     1      48.329   5.518  16.034  0.00  0.00    +0.000 A 
ATOM     22  N   UNL     1      49.020   6.575  15.549  0.00  0.00    +0.000 NA
ATOM     23  C   UNL     1      48.751   6.932  14.268  0.00  0.00    +0.000 A 
ATOM     24  C   UNL     1      47.837   6.291  13.425  0.00  0.00    +0.000 A 
ATOM     25  C   UNL     1      47.134   5.226  13.994  0.00  0.00    +0.000 A 
BRANCH  20  27
ATOM     26  C   UNL     1      47.404   3.310  17.118  0.00  0.00    +0.000 C 
ATOM     27  O   UNL     1      46.777   3.753  15.916  0.00  0.00    +0.000 OA
ENDBRANCH  20  27
ENDBRANCH  18  24
ENDBRANCH  17  18
ENDBRANCH   1  17
TORSDOF 7
ENDMDL
MODEL 2
REMARK VINA RESULT:    -7.749      2.469      7.709
REMARK INTER + INTRA:         -11.615
REMARK INTER:                 -10.903
REMARK INTRA:                  -0.712
REMARK UNBOUND:                -0.922
REMARK  Name = 
REMARK  8 active torsions:
REMARK  status: ('A' for Active; 'I' for Inactive)
REMARK    1  A    between atoms: C_1  and  O_2
REMARK    2  A    between atoms: O_2  and  C_3
REMARK    3  A    between atoms: C_7  and  N_8
REMARK    4  A    between atoms: N_8  and  C_9
REMARK    5  A    between atoms: C_9  and  C_10
REMARK    6  A    between atoms: C_15  and  C_16
REMARK    7  A    between atoms: C_20  and  C_21
REMARK    8  A    between atoms: C_21  and  O_22
REMARK                            x       y       z     vdW  Elec       q    Type
REMARK                         _______ _______ _______ _____ _____    ______ ____
ROOT
ATOM      1  C   UNL     1      44.928   4.359  11.830  0.00  0.00    +0.000 A 
ATOM      2  C   UNL     1      44.621   5.604  11.266  0.00  0.00    +0.000 A 
ATOM      3  C   UNL     1      45.137   6.757  11.823  0.00  0.00    +0.000 A 
ATOM      4  F   UNL     1      44.852   7.948  11.273  0.00  0.00    +0.000 F 
ATOM      5  C   UNL     1      45.967   6.713  12.936  0.00  0.00    +0.000 A 
ATOM      6  C   UNL     1      46.313   5.483  13.526  0.00  0.00    +0.000 A 
ATOM      7  C   UNL     1      45.752   4.319  12.965  0.00  0.00    +0.000 A 
ENDROOT
BRANCH   6   8
ATOM      8  C   UNL     1      47.250   5.417  14.664  0.00  0.00    +0.000 A 
ATOM      9  C   UNL     1      48.265   6.375  14.830  0.00  0.00    +0.000 A 
ATOM     10  C   UNL     1      49.157   6.315  15.902  0.00  0.00    +0.000 A 
ATOM     11  C   UNL     1      49.047   5.296  16.842  0.00  0.00    +0.000 A 
ATOM     12  C   UNL     1      48.049   4.326  16.717  0.00  0.00    +0.000 A 
ATOM     13  C   UNL     1      47.174   4.389  15.622  0.00  0.00    +0.000 A 
BRANCH  12  14
ATOM     14  C   UNL     1      47.897   3.220  17.724  0.00  0.00    +0.000 C 
BRANCH  14  15
ATOM     15  O   UNL     1      46.559   2.744  17.732  0.00  0.00    +0.000 OA
ATOM     16  H   UNL     1      46.300   2.652  18.665  0.00  0.00    +0.000 HD
ENDBRANCH  14  15
ENDBRANCH  12  14
ENDBRANCH   6   8
BRANCH   1  17
ATOM     17  C   UNL     1      44.418   3.085  11.205  0.00  0.00    +0.000 C 
BRANCH  17  18
ATOM     18  N   UNL     1      44.090   3.292   9.805  0.00  0.00    +0.000 N 
ATOM     19  H   UNL     1      43.210   2.863   9.523  0.00  0.00    +0.000 HD
BRANCH  18  24
ATOM     20  C   UNL     1      46.723   1.856   7.579  0.00  0.00    +0.000 A 
ATOM     21  C   UNL     1      47.171   3.043   7.019  0.00  0.00    +0.000 A 
ATOM     22  N   UNL     1      46.641   4.255   7.298  0.00  0.00    +0.000 NA
ATOM     23  C   UNL     1      45.622   4.272   8.194  0.00  0.00    +0.000 A 
ATOM     24  C   UNL     1      45.084   3.148   8.829  0.00  0.00    +0.000 A 
ATOM     25  C   UNL     1      45.695   1.930   8.520  0.00  0.00    +0.000 A 
BRANCH  20  27
ATOM     26  C   UNL     1      46.672  -0.496   7.563  0.00  0.00    +0.000 C 
ATOM     27  O   UNL     1      47.355   0.704   7.204  0.00  0.00    +0.000 OA
ENDBRANCH  20  27
ENDBRANCH  18  24
ENDBRANCH  17  18
ENDBRANCH   1  17
TORSDOF 7
ENDMDL
MODEL 3
REMARK VINA RESULT:    -7.733      3.151      7.217
REMARK INTER + INTRA:         -11.593
REMARK INTER:                 -10.615
REMARK INTRA:                  -0.978
REMARK UNBOUND:                -0.922
REMARK  Name = 
REMARK  8 active torsions:
REMARK  status: ('A' for Active; 'I' for Inactive)
REMARK    1  A    between atoms: C_1  and  O_2
REMARK    2  A    between atoms: O_2  and  C_3
REMARK    3  A    between atoms: C_7  and  N_8
REMARK    4  A    between atoms: N_8  and  C_9
REMARK    5  A    between atoms: C_9  and  C_10
REMARK    6  A    between atoms: C_15  and  C_16
REMARK    7  A    between atoms: C_20  and  C_21
REMARK    8  A    between atoms: C_21  and  O_22
REMARK                            x       y       z     vdW  Elec       q    Type
REMARK                         _______ _______ _______ _____ _____    ______ ____
ROOT
ATOM      1  C   UNL     1      44.863   4.881  11.471  0.00  0.00    +0.000 A 
ATOM      2  C   UNL     1      45.262   3.963  12.449  0.00  0.00    +0.000 A 
ATOM      3  C   UNL     1      46.365   4.232  13.236  0.00  0.00    +0.000 A 
ATOM      4  F   UNL     1      46.738   3.356  14.182  0.00  0.00    +0.000 F 
ATOM      5  C   UNL     1      47.092   5.406  13.083  0.00  0.00    +0.000 A 
ATOM      6  C   UNL     1      46.718   6.362  12.122  0.00  0.00    +0.000 A 
ATOM      7  C   UNL     1      45.610   6.057  11.306  0.00  0.00    +0.000 A 
ENDROOT
BRANCH   6   8
ATOM      8  C   UNL     1      47.438   7.645  11.998  0.00  0.00    +0.000 A 
ATOM      9  C   UNL     1      46.771   8.874  12.143  0.00  0.00    +0.000 A 
ATOM     10  C   UNL     1      47.447  10.088  12.022  0.00  0.00    +0.000 A 
ATOM     11  C   UNL     1      48.814  10.103  11.763  0.00  0.00    +0.000 A 
ATOM     12  C   UNL     1      49.515   8.902  11.617  0.00  0.00    +0.000 A 
ATOM     13  C   UNL     1      48.817   7.690  11.721  0.00  0.00    +0.000 A 
BRANCH  12  14
ATOM     14  C   UNL     1      50.995   8.885  11.350  0.00  0.00    +0.000 C 
BRANCH  14  15
ATOM     15  O   UNL     1      51.488   7.555  11.403  0.00  0.00    +0.000 OA
ATOM     16  H   UNL     1      52.259   7.564  11.996  0.00  0.00    +0.000 HD
ENDBRANCH  14  15
ENDBRANCH  12  14
ENDBRANCH   6   8
BRANCH   1  17
ATOM     17  C   UNL     1      43.631   4.632  10.638  0.00  0.00    +0.000 C 
BRANCH  17  18
ATOM     18  N   UNL     1      43.974   4.519   9.231  0.00  0.00    +0.000 N 
ATOM     19  H   UNL     1      43.173   4.603   8.606  0.00  0.00    +0.000 HD
BRANCH  18  24
ATOM     20  C   UNL     1      46.759   2.729   7.503  0.00  0.00    +0.000 A 
ATOM     21  C   UNL     1      46.441   1.441   7.905  0.00  0.00    +0.000 A 
ATOM     22  N   UNL     1      45.408   1.142   8.725  0.00  0.00    +0.000 NA
ATOM     23  C   UNL     1      44.654   2.188   9.146  0.00  0.00    +0.000 A 
ATOM     24  C   UNL     1      44.870   3.529   8.809  0.00  0.00    +0.000 A 
ATOM     25  C   UNL     1      45.934   3.768   7.936  0.00  0.00    +0.000 A 
BRANCH  20  27
ATOM     26  C   UNL     1      47.574   2.580   5.300  0.00  0.00    +0.000 C 
ATOM     27  O   UNL     1      47.832   2.883   6.670  0.00  0.00    +0.000 OA
ENDBRANCH  20  27
ENDBRANCH  18  24
ENDBRANCH  17  18
ENDBRANCH   1  17
TORSDOF 7
ENDMDL
MODEL 4
REMARK VINA RESULT:    -7.698      3.259      7.426
REMARK INTER + INTRA:         -11.546
REMARK INTER:                 -10.869
REMARK INTRA:                  -0.677
REMARK UNBOUND:                -0.922
REMARK  Name = 
REMARK  8 active torsions:
REMARK  status: ('A' for Active; 'I' for Inactive)
REMARK    1  A    between atoms: C_1  and  O_2
REMARK    2  A    between atoms: O_2  and  C_3
REMARK    3  A    between atoms: C_7  and  N_8
REMARK    4  A    between atoms: N_8  and  C_9
REMARK    5  A    between atoms: C_9  and  C_10
REMARK    6  A    between atoms: C_15  and  C_16
REMARK    7  A    between atoms: C_20  and  C_21
REMARK    8  A    between atoms: C_21  and  O_22
REMARK                            x       y       z     vdW  Elec       q    Type
REMARK                         _______ _______ _______ _____ _____    ______ ____
ROOT
ATOM      1  C   UNL     1      44.914   4.183  12.027  0.00  0.00    +0.000 A 
ATOM      2  C   UNL     1      45.641   3.425  12.952  0.00  0.00    +0.000 A 
ATOM      3  C   UNL     1      46.718   3.988  13.608  0.00  0.00    +0.000 A 
ATOM      4  F   UNL     1      47.404   3.263  14.505  0.00  0.00    +0.000 F 
ATOM      5  C   UNL     1      47.098   5.303  13.375  0.00  0.00    +0.000 A 
ATOM      6  C   UNL     1      46.387   6.105  12.464  0.00  0.00    +0.000 A 
ATOM      7  C   UNL     1      45.311   5.506  11.779  0.00  0.00    +0.000 A 
ENDROOT
BRANCH   6   8
ATOM      8  C   UNL     1      46.737   7.525  12.260  0.00  0.00    +0.000 A 
ATOM      9  C   UNL     1      48.076   7.944  12.192  0.00  0.00    +0.000 A 
ATOM     10  C   UNL     1      48.412   9.286  12.004  0.00  0.00    +0.000 A 
ATOM     11  C   UNL     1      47.410  10.242  11.870  0.00  0.00    +0.000 A 
ATOM     12  C   UNL     1      46.066   9.866  11.926  0.00  0.00    +0.000 A 
ATOM     13  C   UNL     1      45.746   8.517  12.136  0.00  0.00    +0.000 A 
BRANCH  12  14
ATOM     14  C   UNL     1      44.961  10.874  11.771  0.00  0.00    +0.000 C 
BRANCH  14  15
ATOM     15  O   UNL     1      43.750  10.362  12.307  0.00  0.00    +0.000 OA
ATOM     16  H   UNL     1      43.867   9.400  12.394  0.00  0.00    +0.000 HD
ENDBRANCH  14  15
ENDBRANCH  12  14
ENDBRANCH   6   8
BRANCH   1  17
ATOM     17  C   UNL     1      43.703   3.605  11.340  0.00  0.00    +0.000 C 
BRANCH  17  18
ATOM     18  N   UNL     1      44.080   2.506  10.466  0.00  0.00    +0.000 N 
ATOM     19  H   UNL     1      44.403   1.679  10.965  0.00  0.00    +0.000 HD
BRANCH  18  24
ATOM     20  C   UNL     1      46.500   2.166   7.642  0.00  0.00    +0.000 A 
ATOM     21  C   UNL     1      46.425   3.466   7.165  0.00  0.00    +0.000 A 
ATOM     22  N   UNL     1      45.613   4.413   7.686  0.00  0.00    +0.000 NA
ATOM     23  C   UNL     1      44.853   4.036   8.744  0.00  0.00    +0.000 A 
ATOM     24  C   UNL     1      44.840   2.760   9.318  0.00  0.00    +0.000 A 
ATOM     25  C   UNL     1      45.723   1.836   8.753  0.00  0.00    +0.000 A 
BRANCH  20  27
ATOM     26  C   UNL     1      48.058   1.875   5.903  0.00  0.00    +0.000 C 
ATOM     27  O   UNL     1      47.367   1.313   7.017  0.00  0.00    +0.000 OA
ENDBRANCH  20  27
ENDBRANCH  18  24
ENDBRANCH  17  18
ENDBRANCH   1  17
TORSDOF 7
ENDMDL
MODEL 5
REMARK VINA RESULT:    -7.207      2.464      8.024
REMARK INTER + INTRA:         -10.868
REMARK INTER:                 -10.022
REMARK INTRA:                  -0.846
REMARK UNBOUND:                -0.922
REMARK  Name = 
REMARK  8 active torsions:
REMARK  status: ('A' for Active; 'I' for Inactive)
REMARK    1  A    between atoms: C_1  and  O_2
REMARK    2  A    between atoms: O_2  and  C_3
REMARK    3  A    between atoms: C_7  and  N_8
REMARK    4  A    between atoms: N_8  and  C_9
REMARK    5  A    between atoms: C_9  and  C_10
REMARK    6  A    between atoms: C_15  and  C_16
REMARK    7  A    between atoms: C_20  and  C_21
REMARK    8  A    between atoms: C_21  and  O_22
REMARK                            x       y       z     vdW  Elec       q    Type
REMARK                         _______ _______ _______ _____ _____    ______ ____
ROOT
ATOM      1  C   UNL     1      45.970   6.052  12.227  0.00  0.00    +0.000 A 
ATOM      2  C   UNL     1      46.767   6.841  11.389  0.00  0.00    +0.000 A 
ATOM      3  C   UNL     1      47.995   7.292  11.832  0.00  0.00    +0.000 A 
ATOM      4  F   UNL     1      48.763   8.037  11.021  0.00  0.00    +0.000 F 
ATOM      5  C   UNL     1      48.468   6.973  13.098  0.00  0.00    +0.000 A 
ATOM      6  C   UNL     1      47.706   6.170  13.968  0.00  0.00    +0.000 A 
ATOM      7  C   UNL     1      46.442   5.746  13.513  0.00  0.00    +0.000 A 
ENDROOT
BRANCH   6   8
ATOM      8  C   UNL     1      48.228   5.765  15.288  0.00  0.00    +0.000 A 
ATOM      9  C   UNL     1      49.163   6.556  15.978  0.00  0.00    +0.000 A 
ATOM     10  C   UNL     1      49.662   6.175  17.224  0.00  0.00    +0.000 A 
ATOM     11  C   UNL     1      49.229   4.994  17.816  0.00  0.00    +0.000 A 
ATOM     12  C   UNL     1      48.296   4.181  17.166  0.00  0.00    +0.000 A 
ATOM     13  C   UNL     1      47.819   4.568  15.905  0.00  0.00    +0.000 A 
BRANCH  12  14
ATOM     14  C   UNL     1      47.798   2.905  17.787  0.00  0.00    +0.000 C 
BRANCH  14  15
ATOM     15  O   UNL     1      46.387   2.817  17.663  0.00  0.00    +0.000 OA
ATOM     16  H   UNL     1      46.012   3.069  18.525  0.00  0.00    +0.000 HD
ENDBRANCH  14  15
ENDBRANCH  12  14
ENDBRANCH   6   8
BRANCH   1  17
ATOM     17  C   UNL     1      44.651   5.506  11.744  0.00  0.00    +0.000 C 
BRANCH  17  18
ATOM     18  N   UNL     1      44.601   5.485  10.292  0.00  0.00    +0.000 N 
ATOM     19  H   UNL     1      43.733   5.855   9.907  0.00  0.00    +0.000 HD
BRANCH  18  24
ATOM     20  C   UNL     1      46.177   3.257   7.742  0.00  0.00    +0.000 A 
ATOM     21  C   UNL     1      45.694   2.047   8.217  0.00  0.00    +0.000 A 
ATOM     22  N   UNL     1      44.929   1.924   9.326  0.00  0.00    +0.000 NA
ATOM     23  C   UNL     1      44.626   3.076   9.976  0.00  0.00    +0.000 A 
ATOM     24  C   UNL     1      45.048   4.355   9.597  0.00  0.00    +0.000 A 
ATOM     25  C   UNL     1      45.810   4.416   8.427  0.00  0.00    +0.000 A 
BRANCH  20  27
ATOM     26  C   UNL     1      47.964   2.238   6.600  0.00  0.00    +0.000 C 
ATOM     27  O   UNL     1      46.939   3.230   6.608  0.00  0.00    +0.000 OA
ENDBRANCH  20  27
ENDBRANCH  18  24
ENDBRANCH  17  18
ENDBRANCH   1  17
TORSDOF 7
ENDMDL
MODEL 6
REMARK VINA RESULT:    -6.989      2.140      3.435
REMARK INTER + INTRA:         -10.566
REMARK INTER:                  -9.763
REMARK INTRA:                  -0.804
REMARK UNBOUND:                -0.922
REMARK  Name = 
REMARK  8 active torsions:
REMARK  status: ('A' for Active; 'I' for Inactive)
REMARK    1  A    between atoms: C_1  and  O_2
REMARK    2  A    between atoms: O_2  and  C_3
REMARK    3  A    between atoms: C_7  and  N_8
REMARK    4  A    between atoms: N_8  and  C_9
REMARK    5  A    between atoms: C_9  and  C_10
REMARK    6  A    between atoms: C_15  and  C_16
REMARK    7  A    between atoms: C_20  and  C_21
REMARK    8  A    between atoms: C_21  and  O_22
REMARK                            x       y       z     vdW  Elec       q    Type
REMARK                         _______ _______ _______ _____ _____    ______ ____
ROOT
ATOM      1  C   UNL     1      47.434   7.184  13.339  0.00  0.00    +0.000 A 
ATOM      2  C   UNL     1      46.710   8.381  13.357  0.00  0.00    +0.000 A 
ATOM      3  C   UNL     1      45.575   8.511  12.581  0.00  0.00    +0.000 A 
ATOM      4  F   UNL     1      44.874   9.655  12.611  0.00  0.00    +0.000 F 
ATOM      5  C   UNL     1      45.126   7.470  11.778  0.00  0.00    +0.000 A 
ATOM      6  C   UNL     1      45.817   6.244  11.739  0.00  0.00    +0.000 A 
ATOM      7  C   UNL     1      46.990   6.140  12.513  0.00  0.00    +0.000 A 
ENDROOT
BRANCH   6   8
ATOM      8  C   UNL     1      45.312   5.107  10.946  0.00  0.00    +0.000 A 
ATOM      9  C   UNL     1      44.409   4.179  11.493  0.00  0.00    +0.000 A 
ATOM     10  C   UNL     1      43.933   3.099  10.748  0.00  0.00    +0.000 A 
ATOM     11  C   UNL     1      44.341   2.928   9.429  0.00  0.00    +0.000 A 
ATOM     12  C   UNL     1      45.233   3.832   8.846  0.00  0.00    +0.000 A 
ATOM     13  C   UNL     1      45.719   4.899   9.615  0.00  0.00    +0.000 A 
BRANCH  12  14
ATOM     14  C   UNL     1      45.683   3.681   7.418  0.00  0.00    +0.000 C 
BRANCH  14  15
ATOM     15  O   UNL     1      46.853   4.450   7.189  0.00  0.00    +0.000 OA
ATOM     16  H   UNL     1      47.167   4.751   8.060  0.00  0.00    +0.000 HD
ENDBRANCH  14  15
ENDBRANCH  12  14
ENDBRANCH   6   8
BRANCH   1  17
ATOM     17  C   UNL     1      48.645   7.003  14.219  0.00  0.00    +0.000 C 
BRANCH  17  18
ATOM     18  N   UNL     1      48.251   6.807  15.604  0.00  0.00    +0.000 N 
ATOM     19  H   UNL     1      48.633   7.504  16.241  0.00  0.00    +0.000 HD
BRANCH  18  24
ATOM     20  C   UNL     1      49.316   3.707  17.393  0.00  0.00    +0.000 A 
ATOM     21  C   UNL     1      48.258   2.893  17.019  0.00  0.00    +0.000 A 
ATOM     22  N   UNL     1      47.218   3.311  16.262  0.00  0.00    +0.000 NA
ATOM     23  C   UNL     1      47.257   4.604  15.850  0.00  0.00    +0.000 A 
ATOM     24  C   UNL     1      48.268   5.520  16.157  0.00  0.00    +0.000 A 
ATOM     25  C   UNL     1      49.327   5.019  16.918  0.00  0.00    +0.000 A 
BRANCH  20  27
ATOM     26  C   UNL     1      51.328   2.486  17.429  0.00  0.00    +0.000 C 
ATOM     27  O   UNL     1      50.299   3.149  18.162  0.00  0.00    +0.000 OA
ENDBRANCH  20  27
ENDBRANCH  18  24
ENDBRANCH  17  18
ENDBRANCH   1  17
TORSDOF 7
ENDMDL
MODEL 7
REMARK VINA RESULT:    -6.708      2.303      2.929
REMARK INTER + INTRA:         -10.179
REMARK INTER:                  -9.320
REMARK INTRA:                  -0.859
REMARK UNBOUND:                -0.922
REMARK  Name = 
REMARK  8 active torsions:
REMARK  status: ('A' for Active; 'I' for Inactive)
REMARK    1  A    between atoms: C_1  and  O_2
REMARK    2  A    between atoms: O_2  and  C_3
REMARK    3  A    between atoms: C_7  and  N_8
REMARK    4  A    between atoms: N_8  and  C_9
REMARK    5  A    between atoms: C_9  and  C_10
REMARK    6  A    between atoms: C_15  and  C_16
REMARK    7  A    between atoms: C_20  and  C_21
REMARK    8  A    between atoms: C_21  and  O_22
REMARK                            x       y       z     vdW  Elec       q    Type
REMARK                         _______ _______ _______ _____ _____    ______ ____
ROOT
ATOM      1  C   UNL     1      44.768   5.491  11.375  0.00  0.00    +0.000 A 
ATOM      2  C   UNL     1      43.956   4.593  12.079  0.00  0.00    +0.000 A 
ATOM      3  C   UNL     1      43.747   3.321  11.584  0.00  0.00    +0.000 A 
ATOM      4  F   UNL     1      42.980   2.458  12.268  0.00  0.00    +0.000 F 
ATOM      5  C   UNL     1      44.332   2.903  10.396  0.00  0.00    +0.000 A 
ATOM      6  C   UNL     1      45.166   3.768   9.663  0.00  0.00    +0.000 A 
ATOM      7  C   UNL     1      45.342   5.073  10.166  0.00  0.00    +0.000 A 
ENDROOT
BRANCH   6   8
ATOM      8  C   UNL     1      45.850   3.314   8.437  0.00  0.00    +0.000 A 
ATOM      9  C   UNL     1      46.216   4.220   7.426  0.00  0.00    +0.000 A 
ATOM     10  C   UNL     1      46.859   3.794   6.263  0.00  0.00    +0.000 A 
ATOM     11  C   UNL     1      47.161   2.448   6.087  0.00  0.00    +0.000 A 
ATOM     12  C   UNL     1      46.819   1.515   7.070  0.00  0.00    +0.000 A 
ATOM     13  C   UNL     1      46.155   1.957   8.224  0.00  0.00    +0.000 A 
BRANCH  12  14
ATOM     14  C   UNL     1      47.145   0.055   6.915  0.00  0.00    +0.000 C 
BRANCH  14  15
ATOM     15  O   UNL     1      46.632  -0.681   8.014  0.00  0.00    +0.000 OA
ATOM     16  H   UNL     1      45.874  -1.192   7.681  0.00  0.00    +0.000 HD
ENDBRANCH  14  15
ENDBRANCH  12  14
ENDBRANCH   6   8
BRANCH   1  17
ATOM     17  C   UNL     1      45.052   6.865  11.925  0.00  0.00    +0.000 C 
BRANCH  17  18
ATOM     18  N   UNL     1      45.876   6.783  13.120  0.00  0.00    +0.000 N 
ATOM     19  H   UNL     1      45.453   7.215  13.940  0.00  0.00    +0.000 HD
BRANCH  18  24
ATOM     20  C   UNL     1      49.468   7.302  14.000  0.00  0.00    +0.000 A 
ATOM     21  C   UNL     1      49.904   7.767  12.769  0.00  0.00    +0.000 A 
ATOM     22  N   UNL     1      49.108   7.879  11.681  0.00  0.00    +0.000 NA
ATOM     23  C   UNL     1      47.811   7.519  11.848  0.00  0.00    +0.000 A 
ATOM     24  C   UNL     1      47.250   7.040  13.037  0.00  0.00    +0.000 A 
ATOM     25  C   UNL     1      48.117   6.977  14.130  0.00  0.00    +0.000 A 
BRANCH  20  27
ATOM     26  C   UNL     1      50.502   8.438  15.783  0.00  0.00    +0.000 C 
ATOM     27  O   UNL     1      50.384   7.243  15.012  0.00  0.00    +0.000 OA
ENDBRANCH  20  27
ENDBRANCH  18  24
ENDBRANCH  17  18
ENDBRANCH   1  17
TORSDOF 7
ENDMDL
MODEL 8
REMARK VINA RESULT:    -6.487      3.075      4.883
REMARK INTER + INTRA:          -9.874
REMARK INTER:                  -8.981
REMARK INTRA:                  -0.893
REMARK UNBOUND:                -0.922
REMARK  Name = 
REMARK  8 active torsions:
REMARK  status: ('A' for Active; 'I' for Inactive)
REMARK    1  A    between atoms: C_1  and  O_2
REMARK    2  A    between atoms: O_2  and  C_3
REMARK    3  A    between atoms: C_7  and  N_8
REMARK    4  A    between atoms: N_8  and  C_9
REMARK    5  A    between atoms: C_9  and  C_10
REMARK    6  A    between atoms: C_15  and  C_16
REMARK    7  A    between atoms: C_20  and  C_21
REMARK    8  A    between atoms: C_21  and  O_22
REMARK                            x       y       z     vdW  Elec       q    Type
REMARK                         _______ _______ _______ _____ _____    ______ ____
ROOT
ATOM      1  C   UNL     1      48.235   6.638  14.566  0.00  0.00    +0.000 A 
ATOM      2  C   UNL     1      48.779   7.654  13.770  0.00  0.00    +0.000 A 
ATOM      3  C   UNL     1      48.344   7.815  12.469  0.00  0.00    +0.000 A 
ATOM      4  F   UNL     1      48.857   8.798  11.713  0.00  0.00    +0.000 F 
ATOM      5  C   UNL     1      47.365   6.992  11.927  0.00  0.00    +0.000 A 
ATOM      6  C   UNL     1      46.782   5.968  12.696  0.00  0.00    +0.000 A 
ATOM      7  C   UNL     1      47.261   5.796  14.010  0.00  0.00    +0.000 A 
ENDROOT
BRANCH   6   8
ATOM      8  C   UNL     1      45.692   5.132  12.155  0.00  0.00    +0.000 A 
ATOM      9  C   UNL     1      44.809   4.445  13.005  0.00  0.00    +0.000 A 
ATOM     10  C   UNL     1      43.780   3.650  12.499  0.00  0.00    +0.000 A 
ATOM     11  C   UNL     1      43.603   3.532  11.124  0.00  0.00    +0.000 A 
ATOM     12  C   UNL     1      44.456   4.203  10.244  0.00  0.00    +0.000 A 
ATOM     13  C   UNL     1      45.498   4.981  10.770  0.00  0.00    +0.000 A 
BRANCH  12  14
ATOM     14  C   UNL     1      44.282   4.106   8.754  0.00  0.00    +0.000 C 
BRANCH  14  15
ATOM     15  O   UNL     1      45.388   4.700   8.091  0.00  0.00    +0.000 OA
ATOM     16  H   UNL     1      46.121   4.062   8.141  0.00  0.00    +0.000 HD
ENDBRANCH  14  15
ENDBRANCH  12  14
ENDBRANCH   6   8
BRANCH   1  17
ATOM     17  C   UNL     1      48.658   6.478  16.004  0.00  0.00    +0.000 C 
BRANCH  17  18
ATOM     18  N   UNL     1      48.075   5.280  16.583  0.00  0.00    +0.000 N 
ATOM     19  H   UNL     1      47.446   5.465  17.363  0.00  0.00    +0.000 HD
BRANCH  18  24
ATOM     20  C   UNL     1      50.900   3.059  17.602  0.00  0.00    +0.000 A 
ATOM     21  C   UNL     1      50.450   1.889  17.009  0.00  0.00    +0.000 A 
ATOM     22  N   UNL     1      49.278   1.785  16.342  0.00  0.00    +0.000 NA
ATOM     23  C   UNL     1      48.534   2.916  16.257  0.00  0.00    +0.000 A 
ATOM     24  C   UNL     1      48.878   4.155  16.809  0.00  0.00    +0.000 A 
ATOM     25  C   UNL     1      50.114   4.203  17.459  0.00  0.00    +0.000 A 
BRANCH  20  27
ATOM     26  C   UNL     1      52.325   4.078  19.173  0.00  0.00    +0.000 C 
ATOM     27  O   UNL     1      52.106   3.018  18.244  0.00  0.00    +0.000 OA
ENDBRANCH  20  27
ENDBRANCH  18  24
ENDBRANCH  17  18
ENDBRANCH   1  17
TORSDOF 7
ENDMDL
MODEL 9
REMARK VINA RESULT:    -6.271      2.896      4.088
REMARK INTER + INTRA:          -9.577
REMARK INTER:                  -8.840
REMARK INTRA:                  -0.737
REMARK UNBOUND:                -0.922
REMARK  Name = 
REMARK  8 active torsions:
REMARK  status: ('A' for Active; 'I' for Inactive)
REMARK    1  A    between atoms: C_1  and  O_2
REMARK    2  A    between atoms: O_2  and  C_3
REMARK    3  A    between atoms: C_7  and  N_8
REMARK    4  A    between atoms: N_8  and  C_9
REMARK    5  A    between atoms: C_9  and  C_10
REMARK    6  A    between atoms: C_15  and  C_16
REMARK    7  A    between atoms: C_20  and  C_21
REMARK    8  A    between atoms: C_21  and  O_22
REMARK                            x       y       z     vdW  Elec       q    Type
REMARK                         _______ _______ _______ _____ _____    ______ ____
ROOT
ATOM      1  C   UNL     1      47.391   7.591  13.277  0.00  0.00    +0.000 A 
ATOM      2  C   UNL     1      46.601   8.746  13.313  0.00  0.00    +0.000 A 
ATOM      3  C   UNL     1      45.463   8.824  12.535  0.00  0.00    +0.000 A 
ATOM      4  F   UNL     1      44.699   9.927  12.582  0.00  0.00    +0.000 F 
ATOM      5  C   UNL     1      45.074   7.773  11.714  0.00  0.00    +0.000 A 
ATOM      6  C   UNL     1      45.832   6.589  11.658  0.00  0.00    +0.000 A 
ATOM      7  C   UNL     1      47.008   6.538  12.433  0.00  0.00    +0.000 A 
ENDROOT
BRANCH   6   8
ATOM      8  C   UNL     1      45.392   5.438  10.845  0.00  0.00    +0.000 A 
ATOM      9  C   UNL     1      45.709   5.346   9.479  0.00  0.00    +0.000 A 
ATOM     10  C   UNL     1      45.291   4.262   8.705  0.00  0.00    +0.000 A 
ATOM     11  C   UNL     1      44.553   3.236   9.285  0.00  0.00    +0.000 A 
ATOM     12  C   UNL     1      44.221   3.286  10.642  0.00  0.00    +0.000 A 
ATOM     13  C   UNL     1      44.631   4.393  11.400  0.00  0.00    +0.000 A 
BRANCH  12  14
ATOM     14  C   UNL     1      43.436   2.186  11.300  0.00  0.00    +0.000 C 
BRANCH  14  15
ATOM     15  O   UNL     1      43.521   2.299  12.712  0.00  0.00    +0.000 OA
ATOM     16  H   UNL     1      44.467   2.285  12.938  0.00  0.00    +0.000 HD
ENDBRANCH  14  15
ENDBRANCH  12  14
ENDBRANCH   6   8
BRANCH   1  17
ATOM     17  C   UNL     1      48.608   7.463  14.158  0.00  0.00    +0.000 C 
BRANCH  17  18
ATOM     18  N   UNL     1      48.235   7.034  15.495  0.00  0.00    +0.000 N 
ATOM     19  H   UNL     1      47.848   7.780  16.072  0.00  0.00    +0.000 HD
BRANCH  18  24
ATOM     20  C   UNL     1      49.640   4.110  17.345  0.00  0.00    +0.000 A 
ATOM     21  C   UNL     1      50.787   4.720  17.829  0.00  0.00    +0.000 A 
ATOM     22  N   UNL     1      51.134   5.998  17.554  0.00  0.00    +0.000 NA
ATOM     23  C   UNL     1      50.277   6.696  16.768  0.00  0.00    +0.000 A 
ATOM     24  C   UNL     1      49.090   6.196  16.222  0.00  0.00    +0.000 A 
ATOM     25  C   UNL     1      48.774   4.879  16.568  0.00  0.00    +0.000 A 
BRANCH  20  27
ATOM     26  C   UNL     1      50.412   1.888  17.265  0.00  0.00    +0.000 C 
ATOM     27  O   UNL     1      49.416   2.810  17.705  0.00  0.00    +0.000 OA
ENDBRANCH  20  27
ENDBRANCH  18  24
ENDBRANCH  17  18
ENDBRANCH   1  17
TORSDOF 7
ENDMDL
