MODEL 1
REMARK VINA RESULT:    -8.891      0.000      0.000
REMARK INTER + INTRA:         -10.914
REMARK INTER:                 -10.450
REMARK INTRA:                  -0.464
REMARK UNBOUND:                -0.464
REMARK  Name = 
REMARK  3 active torsions:
REMARK  status: ('A' for Active; 'I' for Inactive)
REMARK    1  A    between atoms: C_2  and  C_4
REMARK    2  A    between atoms: N_8  and  C_9
REMARK    3  A    between atoms: C_9  and  C_10
REMARK                            x       y       z     vdW  Elec       q    Type
REMARK                         _______ _______ _______ _____ _____    ______ ____
ROOT
ATOM      1  C   UNL     1      46.564   2.655   7.478  0.00  0.00    +0.000 A 
ATOM      2  C   UNL     1      46.194   3.991   7.586  0.00  0.00    +0.000 A 
ATOM      3  C   UNL     1      45.344   4.386   8.623  0.00  0.00    +0.000 A 
ATOM      4  C   UNL     1      44.868   3.436   9.516  0.00  0.00    +0.000 A 
ATOM      5  N   UNL     1      43.931   3.717  10.513  0.00  0.00    +0.000 N 
ATOM      6  N   UNL     1      45.218   2.135   9.420  0.00  0.00    +0.000 NA
ATOM      7  C   UNL     1      46.048   1.768   8.410  0.00  0.00    +0.000 A 
ATOM      8  H   UNL     1      43.842   2.856  11.053  0.00  0.00    +0.000 HD
ENDROOT
BRANCH   1  10
ATOM      9  N   UNL     1      47.668   2.975   5.340  0.00  0.00    +0.000 N 
ATOM     10  C   UNL     1      47.431   2.143   6.399  0.00  0.00    +0.000 C 
ATOM     11  O   UNL     1      47.945   1.034   6.461  0.00  0.00    +0.000 OA
ATOM     12  H   UNL     1      48.339   2.648   4.655  0.00  0.00    +0.000 HD
ATOM     13  H   UNL     1      47.475   3.965   5.365  0.00  0.00    +0.000 HD
ENDBRANCH   1  10
BRANCH   5  14
ATOM     14  C   UNL     1      43.884   4.976  11.287  0.00  0.00    +0.000 C 
ATOM     15  C   UNL     1      42.600   5.160  12.095  0.00  0.00    +0.000 C 
ATOM     16  C   UNL     1      42.918   6.109  10.996  0.00  0.00    +0.000 C 
ATOM     17  F   UNL     1      43.267   7.394  11.371  0.00  0.00    +0.000 F 
BRANCH  14  18
ATOM     18  C   UNL     1      45.224   5.308  11.942  0.00  0.00    +0.000 A 
ATOM     19  C   UNL     1      46.065   6.314  11.437  0.00  0.00    +0.000 A 
ATOM     20  C   UNL     1      47.224   6.710  12.113  0.00  0.00    +0.000 A 
ATOM     21  C   UNL     1      47.569   6.107  13.323  0.00  0.00    +0.000 A 
ATOM     22 CL   UNL     1      48.967   6.695  14.148  0.00  0.00    +0.000 Cl
ATOM     23  C   UNL     1      46.771   5.080  13.832  0.00  0.00    +0.000 A 
ATOM     24 CL   UNL     1      47.126   4.282  15.323  0.00  0.00    +0.000 Cl
ATOM     25  C   UNL     1      45.619   4.683  13.140  0.00  0.00    +0.000 A 
ENDBRANCH  14  18
ENDBRANCH   5  14
TORSDOF 3
ENDMDL
MODEL 2
REMARK VINA RESULT:    -7.163      4.328      6.600
REMARK INTER + INTRA:          -8.883
REMARK INTER:                  -9.039
REMARK INTRA:                   0.156
REMARK UNBOUND:                -0.464
REMARK  Name = 
REMARK  3 active torsions:
REMARK  status: ('A' for Active; 'I' for Inactive)
REMARK    1  A    between atoms: C_2  and  C_4
REMARK    2  A    between atoms: N_8  and  C_9
REMARK    3  A    between atoms: C_9  and  C_10
REMARK                            x       y       z     vdW  Elec       q    Type
REMARK                         _______ _______ _______ _____ _____    ______ ____
ROOT
ATOM      1  C   UNL     1      47.848   5.939  14.369  0.00  0.00    +0.000 A 
ATOM      2  C   UNL     1      46.773   5.060  14.418  0.00  0.00    +0.000 A 
ATOM      3  C   UNL     1      45.966   4.897  13.287  0.00  0.00    +0.000 A 
ATOM      4  C   UNL     1      46.241   5.632  12.141  0.00  0.00    +0.000 A 
ATOM      5  N   UNL     1      45.429   5.618  11.005  0.00  0.00    +0.000 N 
ATOM      6  N   UNL     1      47.281   6.492  12.082  0.00  0.00    +0.000 NA
ATOM      7  C   UNL     1      48.057   6.633  13.187  0.00  0.00    +0.000 A 
ATOM      8  H   UNL     1      45.923   6.179  10.310  0.00  0.00    +0.000 HD
ENDROOT
BRANCH   1  10
ATOM      9  N   UNL     1      48.228   5.939  16.766  0.00  0.00    +0.000 N 
ATOM     10  C   UNL     1      48.732   6.196  15.522  0.00  0.00    +0.000 C 
ATOM     11  O   UNL     1      49.881   6.592  15.374  0.00  0.00    +0.000 OA
ATOM     12  H   UNL     1      48.876   6.029  17.540  0.00  0.00    +0.000 HD
ATOM     13  H   UNL     1      47.396   5.388  16.918  0.00  0.00    +0.000 HD
ENDBRANCH   1  10
BRANCH   5  14
ATOM     14  C   UNL     1      44.727   4.423  10.492  0.00  0.00    +0.000 C 
ATOM     15  C   UNL     1      43.203   4.535  10.528  0.00  0.00    +0.000 C 
ATOM     16  C   UNL     1      43.882   3.505  11.357  0.00  0.00    +0.000 C 
ATOM     17  F   UNL     1      43.716   2.188  10.965  0.00  0.00    +0.000 F 
BRANCH  14  18
ATOM     18  C   UNL     1      45.396   3.842   9.247  0.00  0.00    +0.000 A 
ATOM     19  C   UNL     1      45.975   4.665   8.266  0.00  0.00    +0.000 A 
ATOM     20  C   UNL     1      46.704   4.131   7.198  0.00  0.00    +0.000 A 
ATOM     21  C   UNL     1      46.878   2.751   7.089  0.00  0.00    +0.000 A 
ATOM     22 CL   UNL     1      47.855   2.161   5.794  0.00  0.00    +0.000 Cl
ATOM     23  C   UNL     1      46.284   1.907   8.030  0.00  0.00    +0.000 A 
ATOM     24 CL   UNL     1      46.450   0.187   7.969  0.00  0.00    +0.000 Cl
ATOM     25  C   UNL     1      45.546   2.451   9.088  0.00  0.00    +0.000 A 
ENDBRANCH  14  18
ENDBRANCH   5  14
TORSDOF 3
ENDMDL
MODEL 3
REMARK VINA RESULT:    -7.008      4.458      6.651
REMARK INTER + INTRA:          -8.700
REMARK INTER:                  -9.058
REMARK INTRA:                   0.357
REMARK UNBOUND:                -0.464
REMARK  Name = 
REMARK  3 active torsions:
REMARK  status: ('A' for Active; 'I' for Inactive)
REMARK    1  A    between atoms: C_2  and  C_4
REMARK    2  A    between atoms: N_8  and  C_9
REMARK    3  A    between atoms: C_9  and  C_10
REMARK                            x       y       z     vdW  Elec       q    Type
REMARK                         _______ _______ _______ _____ _____    ______ ____
ROOT
ATOM      1  C   UNL     1      48.440   5.806  15.608  0.00  0.00    +0.000 A 
ATOM      2  C   UNL     1      48.141   6.338  14.359  0.00  0.00    +0.000 A 
ATOM      3  C   UNL     1      47.123   5.762  13.593  0.00  0.00    +0.000 A 
ATOM      4  C   UNL     1      46.441   4.656  14.084  0.00  0.00    +0.000 A 
ATOM      5  N   UNL     1      45.488   3.950  13.347  0.00  0.00    +0.000 N 
ATOM      6  N   UNL     1      46.724   4.129  15.295  0.00  0.00    +0.000 NA
ATOM      7  C   UNL     1      47.712   4.704  16.028  0.00  0.00    +0.000 A 
ATOM      8  H   UNL     1      45.107   3.255  13.990  0.00  0.00    +0.000 HD
ENDROOT
BRANCH   1  10
ATOM      9  N   UNL     1      49.154   7.177  17.480  0.00  0.00    +0.000 N 
ATOM     10  C   UNL     1      49.517   6.330  16.470  0.00  0.00    +0.000 C 
ATOM     11  O   UNL     1      50.684   5.996  16.312  0.00  0.00    +0.000 OA
ATOM     12  H   UNL     1      49.889   7.451  18.120  0.00  0.00    +0.000 HD
ATOM     13  H   UNL     1      48.201   7.278  17.796  0.00  0.00    +0.000 HD
ENDBRANCH   1  10
BRANCH   5  14
ATOM     14  C   UNL     1      44.521   4.569  12.416  0.00  0.00    +0.000 C 
ATOM     15  C   UNL     1      44.057   5.962  12.839  0.00  0.00    +0.000 C 
ATOM     16  C   UNL     1      43.072   4.850  12.770  0.00  0.00    +0.000 C 
ATOM     17  F   UNL     1      42.139   4.915  11.751  0.00  0.00    +0.000 F 
BRANCH  14  18
ATOM     18  C   UNL     1      44.881   4.322  10.952  0.00  0.00    +0.000 A 
ATOM     19  C   UNL     1      45.402   5.340  10.136  0.00  0.00    +0.000 A 
ATOM     20  C   UNL     1      45.857   5.080   8.838  0.00  0.00    +0.000 A 
ATOM     21  C   UNL     1      45.804   3.784   8.324  0.00  0.00    +0.000 A 
ATOM     22 CL   UNL     1      46.453   3.514   6.748  0.00  0.00    +0.000 Cl
ATOM     23  C   UNL     1      45.257   2.759   9.100  0.00  0.00    +0.000 A 
ATOM     24 CL   UNL     1      45.156   1.127   8.540  0.00  0.00    +0.000 Cl
ATOM     25  C   UNL     1      44.795   3.032  10.393  0.00  0.00    +0.000 A 
ENDBRANCH  14  18
ENDBRANCH   5  14
TORSDOF 3
ENDMDL
MODEL 4
REMARK VINA RESULT:    -6.445      4.380      6.225
REMARK INTER + INTRA:          -8.039
REMARK INTER:                  -8.200
REMARK INTRA:                   0.161
REMARK UNBOUND:                -0.464
REMARK  Name = 
REMARK  3 active torsions:
REMARK  status: ('A' for Active; 'I' for Inactive)
REMARK    1  A    between atoms: C_2  and  C_4
REMARK    2  A    between atoms: N_8  and  C_9
REMARK    3  A    between atoms: C_9  and  C_10
REMARK                            x       y       z     vdW  Elec       q    Type
REMARK                         _______ _______ _______ _____ _____    ______ ____
ROOT
ATOM      1  C   UNL     1      48.430   7.248  13.725  0.00  0.00    +0.000 A 
ATOM      2  C   UNL     1      47.866   6.008  14.004  0.00  0.00    +0.000 A 
ATOM      3  C   UNL     1      46.569   5.729  13.562  0.00  0.00    +0.000 A 
ATOM      4  C   UNL     1      45.859   6.701  12.870  0.00  0.00    +0.000 A 
ATOM      5  N   UNL     1      44.525   6.553  12.487  0.00  0.00    +0.000 N 
ATOM      6  N   UNL     1      46.395   7.910  12.595  0.00  0.00    +0.000 NA
ATOM      7  C   UNL     1      47.657   8.163  13.027  0.00  0.00    +0.000 A 
ATOM      8  H   UNL     1      44.307   7.381  11.931  0.00  0.00    +0.000 HD
ENDROOT
BRANCH   1  10
ATOM      9  N   UNL     1      50.772   7.660  13.240  0.00  0.00    +0.000 N 
ATOM     10  C   UNL     1      49.778   7.640  14.178  0.00  0.00    +0.000 C 
ATOM     11  O   UNL     1      49.995   7.967  15.338  0.00  0.00    +0.000 OA
ATOM     12  H   UNL     1      51.668   8.022  13.544  0.00  0.00    +0.000 HD
ATOM     13  H   UNL     1      50.590   7.643  12.248  0.00  0.00    +0.000 HD
ENDBRANCH   1  10
BRANCH   5  14
ATOM     14  C   UNL     1      43.922   5.285  12.022  0.00  0.00    +0.000 C 
ATOM     15  C   UNL     1      42.406   5.215  12.205  0.00  0.00    +0.000 C 
ATOM     16  C   UNL     1      43.280   4.269  12.948  0.00  0.00    +0.000 C 
ATOM     17  F   UNL     1      43.232   2.944  12.551  0.00  0.00    +0.000 F 
BRANCH  14  18
ATOM     18  C   UNL     1      44.531   4.796  10.709  0.00  0.00    +0.000 A 
ATOM     19  C   UNL     1      45.378   5.609   9.937  0.00  0.00    +0.000 A 
ATOM     20  C   UNL     1      46.042   5.115   8.809  0.00  0.00    +0.000 A 
ATOM     21  C   UNL     1      45.877   3.784   8.427  0.00  0.00    +0.000 A 
ATOM     22 CL   UNL     1      46.786   3.214   7.074  0.00  0.00    +0.000 Cl
ATOM     23  C   UNL     1      45.014   2.961   9.155  0.00  0.00    +0.000 A 
ATOM     24 CL   UNL     1      44.754   1.301   8.750  0.00  0.00    +0.000 Cl
ATOM     25  C   UNL     1      44.345   3.469  10.275  0.00  0.00    +0.000 A 
ENDBRANCH  14  18
ENDBRANCH   5  14
TORSDOF 3
ENDMDL
MODEL 5
REMARK VINA RESULT:    -6.182      1.852      2.362
REMARK INTER + INTRA:          -7.730
REMARK INTER:                  -8.013
REMARK INTRA:                   0.283
REMARK UNBOUND:                -0.464
REMARK  Name = 
REMARK  3 active torsions:
REMARK  status: ('A' for Active; 'I' for Inactive)
REMARK    1  A    between atoms: C_2  and  C_4
REMARK    2  A    between atoms: N_8  and  C_9
REMARK    3  A    between atoms: C_9  and  C_10
REMARK                            x       y       z     vdW  Elec       q    Type
REMARK                         _______ _______ _______ _____ _____    ______ ____
ROOT
ATOM      1  C   UNL     1      46.427   3.440   7.099  0.00  0.00    +0.000 A 
ATOM      2  C   UNL     1      46.826   4.401   8.020  0.00  0.00    +0.000 A 
ATOM      3  C   UNL     1      45.929   4.821   9.007  0.00  0.00    +0.000 A 
ATOM      4  C   UNL     1      44.648   4.286   9.038  0.00  0.00    +0.000 A 
ATOM      5  N   UNL     1      43.653   4.722   9.914  0.00  0.00    +0.000 N 
ATOM      6  N   UNL     1      44.248   3.353   8.146  0.00  0.00    +0.000 NA
ATOM      7  C   UNL     1      45.133   2.953   7.198  0.00  0.00    +0.000 A 
ATOM      8  H   UNL     1      42.862   4.095   9.761  0.00  0.00    +0.000 HD
ENDROOT
BRANCH   1  10
ATOM      9  N   UNL     1      48.563   2.572   6.340  0.00  0.00    +0.000 N 
ATOM     10  C   UNL     1      47.296   2.962   6.006  0.00  0.00    +0.000 C 
ATOM     11  O   UNL     1      46.892   2.883   4.853  0.00  0.00    +0.000 OA
ATOM     12  H   UNL     1      49.114   2.157   5.598  0.00  0.00    +0.000 HD
ATOM     13  H   UNL     1      48.848   2.387   7.289  0.00  0.00    +0.000 HD
ENDBRANCH   1  10
BRANCH   5  14
ATOM     14  C   UNL     1      43.890   5.135  11.314  0.00  0.00    +0.000 C 
ATOM     15  C   UNL     1      44.215   3.977  12.256  0.00  0.00    +0.000 C 
ATOM     16  C   UNL     1      42.974   4.767  12.467  0.00  0.00    +0.000 C 
ATOM     17  F   UNL     1      42.947   5.587  13.582  0.00  0.00    +0.000 F 
BRANCH  14  18
ATOM     18  C   UNL     1      44.709   6.420  11.412  0.00  0.00    +0.000 A 
ATOM     19  C   UNL     1      44.119   7.687  11.262  0.00  0.00    +0.000 A 
ATOM     20  C   UNL     1      44.842   8.864  11.486  0.00  0.00    +0.000 A 
ATOM     21  C   UNL     1      46.180   8.801  11.874  0.00  0.00    +0.000 A 
ATOM     22 CL   UNL     1      46.993  10.286  12.213  0.00  0.00    +0.000 Cl
ATOM     23  C   UNL     1      46.803   7.557  11.996  0.00  0.00    +0.000 A 
ATOM     24 CL   UNL     1      48.456   7.390  12.473  0.00  0.00    +0.000 Cl
ATOM     25  C   UNL     1      46.073   6.385  11.758  0.00  0.00    +0.000 A 
ENDBRANCH  14  18
ENDBRANCH   5  14
TORSDOF 3
ENDMDL
