MODEL 1
REMARK VINA RESULT:    -7.587      0.000      0.000
REMARK INTER + INTRA:         -10.563
REMARK INTER:                  -9.805
REMARK INTRA:                  -0.758
REMARK UNBOUND:                -0.758
REMARK  Name = 
REMARK  6 active torsions:
REMARK  status: ('A' for Active; 'I' for Inactive)
REMARK    1  A    between atoms: C_1  and  O_2
REMARK    2  A    between atoms: O_2  and  C_3
REMARK    3  A    between atoms: C_5  and  C_6
REMARK    4  A    between atoms: N_11  and  C_12
REMARK    5  A    between atoms: C_12  and  C_13
REMARK    6  A    between atoms: C_18  and  C_19
REMARK                            x       y       z     vdW  Elec       q    Type
REMARK                         _______ _______ _______ _____ _____    ______ ____
ROOT
ATOM      1  C   UNL     1      48.433   5.064  19.086  0.00  0.00    +0.000 A 
ATOM      2  C   UNL     1      48.911   3.822  18.781  0.00  0.00    +0.000 A 
ATOM      3  C   UNL     1      49.244   3.661  17.460  0.00  0.00    +0.000 A 
ATOM      4  N   UNL     1      49.087   4.613  16.504  0.00  0.00    +0.000 NA
ATOM      5  C   UNL     1      48.594   5.782  16.916  0.00  0.00    +0.000 A 
ATOM      6  N   UNL     1      48.318   6.791  16.021  0.00  0.00    +0.000 N 
ATOM      7  N   UNL     1      48.299   6.057  18.190  0.00  0.00    +0.000 NA
ATOM      8  H   UNL     1      48.385   7.691  16.479  0.00  0.00    +0.000 HD
ENDROOT
BRANCH   3   9
ATOM      9  C   UNL     1      49.821   2.358  17.011  0.00  0.00    +0.000 C 
ATOM     10  N   UNL     1      50.853   1.877  17.774  0.00  0.00    +0.000 N 
ATOM     11  O   UNL     1      49.404   1.750  16.036  0.00  0.00    +0.000 OA
ATOM     12  H   UNL     1      51.188   2.410  18.568  0.00  0.00    +0.000 HD
ATOM     13  H   UNL     1      51.297   1.007  17.516  0.00  0.00    +0.000 HD
ENDBRANCH   3   9
BRANCH   1  15
ATOM     14  C   UNL     1      47.535   6.577  20.626  0.00  0.00    +0.000 C 
ATOM     15  O   UNL     1      48.062   5.273  20.399  0.00  0.00    +0.000 OA
ENDBRANCH   1  15
BRANCH   6  16
ATOM     16  C   UNL     1      48.805   6.671  14.672  0.00  0.00    +0.000 C 
BRANCH  16  17
ATOM     17  C   UNL     1      47.697   7.040  13.710  0.00  0.00    +0.000 A 
ATOM     18  C   UNL     1      47.200   8.342  13.678  0.00  0.00    +0.000 A 
ATOM     19  C   UNL     1      46.146   8.662  12.827  0.00  0.00    +0.000 A 
ATOM     20  C   UNL     1      45.563   7.686  12.003  0.00  0.00    +0.000 A 
ATOM     21 CL   UNL     1      44.178   8.219  11.105  0.00  0.00    +0.000 Cl
ATOM     22  C   UNL     1      46.051   6.358  11.976  0.00  0.00    +0.000 A 
ATOM     23  C   UNL     1      47.119   6.070  12.864  0.00  0.00    +0.000 A 
BRANCH  22  24
ATOM     24  C   UNL     1      45.524   5.278  11.093  0.00  0.00    +0.000 A 
ATOM     25  C   UNL     1      45.682   5.311   9.696  0.00  0.00    +0.000 A 
ATOM     26  C   UNL     1      45.156   4.303   8.884  0.00  0.00    +0.000 A 
ATOM     27  C   UNL     1      44.486   3.256   9.486  0.00  0.00    +0.000 A 
ATOM     28  N   UNL     1      44.287   3.175  10.813  0.00  0.00    +0.000 NA
ATOM     29  C   UNL     1      44.792   4.184  11.571  0.00  0.00    +0.000 A 
ENDBRANCH  22  24
ENDBRANCH  16  17
ENDBRANCH   6  16
TORSDOF 5
ENDMDL
MODEL 2
REMARK VINA RESULT:    -7.265      3.546      7.775
REMARK INTER + INTRA:         -10.147
REMARK INTER:                  -9.636
REMARK INTRA:                  -0.510
REMARK UNBOUND:                -0.758
REMARK  Name = 
REMARK  6 active torsions:
REMARK  status: ('A' for Active; 'I' for Inactive)
REMARK    1  A    between atoms: C_1  and  O_2
REMARK    2  A    between atoms: O_2  and  C_3
REMARK    3  A    between atoms: C_5  and  C_6
REMARK    4  A    between atoms: N_11  and  C_12
REMARK    5  A    between atoms: C_12  and  C_13
REMARK    6  A    between atoms: C_18  and  C_19
REMARK                            x       y       z     vdW  Elec       q    Type
REMARK                         _______ _______ _______ _____ _____    ______ ____
ROOT
ATOM      1  C   UNL     1      45.231   3.398   8.549  0.00  0.00    +0.000 A 
ATOM      2  C   UNL     1      44.561   2.644   9.468  0.00  0.00    +0.000 A 
ATOM      3  C   UNL     1      44.321   3.290  10.654  0.00  0.00    +0.000 A 
ATOM      4  N   UNL     1      44.734   4.552  10.941  0.00  0.00    +0.000 NA
ATOM      5  C   UNL     1      45.396   5.187   9.972  0.00  0.00    +0.000 A 
ATOM      6  N   UNL     1      45.931   6.438  10.180  0.00  0.00    +0.000 N 
ATOM      7  N   UNL     1      45.624   4.666   8.763  0.00  0.00    +0.000 NA
ATOM      8  H   UNL     1      45.992   6.941   9.304  0.00  0.00    +0.000 HD
ENDROOT
BRANCH   3   9
ATOM      9  C   UNL     1      43.555   2.583  11.725  0.00  0.00    +0.000 C 
ATOM     10  N   UNL     1      43.728   3.073  12.993  0.00  0.00    +0.000 N 
ATOM     11  O   UNL     1      42.815   1.638  11.496  0.00  0.00    +0.000 OA
ATOM     12  H   UNL     1      44.359   3.849  13.155  0.00  0.00    +0.000 HD
ATOM     13  H   UNL     1      43.249   2.632  13.765  0.00  0.00    +0.000 HD
ENDBRANCH   3   9
BRANCH   1  15
ATOM     14  C   UNL     1      46.668   3.333   6.706  0.00  0.00    +0.000 C 
ATOM     15  O   UNL     1      45.518   2.787   7.345  0.00  0.00    +0.000 OA
ENDBRANCH   1  15
BRANCH   6  16
ATOM     16  C   UNL     1      45.550   7.165  11.363  0.00  0.00    +0.000 C 
BRANCH  16  17
ATOM     17  C   UNL     1      46.734   7.237  12.303  0.00  0.00    +0.000 A 
ATOM     18  C   UNL     1      47.773   8.133  12.056  0.00  0.00    +0.000 A 
ATOM     19  C   UNL     1      48.882   8.157  12.896  0.00  0.00    +0.000 A 
ATOM     20  C   UNL     1      48.978   7.283  13.990  0.00  0.00    +0.000 A 
ATOM     21 CL   UNL     1      50.480   7.353  14.854  0.00  0.00    +0.000 Cl
ATOM     22  C   UNL     1      47.936   6.377  14.302  0.00  0.00    +0.000 A 
ATOM     23  C   UNL     1      46.828   6.375  13.416  0.00  0.00    +0.000 A 
BRANCH  22  24
ATOM     24  C   UNL     1      47.935   5.454  15.473  0.00  0.00    +0.000 A 
ATOM     25  C   UNL     1      48.726   5.692  16.612  0.00  0.00    +0.000 A 
ATOM     26  C   UNL     1      48.733   4.799  17.688  0.00  0.00    +0.000 A 
ATOM     27  C   UNL     1      47.929   3.678  17.617  0.00  0.00    +0.000 A 
ATOM     28  N   UNL     1      47.165   3.386  16.550  0.00  0.00    +0.000 NA
ATOM     29  C   UNL     1      47.200   4.264  15.513  0.00  0.00    +0.000 A 
ENDBRANCH  22  24
ENDBRANCH  16  17
ENDBRANCH   6  16
TORSDOF 5
ENDMDL
MODEL 3
REMARK VINA RESULT:    -7.123      4.946      8.109
REMARK INTER + INTRA:          -9.962
REMARK INTER:                  -9.185
REMARK INTRA:                  -0.778
REMARK UNBOUND:                -0.758
REMARK  Name = 
REMARK  6 active torsions:
REMARK  status: ('A' for Active; 'I' for Inactive)
REMARK    1  A    between atoms: C_1  and  O_2
REMARK    2  A    between atoms: O_2  and  C_3
REMARK    3  A    between atoms: C_5  and  C_6
REMARK    4  A    between atoms: N_11  and  C_12
REMARK    5  A    between atoms: C_12  and  C_13
REMARK    6  A    between atoms: C_18  and  C_19
REMARK                            x       y       z     vdW  Elec       q    Type
REMARK                         _______ _______ _______ _____ _____    ______ ____
ROOT
ATOM      1  C   UNL     1      44.984   3.813   8.640  0.00  0.00    +0.000 A 
ATOM      2  C   UNL     1      44.291   3.046   9.531  0.00  0.00    +0.000 A 
ATOM      3  C   UNL     1      44.284   3.544  10.809  0.00  0.00    +0.000 A 
ATOM      4  N   UNL     1      44.930   4.673  11.200  0.00  0.00    +0.000 NA
ATOM      5  C   UNL     1      45.589   5.332  10.246  0.00  0.00    +0.000 A 
ATOM      6  N   UNL     1      46.345   6.442  10.543  0.00  0.00    +0.000 N 
ATOM      7  N   UNL     1      45.604   4.961   8.962  0.00  0.00    +0.000 NA
ATOM      8  H   UNL     1      46.402   7.052   9.737  0.00  0.00    +0.000 HD
ENDROOT
BRANCH   3   9
ATOM      9  C   UNL     1      43.520   2.816  11.868  0.00  0.00    +0.000 C 
ATOM     10  N   UNL     1      43.611   3.346  13.128  0.00  0.00    +0.000 N 
ATOM     11  O   UNL     1      42.851   1.820  11.636  0.00  0.00    +0.000 OA
ATOM     12  H   UNL     1      44.185   4.164  13.294  0.00  0.00    +0.000 HD
ATOM     13  H   UNL     1      43.129   2.895  13.893  0.00  0.00    +0.000 HD
ENDBRANCH   3   9
BRANCH   1  15
ATOM     14  C   UNL     1      46.358   3.379   6.799  0.00  0.00    +0.000 C 
ATOM     15  O   UNL     1      45.042   3.346   7.342  0.00  0.00    +0.000 OA
ENDBRANCH   1  15
BRANCH   6  16
ATOM     16  C   UNL     1      46.213   7.041  11.846  0.00  0.00    +0.000 C 
BRANCH  16  17
ATOM     17  C   UNL     1      47.590   7.266  12.431  0.00  0.00    +0.000 A 
ATOM     18  C   UNL     1      47.801   7.128  13.802  0.00  0.00    +0.000 A 
ATOM     19  C   UNL     1      49.058   7.386  14.340  0.00  0.00    +0.000 A 
ATOM     20  C   UNL     1      50.122   7.796  13.522  0.00  0.00    +0.000 A 
ATOM     21 CL   UNL     1      51.581   8.202  14.367  0.00  0.00    +0.000 Cl
ATOM     22  C   UNL     1      49.968   7.920  12.121  0.00  0.00    +0.000 A 
ATOM     23  C   UNL     1      48.670   7.658  11.612  0.00  0.00    +0.000 A 
BRANCH  22  24
ATOM     24  C   UNL     1      51.059   8.297  11.177  0.00  0.00    +0.000 A 
ATOM     25  C   UNL     1      51.747   7.340  10.409  0.00  0.00    +0.000 A 
ATOM     26  C   UNL     1      52.786   7.711   9.551  0.00  0.00    +0.000 A 
ATOM     27  C   UNL     1      53.116   9.049   9.458  0.00  0.00    +0.000 A 
ATOM     28  N   UNL     1      52.509  10.008  10.178  0.00  0.00    +0.000 NA
ATOM     29  C   UNL     1      51.519   9.609  11.019  0.00  0.00    +0.000 A 
ENDBRANCH  22  24
ENDBRANCH  16  17
ENDBRANCH   6  16
TORSDOF 5
ENDMDL
MODEL 4
REMARK VINA RESULT:    -6.747      3.970      8.297
REMARK INTER + INTRA:          -9.477
REMARK INTER:                  -8.798
REMARK INTRA:                  -0.679
REMARK UNBOUND:                -0.758
REMARK  Name = 
REMARK  6 active torsions:
REMARK  status: ('A' for Active; 'I' for Inactive)
REMARK    1  A    between atoms: C_1  and  O_2
REMARK    2  A    between atoms: O_2  and  C_3
REMARK    3  A    between atoms: C_5  and  C_6
REMARK    4  A    between atoms: N_11  and  C_12
REMARK    5  A    between atoms: C_12  and  C_13
REMARK    6  A    between atoms: C_18  and  C_19
REMARK                            x       y       z     vdW  Elec       q    Type
REMARK                         _______ _______ _______ _____ _____    ______ ____
ROOT
ATOM      1  C   UNL     1      44.943   6.587  11.926  0.00  0.00    +0.000 A 
ATOM      2  C   UNL     1      44.388   5.544  11.242  0.00  0.00    +0.000 A 
ATOM      3  C   UNL     1      44.705   4.311  11.751  0.00  0.00    +0.000 A 
ATOM      4  N   UNL     1      45.528   4.103  12.812  0.00  0.00    +0.000 NA
ATOM      5  C   UNL     1      46.027   5.197  13.390  0.00  0.00    +0.000 A 
ATOM      6  N   UNL     1      46.935   5.104  14.420  0.00  0.00    +0.000 N 
ATOM      7  N   UNL     1      45.728   6.441  13.007  0.00  0.00    +0.000 NA
ATOM      8  H   UNL     1      46.875   5.923  15.012  0.00  0.00    +0.000 HD
ENDROOT
BRANCH   3   9
ATOM      9  C   UNL     1      44.121   3.090  11.116  0.00  0.00    +0.000 C 
ATOM     10  N   UNL     1      44.917   2.473  10.186  0.00  0.00    +0.000 N 
ATOM     11  O   UNL     1      43.015   2.659  11.404  0.00  0.00    +0.000 OA
ATOM     12  H   UNL     1      45.824   2.861   9.957  0.00  0.00    +0.000 HD
ATOM     13  H   UNL     1      44.576   1.650   9.710  0.00  0.00    +0.000 HD
ENDBRANCH   3   9
BRANCH   1  15
ATOM     14  C   UNL     1      45.255   8.884  12.232  0.00  0.00    +0.000 C 
ATOM     15  O   UNL     1      44.673   7.851  11.442  0.00  0.00    +0.000 OA
ENDBRANCH   1  15
BRANCH   6  16
ATOM     16  C   UNL     1      47.146   3.823  15.043  0.00  0.00    +0.000 C 
BRANCH  16  17
ATOM     17  C   UNL     1      47.662   4.034  16.450  0.00  0.00    +0.000 A 
ATOM     18  C   UNL     1      47.983   2.939  17.251  0.00  0.00    +0.000 A 
ATOM     19  C   UNL     1      48.408   3.140  18.561  0.00  0.00    +0.000 A 
ATOM     20  C   UNL     1      48.511   4.433  19.096  0.00  0.00    +0.000 A 
ATOM     21 CL   UNL     1      48.928   4.499  20.778  0.00  0.00    +0.000 Cl
ATOM     22  C   UNL     1      48.228   5.578  18.314  0.00  0.00    +0.000 A 
ATOM     23  C   UNL     1      47.788   5.332  16.988  0.00  0.00    +0.000 A 
BRANCH  22  24
ATOM     24  C   UNL     1      48.364   6.986  18.788  0.00  0.00    +0.000 A 
ATOM     25  C   UNL     1      47.575   7.501  19.832  0.00  0.00    +0.000 A 
ATOM     26  C   UNL     1      47.697   8.832  20.243  0.00  0.00    +0.000 A 
ATOM     27  C   UNL     1      48.627   9.632  19.609  0.00  0.00    +0.000 A 
ATOM     28  N   UNL     1      49.397   9.204  18.594  0.00  0.00    +0.000 NA
ATOM     29  C   UNL     1      49.236   7.912  18.205  0.00  0.00    +0.000 A 
ENDBRANCH  22  24
ENDBRANCH  16  17
ENDBRANCH   6  16
TORSDOF 5
ENDMDL
MODEL 5
REMARK VINA RESULT:    -6.382      4.508      6.785
REMARK INTER + INTRA:          -9.005
REMARK INTER:                  -8.178
REMARK INTRA:                  -0.827
REMARK UNBOUND:                -0.758
REMARK  Name = 
REMARK  6 active torsions:
REMARK  status: ('A' for Active; 'I' for Inactive)
REMARK    1  A    between atoms: C_1  and  O_2
REMARK    2  A    between atoms: O_2  and  C_3
REMARK    3  A    between atoms: C_5  and  C_6
REMARK    4  A    between atoms: N_11  and  C_12
REMARK    5  A    between atoms: C_12  and  C_13
REMARK    6  A    between atoms: C_18  and  C_19
REMARK                            x       y       z     vdW  Elec       q    Type
REMARK                         _______ _______ _______ _____ _____    ______ ____
ROOT
ATOM      1  C   UNL     1      47.063   4.016  13.830  0.00  0.00    +0.000 A 
ATOM      2  C   UNL     1      46.030   3.677  13.006  0.00  0.00    +0.000 A 
ATOM      3  C   UNL     1      45.614   4.693  12.185  0.00  0.00    +0.000 A 
ATOM      4  N   UNL     1      46.128   5.950  12.192  0.00  0.00    +0.000 NA
ATOM      5  C   UNL     1      47.123   6.171  13.053  0.00  0.00    +0.000 A 
ATOM      6  N   UNL     1      47.666   7.427  13.204  0.00  0.00    +0.000 N 
ATOM      7  N   UNL     1      47.640   5.230  13.849  0.00  0.00    +0.000 NA
ATOM      8  H   UNL     1      48.626   7.357  13.515  0.00  0.00    +0.000 HD
ENDROOT
BRANCH   3   9
ATOM      9  C   UNL     1      44.517   4.431  11.203  0.00  0.00    +0.000 C 
ATOM     10  N   UNL     1      43.968   5.545  10.624  0.00  0.00    +0.000 N 
ATOM     11  O   UNL     1      44.134   3.305  10.923  0.00  0.00    +0.000 OA
ATOM     12  H   UNL     1      44.296   6.467  10.886  0.00  0.00    +0.000 HD
ATOM     13  H   UNL     1      43.214   5.439   9.961  0.00  0.00    +0.000 HD
ENDBRANCH   3   9
BRANCH   1  15
ATOM     14  C   UNL     1      47.636   3.494  16.036  0.00  0.00    +0.000 C 
ATOM     15  O   UNL     1      47.508   3.035  14.694  0.00  0.00    +0.000 OA
ENDBRANCH   1  15
BRANCH   6  16
ATOM     16  C   UNL     1      47.331   8.445  12.242  0.00  0.00    +0.000 C 
BRANCH  16  17
ATOM     17  C   UNL     1      48.603   9.105  11.755  0.00  0.00    +0.000 A 
ATOM     18  C   UNL     1      48.613  10.465  11.446  0.00  0.00    +0.000 A 
ATOM     19  C   UNL     1      49.772  11.054  10.950  0.00  0.00    +0.000 A 
ATOM     20  C   UNL     1      50.936  10.296  10.745  0.00  0.00    +0.000 A 
ATOM     21 CL   UNL     1      52.246  11.153   9.999  0.00  0.00    +0.000 Cl
ATOM     22  C   UNL     1      50.986   8.920  11.073  0.00  0.00    +0.000 A 
ATOM     23  C   UNL     1      49.782   8.354  11.566  0.00  0.00    +0.000 A 
BRANCH  22  24
ATOM     24  C   UNL     1      52.194   8.057  10.936  0.00  0.00    +0.000 A 
ATOM     25  C   UNL     1      52.279   7.038   9.970  0.00  0.00    +0.000 A 
ATOM     26  C   UNL     1      53.410   6.221   9.877  0.00  0.00    +0.000 A 
ATOM     27  C   UNL     1      54.457   6.447  10.748  0.00  0.00    +0.000 A 
ATOM     28  N   UNL     1      54.430   7.393  11.703  0.00  0.00    +0.000 NA
ATOM     29  C   UNL     1      53.306   8.154  11.780  0.00  0.00    +0.000 A 
ENDBRANCH  22  24
ENDBRANCH  16  17
ENDBRANCH   6  16
TORSDOF 5
ENDMDL
MODEL 6
REMARK VINA RESULT:    -6.349      1.829      3.478
REMARK INTER + INTRA:          -8.963
REMARK INTER:                  -8.064
REMARK INTRA:                  -0.899
REMARK UNBOUND:                -0.758
REMARK  Name = 
REMARK  6 active torsions:
REMARK  status: ('A' for Active; 'I' for Inactive)
REMARK    1  A    between atoms: C_1  and  O_2
REMARK    2  A    between atoms: O_2  and  C_3
REMARK    3  A    between atoms: C_5  and  C_6
REMARK    4  A    between atoms: N_11  and  C_12
REMARK    5  A    between atoms: C_12  and  C_13
REMARK    6  A    between atoms: C_18  and  C_19
REMARK                            x       y       z     vdW  Elec       q    Type
REMARK                         _______ _______ _______ _____ _____    ______ ____
ROOT
ATOM      1  C   UNL     1      48.932   5.846  17.186  0.00  0.00    +0.000 A 
ATOM      2  C   UNL     1      48.710   6.993  17.891  0.00  0.00    +0.000 A 
ATOM      3  C   UNL     1      48.561   8.109  17.108  0.00  0.00    +0.000 A 
ATOM      4  N   UNL     1      48.660   8.120  15.753  0.00  0.00    +0.000 NA
ATOM      5  C   UNL     1      48.897   6.941  15.173  0.00  0.00    +0.000 A 
ATOM      6  N   UNL     1      49.096   6.846  13.815  0.00  0.00    +0.000 N 
ATOM      7  N   UNL     1      48.996   5.790  15.844  0.00  0.00    +0.000 NA
ATOM      8  H   UNL     1      48.826   5.928  13.487  0.00  0.00    +0.000 HD
ENDROOT
BRANCH   3   9
ATOM      9  C   UNL     1      48.269   9.421  17.761  0.00  0.00    +0.000 C 
ATOM     10  N   UNL     1      47.878  10.426  16.915  0.00  0.00    +0.000 N 
ATOM     11  O   UNL     1      48.360   9.595  18.968  0.00  0.00    +0.000 OA
ATOM     12  H   UNL     1      47.825  10.257  15.918  0.00  0.00    +0.000 HD
ATOM     13  H   UNL     1      47.678  11.342  17.291  0.00  0.00    +0.000 HD
ENDBRANCH   3   9
BRANCH   1  15
ATOM     14  C   UNL     1      48.210   3.654  17.564  0.00  0.00    +0.000 C 
ATOM     15  O   UNL     1      49.112   4.695  17.927  0.00  0.00    +0.000 OA
ENDBRANCH   1  15
BRANCH   6  16
ATOM     16  C   UNL     1      48.792   7.986  12.989  0.00  0.00    +0.000 C 
BRANCH  16  17
ATOM     17  C   UNL     1      47.393   7.834  12.432  0.00  0.00    +0.000 A 
ATOM     18  C   UNL     1      46.457   8.854  12.600  0.00  0.00    +0.000 A 
ATOM     19  C   UNL     1      45.158   8.687  12.130  0.00  0.00    +0.000 A 
ATOM     20  C   UNL     1      44.768   7.497  11.494  0.00  0.00    +0.000 A 
ATOM     21 CL   UNL     1      43.084   7.401  11.089  0.00  0.00    +0.000 Cl
ATOM     22  C   UNL     1      45.688   6.446  11.272  0.00  0.00    +0.000 A 
ATOM     23  C   UNL     1      46.999   6.650  11.774  0.00  0.00    +0.000 A 
BRANCH  22  24
ATOM     24  C   UNL     1      45.370   5.175  10.560  0.00  0.00    +0.000 A 
ATOM     25  C   UNL     1      45.595   5.014   9.181  0.00  0.00    +0.000 A 
ATOM     26  C   UNL     1      45.263   3.825   8.526  0.00  0.00    +0.000 A 
ATOM     27  C   UNL     1      44.721   2.795   9.270  0.00  0.00    +0.000 A 
ATOM     28  N   UNL     1      44.465   2.892  10.586  0.00  0.00    +0.000 NA
ATOM     29  C   UNL     1      44.779   4.071  11.185  0.00  0.00    +0.000 A 
ENDBRANCH  22  24
ENDBRANCH  16  17
ENDBRANCH   6  16
TORSDOF 5
ENDMDL
MODEL 7
REMARK VINA RESULT:    -6.269      5.756      7.225
REMARK INTER + INTRA:          -8.859
REMARK INTER:                  -8.164
REMARK INTRA:                  -0.695
REMARK UNBOUND:                -0.758
REMARK  Name = 
REMARK  6 active torsions:
REMARK  status: ('A' for Active; 'I' for Inactive)
REMARK    1  A    between atoms: C_1  and  O_2
REMARK    2  A    between atoms: O_2  and  C_3
REMARK    3  A    between atoms: C_5  and  C_6
REMARK    4  A    between atoms: N_11  and  C_12
REMARK    5  A    between atoms: C_12  and  C_13
REMARK    6  A    between atoms: C_18  and  C_19
REMARK                            x       y       z     vdW  Elec       q    Type
REMARK                         _______ _______ _______ _____ _____    ______ ____
ROOT
ATOM      1  C   UNL     1      46.902   4.561  13.999  0.00  0.00    +0.000 A 
ATOM      2  C   UNL     1      45.839   4.626  13.144  0.00  0.00    +0.000 A 
ATOM      3  C   UNL     1      45.973   5.570  12.158  0.00  0.00    +0.000 A 
ATOM      4  N   UNL     1      47.031   6.412  12.035  0.00  0.00    +0.000 NA
ATOM      5  C   UNL     1      48.003   6.269  12.940  0.00  0.00    +0.000 A 
ATOM      6  N   UNL     1      49.083   7.121  12.961  0.00  0.00    +0.000 N 
ATOM      7  N   UNL     1      47.993   5.339  13.899  0.00  0.00    +0.000 NA
ATOM      8  H   UNL     1      49.888   6.653  13.360  0.00  0.00    +0.000 HD
ENDROOT
BRANCH   3   9
ATOM      9  C   UNL     1      44.895   5.706  11.132  0.00  0.00    +0.000 C 
ATOM     10  N   UNL     1      45.266   5.412   9.846  0.00  0.00    +0.000 N 
ATOM     11  O   UNL     1      43.755   6.049  11.411  0.00  0.00    +0.000 OA
ATOM     12  H   UNL     1      46.221   5.145   9.642  0.00  0.00    +0.000 HD
ATOM     13  H   UNL     1      44.587   5.496   9.102  0.00  0.00    +0.000 HD
ENDBRANCH   3   9
BRANCH   1  15
ATOM     14  C   UNL     1      47.338   4.127  16.254  0.00  0.00    +0.000 C 
ATOM     15  O   UNL     1      46.809   3.642  15.024  0.00  0.00    +0.000 OA
ENDBRANCH   1  15
BRANCH   6  16
ATOM     16  C   UNL     1      49.290   8.004  11.843  0.00  0.00    +0.000 C 
BRANCH  16  17
ATOM     17  C   UNL     1      50.764   8.032  11.499  0.00  0.00    +0.000 A 
ATOM     18  C   UNL     1      51.649   8.785  12.269  0.00  0.00    +0.000 A 
ATOM     19  C   UNL     1      52.994   8.847  11.917  0.00  0.00    +0.000 A 
ATOM     20  C   UNL     1      53.476   8.169  10.786  0.00  0.00    +0.000 A 
ATOM     21 CL   UNL     1      55.145   8.459  10.414  0.00  0.00    +0.000 Cl
ATOM     22  C   UNL     1      52.624   7.367   9.990  0.00  0.00    +0.000 A 
ATOM     23  C   UNL     1      51.259   7.337  10.376  0.00  0.00    +0.000 A 
BRANCH  22  24
ATOM     24  C   UNL     1      53.065   6.574   8.807  0.00  0.00    +0.000 A 
ATOM     25  C   UNL     1      53.953   5.489   8.924  0.00  0.00    +0.000 A 
ATOM     26  C   UNL     1      54.377   4.777   7.799  0.00  0.00    +0.000 A 
ATOM     27  C   UNL     1      53.890   5.150   6.562  0.00  0.00    +0.000 A 
ATOM     28  N   UNL     1      53.054   6.187   6.383  0.00  0.00    +0.000 NA
ATOM     29  C   UNL     1      52.680   6.872   7.495  0.00  0.00    +0.000 A 
ENDBRANCH  22  24
ENDBRANCH  16  17
ENDBRANCH   6  16
TORSDOF 5
ENDMDL
MODEL 8
REMARK VINA RESULT:    -6.237      5.443      6.837
REMARK INTER + INTRA:          -8.818
REMARK INTER:                  -8.126
REMARK INTRA:                  -0.692
REMARK UNBOUND:                -0.758
REMARK  Name = 
REMARK  6 active torsions:
REMARK  status: ('A' for Active; 'I' for Inactive)
REMARK    1  A    between atoms: C_1  and  O_2
REMARK    2  A    between atoms: O_2  and  C_3
REMARK    3  A    between atoms: C_5  and  C_6
REMARK    4  A    between atoms: N_11  and  C_12
REMARK    5  A    between atoms: C_12  and  C_13
REMARK    6  A    between atoms: C_18  and  C_19
REMARK                            x       y       z     vdW  Elec       q    Type
REMARK                         _______ _______ _______ _____ _____    ______ ____
ROOT
ATOM      1  C   UNL     1      45.532   5.255  12.222  0.00  0.00    +0.000 A 
ATOM      2  C   UNL     1      45.796   4.477  13.312  0.00  0.00    +0.000 A 
ATOM      3  C   UNL     1      46.967   4.792  13.952  0.00  0.00    +0.000 A 
ATOM      4  N   UNL     1      47.833   5.756  13.546  0.00  0.00    +0.000 NA
ATOM      5  C   UNL     1      47.479   6.441  12.456  0.00  0.00    +0.000 A 
ATOM      6  N   UNL     1      48.317   7.384  11.908  0.00  0.00    +0.000 N 
ATOM      7  N   UNL     1      46.331   6.251  11.800  0.00  0.00    +0.000 NA
ATOM      8  H   UNL     1      47.778   8.084  11.414  0.00  0.00    +0.000 HD
ENDROOT
BRANCH   3   9
ATOM      9  C   UNL     1      47.344   4.040  15.188  0.00  0.00    +0.000 C 
ATOM     10  N   UNL     1      47.163   4.716  16.366  0.00  0.00    +0.000 N 
ATOM     11  O   UNL     1      47.778   2.898  15.161  0.00  0.00    +0.000 OA
ATOM     12  H   UNL     1      46.815   5.667  16.357  0.00  0.00    +0.000 HD
ATOM     13  H   UNL     1      47.411   4.269  17.237  0.00  0.00    +0.000 HD
ENDBRANCH   3   9
BRANCH   1  15
ATOM     14  C   UNL     1      43.250   4.769  12.376  0.00  0.00    +0.000 C 
ATOM     15  O   UNL     1      44.375   4.966  11.526  0.00  0.00    +0.000 OA
ENDBRANCH   1  15
BRANCH   6  16
ATOM     16  C   UNL     1      49.466   7.813  12.664  0.00  0.00    +0.000 C 
BRANCH  16  17
ATOM     17  C   UNL     1      50.530   8.310  11.709  0.00  0.00    +0.000 A 
ATOM     18  C   UNL     1      50.805   9.674  11.615  0.00  0.00    +0.000 A 
ATOM     19  C   UNL     1      51.748  10.129  10.699  0.00  0.00    +0.000 A 
ATOM     20  C   UNL     1      52.424   9.234   9.855  0.00  0.00    +0.000 A 
ATOM     21 CL   UNL     1      53.466   9.977   8.684  0.00  0.00    +0.000 Cl
ATOM     22  C   UNL     1      52.204   7.839   9.933  0.00  0.00    +0.000 A 
ATOM     23  C   UNL     1      51.228   7.415  10.872  0.00  0.00    +0.000 A 
BRANCH  22  24
ATOM     24  C   UNL     1      52.917   6.818   9.112  0.00  0.00    +0.000 A 
ATOM     25  C   UNL     1      52.567   6.556   7.776  0.00  0.00    +0.000 A 
ATOM     26  C   UNL     1      53.229   5.575   7.032  0.00  0.00    +0.000 A 
ATOM     27  C   UNL     1      54.254   4.874   7.636  0.00  0.00    +0.000 A 
ATOM     28  N   UNL     1      54.624   5.065   8.914  0.00  0.00    +0.000 NA
ATOM     29  C   UNL     1      53.944   6.010   9.614  0.00  0.00    +0.000 A 
ENDBRANCH  22  24
ENDBRANCH  16  17
ENDBRANCH   6  16
TORSDOF 5
ENDMDL
MODEL 9
REMARK VINA RESULT:    -6.221      2.744      4.432
REMARK INTER + INTRA:          -8.797
REMARK INTER:                  -8.127
REMARK INTRA:                  -0.670
REMARK UNBOUND:                -0.758
REMARK  Name = 
REMARK  6 active torsions:
REMARK  status: ('A' for Active; 'I' for Inactive)
REMARK    1  A    between atoms: C_1  and  O_2
REMARK    2  A    between atoms: O_2  and  C_3
REMARK    3  A    between atoms: C_5  and  C_6
REMARK    4  A    between atoms: N_11  and  C_12
REMARK    5  A    between atoms: C_12  and  C_13
REMARK    6  A    between atoms: C_18  and  C_19
REMARK                            x       y       z     vdW  Elec       q    Type
REMARK                         _______ _______ _______ _____ _____    ______ ____
ROOT
ATOM      1  C   UNL     1      50.644   2.256  17.124  0.00  0.00    +0.000 A 
ATOM      2  C   UNL     1      49.288   2.202  16.985  0.00  0.00    +0.000 A 
ATOM      3  C   UNL     1      48.674   3.428  17.011  0.00  0.00    +0.000 A 
ATOM      4  N   UNL     1      49.319   4.609  17.199  0.00  0.00    +0.000 NA
ATOM      5  C   UNL     1      50.644   4.537  17.342  0.00  0.00    +0.000 A 
ATOM      6  N   UNL     1      51.389   5.660  17.619  0.00  0.00    +0.000 N 
ATOM      7  N   UNL     1      51.338   3.398  17.269  0.00  0.00    +0.000 NA
ATOM      8  H   UNL     1      52.333   5.547  17.271  0.00  0.00    +0.000 HD
ENDROOT
BRANCH   3   9
ATOM      9  C   UNL     1      47.193   3.504  16.822  0.00  0.00    +0.000 C 
ATOM     10  N   UNL     1      46.773   4.281  15.775  0.00  0.00    +0.000 N 
ATOM     11  O   UNL     1      46.403   2.911  17.542  0.00  0.00    +0.000 OA
ATOM     12  H   UNL     1      47.450   4.772  15.204  0.00  0.00    +0.000 HD
ATOM     13  H   UNL     1      45.783   4.385  15.600  0.00  0.00    +0.000 HD
ENDBRANCH   3   9
BRANCH   1  15
ATOM     14  C   UNL     1      52.604   1.127  17.717  0.00  0.00    +0.000 C 
ATOM     15  O   UNL     1      51.310   1.047  17.127  0.00  0.00    +0.000 OA
ENDBRANCH   1  15
BRANCH   6  16
ATOM     16  C   UNL     1      50.765   6.952  17.496  0.00  0.00    +0.000 C 
BRANCH  16  17
ATOM     17  C   UNL     1      50.639   7.305  16.030  0.00  0.00    +0.000 A 
ATOM     18  C   UNL     1      51.751   7.753  15.318  0.00  0.00    +0.000 A 
ATOM     19  C   UNL     1      51.617   8.124  13.983  0.00  0.00    +0.000 A 
ATOM     20  C   UNL     1      50.370   8.065  13.340  0.00  0.00    +0.000 A 
ATOM     21 CL   UNL     1      50.351   8.686  11.721  0.00  0.00    +0.000 Cl
ATOM     22  C   UNL     1      49.218   7.588  14.010  0.00  0.00    +0.000 A 
ATOM     23  C   UNL     1      49.394   7.229  15.371  0.00  0.00    +0.000 A 
BRANCH  22  24
ATOM     24  C   UNL     1      47.872   7.443  13.385  0.00  0.00    +0.000 A 
ATOM     25  C   UNL     1      47.493   6.283  12.685  0.00  0.00    +0.000 A 
ATOM     26  C   UNL     1      46.237   6.179  12.083  0.00  0.00    +0.000 A 
ATOM     27  C   UNL     1      45.360   7.239  12.203  0.00  0.00    +0.000 A 
ATOM     28  N   UNL     1      45.668   8.381  12.843  0.00  0.00    +0.000 NA
ATOM     29  C   UNL     1      46.907   8.457  13.397  0.00  0.00    +0.000 A 
ENDBRANCH  22  24
ENDBRANCH  16  17
ENDBRANCH   6  16
TORSDOF 5
ENDMDL
