MODEL 1
REMARK VINA RESULT:    -7.092      0.000      0.000
REMARK INTER + INTRA:          -9.527
REMARK INTER:                  -9.165
REMARK INTRA:                  -0.362
REMARK UNBOUND:                -0.362
REMARK  Name = 
REMARK  6 active torsions:
REMARK  status: ('A' for Active; 'I' for Inactive)
REMARK    1  A    between atoms: C_1  and  O_2
REMARK    2  A    between atoms: O_2  and  C_3
REMARK    3  A    between atoms: C_3  and  C_4
REMARK    4  A    between atoms: C_4  and  N_5
REMARK    5  A    between atoms: C_4  and  C_15
REMARK    6  A    between atoms: C_9  and  C_10
REMARK                            x       y       z     vdW  Elec       q    Type
REMARK                         _______ _______ _______ _____ _____    ______ ____
ROOT
ATOM      1  N   UNL     1      45.734   5.614  11.404  0.00  0.00    +0.000 N 
ATOM      2  C   UNL     1      46.439   5.386  12.583  0.00  0.00    +0.000 A 
ATOM      3  C   UNL     1      47.593   6.148  12.847  0.00  0.00    +0.000 A 
ATOM      4  N   UNL     1      48.294   6.127  14.011  0.00  0.00    +0.000 NA
ATOM      5  C   UNL     1      47.775   5.299  14.954  0.00  0.00    +0.000 A 
ATOM      6  C   UNL     1      46.649   4.525  14.718  0.00  0.00    +0.000 A 
ATOM      7  N   UNL     1      45.968   4.554  13.534  0.00  0.00    +0.000 NA
ATOM      8  H   UNL     1      46.343   5.880  10.637  0.00  0.00    +0.000 HD
ENDROOT
BRANCH   5   9
ATOM      9  C   UNL     1      48.432   5.289  16.293  0.00  0.00    +0.000 C 
ATOM     10  N   UNL     1      48.048   6.283  17.155  0.00  0.00    +0.000 N 
ATOM     11  O   UNL     1      49.246   4.434  16.617  0.00  0.00    +0.000 OA
ATOM     12  H   UNL     1      47.336   6.950  16.867  0.00  0.00    +0.000 HD
ATOM     13  H   UNL     1      48.404   6.295  18.098  0.00  0.00    +0.000 HD
ENDBRANCH   5   9
BRANCH   1  14
ATOM     14  C   UNL     1      44.716   4.641  10.960  0.00  0.00    +0.000 C 
BRANCH  14  15
ATOM     15  C   UNL     1      45.272   3.952   9.701  0.00  0.00    +0.000 A 
ATOM     16  C   UNL     1      45.217   2.546   9.615  0.00  0.00    +0.000 A 
ATOM     17  C   UNL     1      45.767   1.866   8.522  0.00  0.00    +0.000 A 
ATOM     18  C   UNL     1      46.364   2.583   7.491  0.00  0.00    +0.000 A 
ATOM     19 CL   UNL     1      47.054   1.751   6.153  0.00  0.00    +0.000 Cl
ATOM     20  C   UNL     1      46.408   3.972   7.539  0.00  0.00    +0.000 A 
ATOM     21  C   UNL     1      45.869   4.651   8.638  0.00  0.00    +0.000 A 
ENDBRANCH  14  15
BRANCH  14  22
ATOM     22  C   UNL     1      43.396   5.442  10.756  0.00  0.00    +0.000 C 
BRANCH  22  24
ATOM     23  C   UNL     1      42.765   5.119  13.008  0.00  0.00    +0.000 C 
ATOM     24  O   UNL     1      42.356   5.025  11.648  0.00  0.00    +0.000 OA
ENDBRANCH  22  24
ENDBRANCH  14  22
ENDBRANCH   1  14
TORSDOF 5
ENDMDL
MODEL 2
REMARK VINA RESULT:    -7.048      1.554      1.969
REMARK INTER + INTRA:          -9.471
REMARK INTER:                 -10.059
REMARK INTRA:                   0.588
REMARK UNBOUND:                -0.362
REMARK  Name = 
REMARK  6 active torsions:
REMARK  status: ('A' for Active; 'I' for Inactive)
REMARK    1  A    between atoms: C_1  and  O_2
REMARK    2  A    between atoms: O_2  and  C_3
REMARK    3  A    between atoms: C_3  and  C_4
REMARK    4  A    between atoms: C_4  and  N_5
REMARK    5  A    between atoms: C_4  and  C_15
REMARK    6  A    between atoms: C_9  and  C_10
REMARK                            x       y       z     vdW  Elec       q    Type
REMARK                         _______ _______ _______ _____ _____    ______ ____
ROOT
ATOM      1  N   UNL     1      45.121   2.856  11.463  0.00  0.00    +0.000 N 
ATOM      2  C   UNL     1      45.728   3.924  12.118  0.00  0.00    +0.000 A 
ATOM      3  C   UNL     1      46.293   3.713  13.391  0.00  0.00    +0.000 A 
ATOM      4  N   UNL     1      47.030   4.623  14.079  0.00  0.00    +0.000 NA
ATOM      5  C   UNL     1      47.213   5.797  13.422  0.00  0.00    +0.000 A 
ATOM      6  C   UNL     1      46.658   6.040  12.176  0.00  0.00    +0.000 A 
ATOM      7  N   UNL     1      45.909   5.113  11.508  0.00  0.00    +0.000 NA
ATOM      8  H   UNL     1      44.671   2.214  12.107  0.00  0.00    +0.000 HD
ENDROOT
BRANCH   5   9
ATOM      9  C   UNL     1      48.091   6.814  14.070  0.00  0.00    +0.000 C 
ATOM     10  N   UNL     1      47.538   8.056  14.246  0.00  0.00    +0.000 N 
ATOM     11  O   UNL     1      49.227   6.556  14.446  0.00  0.00    +0.000 OA
ATOM     12  H   UNL     1      46.575   8.222  13.962  0.00  0.00    +0.000 HD
ATOM     13  H   UNL     1      48.054   8.770  14.737  0.00  0.00    +0.000 HD
ENDBRANCH   5   9
BRANCH   1  14
ATOM     14  C   UNL     1      44.266   3.110  10.285  0.00  0.00    +0.000 C 
BRANCH  14  15
ATOM     15  C   UNL     1      45.153   2.934   9.040  0.00  0.00    +0.000 A 
ATOM     16  C   UNL     1      45.692   1.662   8.762  0.00  0.00    +0.000 A 
ATOM     17  C   UNL     1      46.557   1.462   7.680  0.00  0.00    +0.000 A 
ATOM     18  C   UNL     1      46.882   2.529   6.849  0.00  0.00    +0.000 A 
ATOM     19 CL   UNL     1      47.956   2.293   5.526  0.00  0.00    +0.000 Cl
ATOM     20  C   UNL     1      46.344   3.789   7.086  0.00  0.00    +0.000 A 
ATOM     21  C   UNL     1      45.489   3.990   8.176  0.00  0.00    +0.000 A 
ENDBRANCH  14  15
BRANCH  14  22
ATOM     22  C   UNL     1      43.656   4.529  10.477  0.00  0.00    +0.000 C 
BRANCH  22  24
ATOM     23  C   UNL     1      42.308   5.853  11.892  0.00  0.00    +0.000 C 
ATOM     24  O   UNL     1      42.568   4.540  11.408  0.00  0.00    +0.000 OA
ENDBRANCH  22  24
ENDBRANCH  14  22
ENDBRANCH   1  14
TORSDOF 5
ENDMDL
MODEL 3
REMARK VINA RESULT:    -6.688      3.758      6.514
REMARK INTER + INTRA:          -9.006
REMARK INTER:                  -9.358
REMARK INTRA:                   0.353
REMARK UNBOUND:                -0.362
REMARK  Name = 
REMARK  6 active torsions:
REMARK  status: ('A' for Active; 'I' for Inactive)
REMARK    1  A    between atoms: C_1  and  O_2
REMARK    2  A    between atoms: O_2  and  C_3
REMARK    3  A    between atoms: C_3  and  C_4
REMARK    4  A    between atoms: C_4  and  N_5
REMARK    5  A    between atoms: C_4  and  C_15
REMARK    6  A    between atoms: C_9  and  C_10
REMARK                            x       y       z     vdW  Elec       q    Type
REMARK                         _______ _______ _______ _____ _____    ______ ____
ROOT
ATOM      1  N   UNL     1      44.011   3.957  10.373  0.00  0.00    +0.000 N 
ATOM      2  C   UNL     1      44.983   3.635   9.428  0.00  0.00    +0.000 A 
ATOM      3  C   UNL     1      45.329   2.283   9.240  0.00  0.00    +0.000 A 
ATOM      4  N   UNL     1      46.154   1.817   8.266  0.00  0.00    +0.000 NA
ATOM      5  C   UNL     1      46.629   2.781   7.435  0.00  0.00    +0.000 A 
ATOM      6  C   UNL     1      46.317   4.121   7.605  0.00  0.00    +0.000 A 
ATOM      7  N   UNL     1      45.495   4.568   8.600  0.00  0.00    +0.000 NA
ATOM      8  H   UNL     1      44.026   3.330  11.170  0.00  0.00    +0.000 HD
ENDROOT
BRANCH   5   9
ATOM      9  C   UNL     1      47.466   2.339   6.282  0.00  0.00    +0.000 C 
ATOM     10  N   UNL     1      47.297   3.042   5.117  0.00  0.00    +0.000 N 
ATOM     11  O   UNL     1      48.273   1.423   6.371  0.00  0.00    +0.000 OA
ATOM     12  H   UNL     1      46.650   3.826   5.093  0.00  0.00    +0.000 HD
ATOM     13  H   UNL     1      47.880   2.837   4.320  0.00  0.00    +0.000 HD
ENDBRANCH   5   9
BRANCH   1  14
ATOM     14  C   UNL     1      43.847   5.360  10.805  0.00  0.00    +0.000 C 
BRANCH  14  15
ATOM     15  C   UNL     1      45.125   5.748  11.570  0.00  0.00    +0.000 A 
ATOM     16  C   UNL     1      45.645   7.048  11.410  0.00  0.00    +0.000 A 
ATOM     17  C   UNL     1      46.840   7.431  12.031  0.00  0.00    +0.000 A 
ATOM     18  C   UNL     1      47.522   6.524  12.835  0.00  0.00    +0.000 A 
ATOM     19 CL   UNL     1      48.999   6.984  13.589  0.00  0.00    +0.000 Cl
ATOM     20  C   UNL     1      47.017   5.243  13.029  0.00  0.00    +0.000 A 
ATOM     21  C   UNL     1      45.829   4.857  12.398  0.00  0.00    +0.000 A 
ENDBRANCH  14  15
BRANCH  14  22
ATOM     22  C   UNL     1      42.529   5.419  11.632  0.00  0.00    +0.000 C 
BRANCH  22  24
ATOM     23  C   UNL     1      42.941   4.232  13.630  0.00  0.00    +0.000 C 
ATOM     24  O   UNL     1      42.766   5.516  13.041  0.00  0.00    +0.000 OA
ENDBRANCH  22  24
ENDBRANCH  14  22
ENDBRANCH   1  14
TORSDOF 5
ENDMDL
MODEL 4
REMARK VINA RESULT:    -6.163      3.991      6.804
REMARK INTER + INTRA:          -8.326
REMARK INTER:                  -7.835
REMARK INTRA:                  -0.492
REMARK UNBOUND:                -0.362
REMARK  Name = 
REMARK  6 active torsions:
REMARK  status: ('A' for Active; 'I' for Inactive)
REMARK    1  A    between atoms: C_1  and  O_2
REMARK    2  A    between atoms: O_2  and  C_3
REMARK    3  A    between atoms: C_3  and  C_4
REMARK    4  A    between atoms: C_4  and  N_5
REMARK    5  A    between atoms: C_4  and  C_15
REMARK    6  A    between atoms: C_9  and  C_10
REMARK                            x       y       z     vdW  Elec       q    Type
REMARK                         _______ _______ _______ _____ _____    ______ ____
ROOT
ATOM      1  N   UNL     1      44.467   5.183  10.342  0.00  0.00    +0.000 N 
ATOM      2  C   UNL     1      45.220   4.460   9.420  0.00  0.00    +0.000 A 
ATOM      3  C   UNL     1      44.932   3.095   9.224  0.00  0.00    +0.000 A 
ATOM      4  N   UNL     1      45.491   2.309   8.267  0.00  0.00    +0.000 NA
ATOM      5  C   UNL     1      46.370   2.958   7.462  0.00  0.00    +0.000 A 
ATOM      6  C   UNL     1      46.685   4.296   7.639  0.00  0.00    +0.000 A 
ATOM      7  N   UNL     1      46.119   5.064   8.617  0.00  0.00    +0.000 NA
ATOM      8  H   UNL     1      44.177   4.617  11.132  0.00  0.00    +0.000 HD
ENDROOT
BRANCH   5   9
ATOM      9  C   UNL     1      46.956   2.188   6.327  0.00  0.00    +0.000 C 
ATOM     10  N   UNL     1      47.326   2.925   5.232  0.00  0.00    +0.000 N 
ATOM     11  O   UNL     1      47.121   0.975   6.373  0.00  0.00    +0.000 OA
ATOM     12  H   UNL     1      47.215   3.936   5.246  0.00  0.00    +0.000 HD
ATOM     13  H   UNL     1      47.789   2.474   4.458  0.00  0.00    +0.000 HD
ENDBRANCH   5   9
BRANCH   1  14
ATOM     14  C   UNL     1      44.934   6.512  10.786  0.00  0.00    +0.000 C 
BRANCH  14  15
ATOM     15  C   UNL     1      45.882   6.281  11.976  0.00  0.00    +0.000 A 
ATOM     16  C   UNL     1      45.570   5.271  12.908  0.00  0.00    +0.000 A 
ATOM     17  C   UNL     1      46.362   5.062  14.042  0.00  0.00    +0.000 A 
ATOM     18  C   UNL     1      47.489   5.850  14.253  0.00  0.00    +0.000 A 
ATOM     19 CL   UNL     1      48.459   5.608  15.653  0.00  0.00    +0.000 Cl
ATOM     20  C   UNL     1      47.833   6.837  13.335  0.00  0.00    +0.000 A 
ATOM     21  C   UNL     1      47.033   7.052  12.207  0.00  0.00    +0.000 A 
ENDBRANCH  14  15
BRANCH  14  22
ATOM     22  C   UNL     1      43.659   7.349  11.100  0.00  0.00    +0.000 C 
BRANCH  22  24
ATOM     23  C   UNL     1      42.748   9.489  10.695  0.00  0.00    +0.000 C 
ATOM     24  O   UNL     1      43.906   8.759  11.085  0.00  0.00    +0.000 OA
ENDBRANCH  22  24
ENDBRANCH  14  22
ENDBRANCH   1  14
TORSDOF 5
ENDMDL
MODEL 5
REMARK VINA RESULT:    -5.913      4.178      6.628
REMARK INTER + INTRA:          -8.003
REMARK INTER:                  -7.426
REMARK INTRA:                  -0.578
REMARK UNBOUND:                -0.362
REMARK  Name = 
REMARK  6 active torsions:
REMARK  status: ('A' for Active; 'I' for Inactive)
REMARK    1  A    between atoms: C_1  and  O_2
REMARK    2  A    between atoms: O_2  and  C_3
REMARK    3  A    between atoms: C_3  and  C_4
REMARK    4  A    between atoms: C_4  and  N_5
REMARK    5  A    between atoms: C_4  and  C_15
REMARK    6  A    between atoms: C_9  and  C_10
REMARK                            x       y       z     vdW  Elec       q    Type
REMARK                         _______ _______ _______ _____ _____    ______ ____
ROOT
ATOM      1  N   UNL     1      44.952   8.021  12.530  0.00  0.00    +0.000 N 
ATOM      2  C   UNL     1      44.815   6.681  12.178  0.00  0.00    +0.000 A 
ATOM      3  C   UNL     1      43.966   5.857  12.942  0.00  0.00    +0.000 A 
ATOM      4  N   UNL     1      43.635   4.576  12.634  0.00  0.00    +0.000 NA
ATOM      5  C   UNL     1      44.187   4.125  11.477  0.00  0.00    +0.000 A 
ATOM      6  C   UNL     1      45.038   4.908  10.712  0.00  0.00    +0.000 A 
ATOM      7  N   UNL     1      45.366   6.190  11.049  0.00  0.00    +0.000 NA
ATOM      8  H   UNL     1      44.887   8.165  13.532  0.00  0.00    +0.000 HD
ENDROOT
BRANCH   5   9
ATOM      9  C   UNL     1      43.798   2.761  11.020  0.00  0.00    +0.000 C 
ATOM     10  N   UNL     1      44.501   2.265   9.952  0.00  0.00    +0.000 N 
ATOM     11  O   UNL     1      42.922   2.108  11.574  0.00  0.00    +0.000 OA
ATOM     12  H   UNL     1      45.251   2.817   9.546  0.00  0.00    +0.000 HD
ATOM     13  H   UNL     1      44.332   1.323   9.636  0.00  0.00    +0.000 HD
ENDBRANCH   5   9
BRANCH   1  14
ATOM     14  C   UNL     1      46.048   8.822  11.949  0.00  0.00    +0.000 C 
BRANCH  14  15
ATOM     15  C   UNL     1      47.309   8.529  12.781  0.00  0.00    +0.000 A 
ATOM     16  C   UNL     1      48.394   7.875  12.164  0.00  0.00    +0.000 A 
ATOM     17  C   UNL     1      49.538   7.526  12.891  0.00  0.00    +0.000 A 
ATOM     18  C   UNL     1      49.620   7.841  14.243  0.00  0.00    +0.000 A 
ATOM     19 CL   UNL     1      51.018   7.401  15.145  0.00  0.00    +0.000 Cl
ATOM     20  C   UNL     1      48.574   8.508  14.870  0.00  0.00    +0.000 A 
ATOM     21  C   UNL     1      47.426   8.846  14.145  0.00  0.00    +0.000 A 
ENDBRANCH  14  15
BRANCH  14  22
ATOM     22  C   UNL     1      45.570  10.304  11.961  0.00  0.00    +0.000 C 
BRANCH  22  24
ATOM     23  C   UNL     1      43.494  11.156  11.228  0.00  0.00    +0.000 C 
ATOM     24  O   UNL     1      44.172  10.430  12.247  0.00  0.00    +0.000 OA
ENDBRANCH  22  24
ENDBRANCH  14  22
ENDBRANCH   1  14
TORSDOF 5
ENDMDL
MODEL 6
REMARK VINA RESULT:    -5.770      4.144      8.452
REMARK INTER + INTRA:          -7.819
REMARK INTER:                  -7.265
REMARK INTRA:                  -0.554
REMARK UNBOUND:                -0.362
REMARK  Name = 
REMARK  6 active torsions:
REMARK  status: ('A' for Active; 'I' for Inactive)
REMARK    1  A    between atoms: C_1  and  O_2
REMARK    2  A    between atoms: O_2  and  C_3
REMARK    3  A    between atoms: C_3  and  C_4
REMARK    4  A    between atoms: C_4  and  N_5
REMARK    5  A    between atoms: C_4  and  C_15
REMARK    6  A    between atoms: C_9  and  C_10
REMARK                            x       y       z     vdW  Elec       q    Type
REMARK                         _______ _______ _______ _____ _____    ______ ____
ROOT
ATOM      1  N   UNL     1      47.721   4.971  15.357  0.00  0.00    +0.000 N 
ATOM      2  C   UNL     1      46.858   5.057  14.266  0.00  0.00    +0.000 A 
ATOM      3  C   UNL     1      47.220   5.867  13.173  0.00  0.00    +0.000 A 
ATOM      4  N   UNL     1      46.546   5.936  11.995  0.00  0.00    +0.000 NA
ATOM      5  C   UNL     1      45.462   5.121  11.930  0.00  0.00    +0.000 A 
ATOM      6  C   UNL     1      45.073   4.323  12.995  0.00  0.00    +0.000 A 
ATOM      7  N   UNL     1      45.760   4.280  14.175  0.00  0.00    +0.000 NA
ATOM      8  H   UNL     1      48.220   5.839  15.523  0.00  0.00    +0.000 HD
ENDROOT
BRANCH   5   9
ATOM      9  C   UNL     1      44.722   5.067  10.636  0.00  0.00    +0.000 C 
ATOM     10  N   UNL     1      45.484   5.209   9.505  0.00  0.00    +0.000 N 
ATOM     11  O   UNL     1      43.513   4.884  10.579  0.00  0.00    +0.000 OA
ATOM     12  H   UNL     1      46.492   5.315   9.589  0.00  0.00    +0.000 HD
ATOM     13  H   UNL     1      45.056   5.117   8.597  0.00  0.00    +0.000 HD
ENDBRANCH   5   9
BRANCH   1  14
ATOM     14  C   UNL     1      47.240   4.386  16.625  0.00  0.00    +0.000 C 
BRANCH  14  15
ATOM     15  C   UNL     1      47.656   5.349  17.751  0.00  0.00    +0.000 A 
ATOM     16  C   UNL     1      48.781   6.175  17.558  0.00  0.00    +0.000 A 
ATOM     17  C   UNL     1      49.241   7.022  18.573  0.00  0.00    +0.000 A 
ATOM     18  C   UNL     1      48.571   7.066  19.791  0.00  0.00    +0.000 A 
ATOM     19 CL   UNL     1      49.140   8.094  21.048  0.00  0.00    +0.000 Cl
ATOM     20  C   UNL     1      47.443   6.280  19.998  0.00  0.00    +0.000 A 
ATOM     21  C   UNL     1      46.992   5.425  18.987  0.00  0.00    +0.000 A 
ENDBRANCH  14  15
BRANCH  14  22
ATOM     22  C   UNL     1      47.848   2.954  16.711  0.00  0.00    +0.000 C 
BRANCH  22  24
ATOM     23  C   UNL     1      50.052   2.481  17.412  0.00  0.00    +0.000 C 
ATOM     24  O   UNL     1      49.229   2.918  16.336  0.00  0.00    +0.000 OA
ENDBRANCH  22  24
ENDBRANCH  14  22
ENDBRANCH   1  14
TORSDOF 5
ENDMDL
MODEL 7
REMARK VINA RESULT:    -5.695      4.162      6.538
REMARK INTER + INTRA:          -7.723
REMARK INTER:                  -7.164
REMARK INTRA:                  -0.559
REMARK UNBOUND:                -0.362
REMARK  Name = 
REMARK  6 active torsions:
REMARK  status: ('A' for Active; 'I' for Inactive)
REMARK    1  A    between atoms: C_1  and  O_2
REMARK    2  A    between atoms: O_2  and  C_3
REMARK    3  A    between atoms: C_3  and  C_4
REMARK    4  A    between atoms: C_4  and  N_5
REMARK    5  A    between atoms: C_4  and  C_15
REMARK    6  A    between atoms: C_9  and  C_10
REMARK                            x       y       z     vdW  Elec       q    Type
REMARK                         _______ _______ _______ _____ _____    ______ ____
ROOT
ATOM      1  N   UNL     1      45.344   7.940  12.695  0.00  0.00    +0.000 N 
ATOM      2  C   UNL     1      45.120   6.639  12.253  0.00  0.00    +0.000 A 
ATOM      3  C   UNL     1      44.608   5.689  13.159  0.00  0.00    +0.000 A 
ATOM      4  N   UNL     1      44.216   4.430  12.832  0.00  0.00    +0.000 NA
ATOM      5  C   UNL     1      44.335   4.139  11.510  0.00  0.00    +0.000 A 
ATOM      6  C   UNL     1      44.848   5.048  10.598  0.00  0.00    +0.000 A 
ATOM      7  N   UNL     1      45.248   6.305  10.953  0.00  0.00    +0.000 NA
ATOM      8  H   UNL     1      45.633   7.973  13.668  0.00  0.00    +0.000 HD
ENDROOT
BRANCH   5   9
ATOM      9  C   UNL     1      43.837   2.810  11.054  0.00  0.00    +0.000 C 
ATOM     10  N   UNL     1      44.514   2.245  10.005  0.00  0.00    +0.000 N 
ATOM     11  O   UNL     1      42.897   2.241  11.596  0.00  0.00    +0.000 OA
ATOM     12  H   UNL     1      45.318   2.726   9.609  0.00  0.00    +0.000 HD
ATOM     13  H   UNL     1      44.270   1.319   9.691  0.00  0.00    +0.000 HD
ENDBRANCH   5   9
BRANCH   1  14
ATOM     14  C   UNL     1      46.151   8.864  11.872  0.00  0.00    +0.000 C 
BRANCH  14  15
ATOM     15  C   UNL     1      47.618   8.683  12.302  0.00  0.00    +0.000 A 
ATOM     16  C   UNL     1      48.112   9.452  13.375  0.00  0.00    +0.000 A 
ATOM     17  C   UNL     1      49.454   9.375  13.763  0.00  0.00    +0.000 A 
ATOM     18  C   UNL     1      50.319   8.515  13.095  0.00  0.00    +0.000 A 
ATOM     19 CL   UNL     1      51.973   8.426  13.558  0.00  0.00    +0.000 Cl
ATOM     20  C   UNL     1      49.851   7.727  12.048  0.00  0.00    +0.000 A 
ATOM     21  C   UNL     1      48.511   7.814  11.653  0.00  0.00    +0.000 A 
ENDBRANCH  14  15
BRANCH  14  22
ATOM     22  C   UNL     1      45.560  10.287  12.093  0.00  0.00    +0.000 C 
BRANCH  22  24
ATOM     23  C   UNL     1      43.609  10.431  10.773  0.00  0.00    +0.000 C 
ATOM     24  O   UNL     1      44.128  10.296  12.091  0.00  0.00    +0.000 OA
ENDBRANCH  22  24
ENDBRANCH  14  22
ENDBRANCH   1  14
TORSDOF 5
ENDMDL
MODEL 8
REMARK VINA RESULT:    -5.428      4.335      8.251
REMARK INTER + INTRA:          -7.378
REMARK INTER:                  -6.846
REMARK INTRA:                  -0.532
REMARK UNBOUND:                -0.362
REMARK  Name = 
REMARK  6 active torsions:
REMARK  status: ('A' for Active; 'I' for Inactive)
REMARK    1  A    between atoms: C_1  and  O_2
REMARK    2  A    between atoms: O_2  and  C_3
REMARK    3  A    between atoms: C_3  and  C_4
REMARK    4  A    between atoms: C_4  and  N_5
REMARK    5  A    between atoms: C_4  and  C_15
REMARK    6  A    between atoms: C_9  and  C_10
REMARK                            x       y       z     vdW  Elec       q    Type
REMARK                         _______ _______ _______ _____ _____    ______ ____
ROOT
ATOM      1  N   UNL     1      48.432   4.386  17.006  0.00  0.00    +0.000 N 
ATOM      2  C   UNL     1      47.920   4.798  15.778  0.00  0.00    +0.000 A 
ATOM      3  C   UNL     1      46.834   4.095  15.221  0.00  0.00    +0.000 A 
ATOM      4  N   UNL     1      46.153   4.466  14.105  0.00  0.00    +0.000 NA
ATOM      5  C   UNL     1      46.594   5.623  13.548  0.00  0.00    +0.000 A 
ATOM      6  C   UNL     1      47.669   6.329  14.064  0.00  0.00    +0.000 A 
ATOM      7  N   UNL     1      48.348   5.929  15.181  0.00  0.00    +0.000 NA
ATOM      8  H   UNL     1      48.372   3.381  17.131  0.00  0.00    +0.000 HD
ENDROOT
BRANCH   5   9
ATOM      9  C   UNL     1      45.838   6.149  12.375  0.00  0.00    +0.000 C 
ATOM     10  N   UNL     1      44.910   7.120  12.648  0.00  0.00    +0.000 N 
ATOM     11  O   UNL     1      46.046   5.759  11.232  0.00  0.00    +0.000 OA
ATOM     12  H   UNL     1      44.796   7.451  13.602  0.00  0.00    +0.000 HD
ATOM     13  H   UNL     1      44.412   7.564  11.892  0.00  0.00    +0.000 HD
ENDBRANCH   5   9
BRANCH   1  14
ATOM     14  C   UNL     1      49.740   4.899  17.463  0.00  0.00    +0.000 C 
BRANCH  14  15
ATOM     15  C   UNL     1      50.676   3.686  17.600  0.00  0.00    +0.000 A 
ATOM     16  C   UNL     1      52.007   3.897  18.012  0.00  0.00    +0.000 A 
ATOM     17  C   UNL     1      52.918   2.837  18.091  0.00  0.00    +0.000 A 
ATOM     18  C   UNL     1      52.505   1.547  17.774  0.00  0.00    +0.000 A 
ATOM     19 CL   UNL     1      53.624   0.243  17.854  0.00  0.00    +0.000 Cl
ATOM     20  C   UNL     1      51.191   1.308  17.389  0.00  0.00    +0.000 A 
ATOM     21  C   UNL     1      50.285   2.370  17.299  0.00  0.00    +0.000 A 
ENDBRANCH  14  15
BRANCH  14  22
ATOM     22  C   UNL     1      49.472   5.690  18.777  0.00  0.00    +0.000 C 
BRANCH  22  24
ATOM     23  C   UNL     1      47.506   6.245  19.960  0.00  0.00    +0.000 C 
ATOM     24  O   UNL     1      48.343   5.189  19.501  0.00  0.00    +0.000 OA
ENDBRANCH  22  24
ENDBRANCH  14  22
ENDBRANCH   1  14
TORSDOF 5
ENDMDL
MODEL 9
REMARK VINA RESULT:    -5.384      3.523      6.684
REMARK INTER + INTRA:          -7.321
REMARK INTER:                  -6.722
REMARK INTRA:                  -0.599
REMARK UNBOUND:                -0.362
REMARK  Name = 
REMARK  6 active torsions:
REMARK  status: ('A' for Active; 'I' for Inactive)
REMARK    1  A    between atoms: C_1  and  O_2
REMARK    2  A    between atoms: O_2  and  C_3
REMARK    3  A    between atoms: C_3  and  C_4
REMARK    4  A    between atoms: C_4  and  N_5
REMARK    5  A    between atoms: C_4  and  C_15
REMARK    6  A    between atoms: C_9  and  C_10
REMARK                            x       y       z     vdW  Elec       q    Type
REMARK                         _______ _______ _______ _____ _____    ______ ____
ROOT
ATOM      1  N   UNL     1      47.821   6.576  14.386  0.00  0.00    +0.000 N 
ATOM      2  C   UNL     1      46.875   5.862  13.654  0.00  0.00    +0.000 A 
ATOM      3  C   UNL     1      46.843   4.458  13.767  0.00  0.00    +0.000 A 
ATOM      4  N   UNL     1      45.894   3.653  13.221  0.00  0.00    +0.000 NA
ATOM      5  C   UNL     1      44.923   4.321  12.546  0.00  0.00    +0.000 A 
ATOM      6  C   UNL     1      44.937   5.700  12.406  0.00  0.00    +0.000 A 
ATOM      7  N   UNL     1      45.909   6.489  12.953  0.00  0.00    +0.000 NA
ATOM      8  H   UNL     1      48.690   6.064  14.495  0.00  0.00    +0.000 HD
ENDROOT
BRANCH   5   9
ATOM      9  C   UNL     1      43.793   3.517  11.998  0.00  0.00    +0.000 C 
ATOM     10  N   UNL     1      43.704   2.225  12.449  0.00  0.00    +0.000 N 
ATOM     11  O   UNL     1      42.978   3.982  11.212  0.00  0.00    +0.000 OA
ATOM     12  H   UNL     1      44.373   1.886  13.136  0.00  0.00    +0.000 HD
ATOM     13  H   UNL     1      42.926   1.649  12.168  0.00  0.00    +0.000 HD
ENDBRANCH   5   9
BRANCH   1  14
ATOM     14  C   UNL     1      48.078   7.994  14.063  0.00  0.00    +0.000 C 
BRANCH  14  15
ATOM     15  C   UNL     1      49.324   8.030  13.160  0.00  0.00    +0.000 A 
ATOM     16  C   UNL     1      50.556   8.428  13.716  0.00  0.00    +0.000 A 
ATOM     17  C   UNL     1      51.705   8.541  12.926  0.00  0.00    +0.000 A 
ATOM     18  C   UNL     1      51.642   8.242  11.569  0.00  0.00    +0.000 A 
ATOM     19 CL   UNL     1      53.048   8.393  10.588  0.00  0.00    +0.000 Cl
ATOM     20  C   UNL     1      50.445   7.823  11.000  0.00  0.00    +0.000 A 
ATOM     21  C   UNL     1      49.294   7.721  11.789  0.00  0.00    +0.000 A 
ENDBRANCH  14  15
BRANCH  14  22
ATOM     22  C   UNL     1      48.216   8.741  15.422  0.00  0.00    +0.000 C 
BRANCH  22  24
ATOM     23  C   UNL     1      49.558   8.373  17.329  0.00  0.00    +0.000 C 
ATOM     24  O   UNL     1      48.515   7.858  16.509  0.00  0.00    +0.000 OA
ENDBRANCH  22  24
ENDBRANCH  14  22
ENDBRANCH   1  14
TORSDOF 5
ENDMDL
