MODEL 1
REMARK VINA RESULT:    -7.629      0.000      0.000
REMARK INTER + INTRA:         -10.005
REMARK INTER:                 -10.082
REMARK INTRA:                   0.077
REMARK UNBOUND:                 0.077
REMARK  Name = 
REMARK  6 active torsions:
REMARK  status: ('A' for Active; 'I' for Inactive)
REMARK    1  A    between atoms: N_1  and  C_2
REMARK    2  A    between atoms: C_2  and  C_3
REMARK    3  A    between atoms: C_3  and  C_4
REMARK    4  A    between atoms: N_7  and  C_8
REMARK    5  A    between atoms: C_8  and  N_9
REMARK    6  A    between atoms: C_14  and  C_15
REMARK                            x       y       z     vdW  Elec       q    Type
REMARK                         _______ _______ _______ _____ _____    ______ ____
ROOT
ATOM      1  N   UNL     1      44.118   4.360  10.408  0.00  0.00    +0.000 N 
ATOM      2  C   UNL     1      43.596   3.229  10.992  0.00  0.00    +0.000 A 
ATOM      3  C   UNL     1      44.146   2.133  10.365  0.00  0.00    +0.000 A 
ATOM      4  C   UNL     1      45.014   2.609   9.347  0.00  0.00    +0.000 A 
ATOM      5  C   UNL     1      45.819   2.008   8.360  0.00  0.00    +0.000 A 
ATOM      6  C   UNL     1      46.534   2.847   7.500  0.00  0.00    +0.000 A 
ATOM      7  C   UNL     1      46.442   4.224   7.690  0.00  0.00    +0.000 A 
ATOM      8  N   UNL     1      45.682   4.855   8.625  0.00  0.00    +0.000 NA
ATOM      9  C   UNL     1      44.992   4.001   9.407  0.00  0.00    +0.000 A 
ENDROOT
BRANCH   6  10
ATOM     10  C   UNL     1      47.373   2.358   6.378  0.00  0.00    +0.000 C 
ATOM     11  N   UNL     1      47.309   3.010   5.177  0.00  0.00    +0.000 N 
ATOM     12  O   UNL     1      48.130   1.406   6.517  0.00  0.00    +0.000 OA
ATOM     13  H   UNL     1      46.758   3.831   4.987  0.00  0.00    +0.000 HD
ATOM     14  H   UNL     1      47.930   2.682   4.448  0.00  0.00    +0.000 HD
ENDBRANCH   6  10
BRANCH   1  15
ATOM     15  C   UNL     1      43.735   5.734  10.717  0.00  0.00    +0.000 C 
BRANCH  15  19
ATOM     16  C   UNL     1      47.002   7.340  13.008  0.00  0.00    +0.000 C 
ATOM     17  C   UNL     1      46.518   5.915  13.307  0.00  0.00    +0.000 C 
ATOM     18  C   UNL     1      45.637   5.357  12.186  0.00  0.00    +0.000 C 
ATOM     19  N   UNL     1      44.479   6.222  11.901  0.00  0.00    +0.000 NA
ATOM     20  C   UNL     1      44.876   7.618  11.644  0.00  0.00    +0.000 C 
ATOM     21  C   UNL     1      45.757   8.199  12.753  0.00  0.00    +0.000 C 
BRANCH  16  22
ATOM     22  C   UNL     1      48.020   7.346  11.842  0.00  0.00    +0.000 C 
BRANCH  22  23
ATOM     23  C   UNL     1      49.433   7.746  12.268  0.00  0.00    +0.000 C 
BRANCH  23  24
ATOM     24  N   UNL     1      49.811   7.030  13.482  0.00  0.00    +0.000 NA
ATOM     25  H   UNL     1      49.943   6.043  13.265  0.00  0.00    +0.000 HD
ATOM     26  H   UNL     1      49.048   7.073  14.159  0.00  0.00    +0.000 HD
ENDBRANCH  23  24
ENDBRANCH  22  23
ENDBRANCH  16  22
ENDBRANCH  15  19
ENDBRANCH   1  15
TORSDOF 6
ENDMDL
MODEL 2
REMARK VINA RESULT:    -6.462      3.746      5.962
REMARK INTER + INTRA:          -8.462
REMARK INTER:                  -8.120
REMARK INTRA:                  -0.343
REMARK UNBOUND:                 0.077
REMARK  Name = 
REMARK  6 active torsions:
REMARK  status: ('A' for Active; 'I' for Inactive)
REMARK    1  A    between atoms: N_1  and  C_2
REMARK    2  A    between atoms: C_2  and  C_3
REMARK    3  A    between atoms: C_3  and  C_4
REMARK    4  A    between atoms: N_7  and  C_8
REMARK    5  A    between atoms: C_8  and  N_9
REMARK    6  A    between atoms: C_14  and  C_15
REMARK                            x       y       z     vdW  Elec       q    Type
REMARK                         _______ _______ _______ _____ _____    ______ ____
ROOT
ATOM      1  N   UNL     1      47.440   7.268  13.661  0.00  0.00    +0.000 N 
ATOM      2  C   UNL     1      46.996   8.570  13.620  0.00  0.00    +0.000 A 
ATOM      3  C   UNL     1      45.812   8.596  12.916  0.00  0.00    +0.000 A 
ATOM      4  C   UNL     1      45.535   7.269  12.492  0.00  0.00    +0.000 A 
ATOM      5  C   UNL     1      44.525   6.657  11.724  0.00  0.00    +0.000 A 
ATOM      6  C   UNL     1      44.618   5.281  11.500  0.00  0.00    +0.000 A 
ATOM      7  C   UNL     1      45.679   4.586  12.076  0.00  0.00    +0.000 A 
ATOM      8  N   UNL     1      46.678   5.126  12.824  0.00  0.00    +0.000 NA
ATOM      9  C   UNL     1      46.555   6.459  12.984  0.00  0.00    +0.000 A 
ENDROOT
BRANCH   6  10
ATOM     10  C   UNL     1      43.662   4.514  10.662  0.00  0.00    +0.000 C 
ATOM     11  N   UNL     1      43.752   4.618   9.301  0.00  0.00    +0.000 N 
ATOM     12  O   UNL     1      42.821   3.781  11.165  0.00  0.00    +0.000 OA
ATOM     13  H   UNL     1      44.443   5.152   8.800  0.00  0.00    +0.000 HD
ATOM     14  H   UNL     1      43.118   4.044   8.759  0.00  0.00    +0.000 HD
ENDBRANCH   6  10
BRANCH   1  15
ATOM     15  C   UNL     1      48.702   6.814  14.235  0.00  0.00    +0.000 C 
BRANCH  15  19
ATOM     16  C   UNL     1      49.339   4.882  18.025  0.00  0.00    +0.000 C 
ATOM     17  C   UNL     1      47.963   4.764  17.356  0.00  0.00    +0.000 C 
ATOM     18  C   UNL     1      48.003   5.161  15.877  0.00  0.00    +0.000 C 
ATOM     19  N   UNL     1      48.535   6.521  15.677  0.00  0.00    +0.000 NA
ATOM     20  C   UNL     1      49.841   6.710  16.333  0.00  0.00    +0.000 C 
ATOM     21  C   UNL     1      49.826   6.321  17.814  0.00  0.00    +0.000 C 
BRANCH  16  22
ATOM     22  C   UNL     1      50.311   3.804  17.487  0.00  0.00    +0.000 C 
BRANCH  22  23
ATOM     23  C   UNL     1      49.714   2.396  17.476  0.00  0.00    +0.000 C 
BRANCH  23  24
ATOM     24  N   UNL     1      49.764   1.842  16.127  0.00  0.00    +0.000 NA
ATOM     25  H   UNL     1      48.947   1.252  15.974  0.00  0.00    +0.000 HD
ATOM     26  H   UNL     1      50.576   1.231  16.035  0.00  0.00    +0.000 HD
ENDBRANCH  23  24
ENDBRANCH  22  23
ENDBRANCH  16  22
ENDBRANCH  15  19
ENDBRANCH   1  15
TORSDOF 6
ENDMDL
MODEL 3
REMARK VINA RESULT:    -6.213      2.878      7.112
REMARK INTER + INTRA:          -8.134
REMARK INTER:                  -7.932
REMARK INTRA:                  -0.202
REMARK UNBOUND:                 0.077
REMARK  Name = 
REMARK  6 active torsions:
REMARK  status: ('A' for Active; 'I' for Inactive)
REMARK    1  A    between atoms: N_1  and  C_2
REMARK    2  A    between atoms: C_2  and  C_3
REMARK    3  A    between atoms: C_3  and  C_4
REMARK    4  A    between atoms: N_7  and  C_8
REMARK    5  A    between atoms: C_8  and  N_9
REMARK    6  A    between atoms: C_14  and  C_15
REMARK                            x       y       z     vdW  Elec       q    Type
REMARK                         _______ _______ _______ _____ _____    ______ ____
ROOT
ATOM      1  N   UNL     1      45.383   5.820  11.993  0.00  0.00    +0.000 N 
ATOM      2  C   UNL     1      44.381   6.688  11.623  0.00  0.00    +0.000 A 
ATOM      3  C   UNL     1      44.724   7.947  12.065  0.00  0.00    +0.000 A 
ATOM      4  C   UNL     1      45.964   7.841  12.749  0.00  0.00    +0.000 A 
ATOM      5  C   UNL     1      46.800   8.737  13.444  0.00  0.00    +0.000 A 
ATOM      6  C   UNL     1      47.968   8.227  14.019  0.00  0.00    +0.000 A 
ATOM      7  C   UNL     1      48.259   6.876  13.843  0.00  0.00    +0.000 A 
ATOM      8  N   UNL     1      47.488   5.971  13.183  0.00  0.00    +0.000 NA
ATOM      9  C   UNL     1      46.362   6.508  12.674  0.00  0.00    +0.000 A 
ENDROOT
BRANCH   6  10
ATOM     10  C   UNL     1      48.911   9.038  14.829  0.00  0.00    +0.000 C 
ATOM     11  N   UNL     1      48.554  10.314  15.170  0.00  0.00    +0.000 N 
ATOM     12  O   UNL     1      49.979   8.580  15.212  0.00  0.00    +0.000 OA
ATOM     13  H   UNL     1      47.676  10.755  14.947  0.00  0.00    +0.000 HD
ATOM     14  H   UNL     1      49.197  10.822  15.765  0.00  0.00    +0.000 HD
ENDBRANCH   6  10
BRANCH   1  15
ATOM     15  C   UNL     1      45.375   4.374  11.795  0.00  0.00    +0.000 C 
BRANCH  15  19
ATOM     16  C   UNL     1      45.258   2.713   7.830  0.00  0.00    +0.000 C 
ATOM     17  C   UNL     1      45.201   4.238   7.995  0.00  0.00    +0.000 C 
ATOM     18  C   UNL     1      45.632   4.683   9.396  0.00  0.00    +0.000 C 
ATOM     19  N   UNL     1      44.836   4.040  10.457  0.00  0.00    +0.000 NA
ATOM     20  C   UNL     1      44.818   2.572  10.328  0.00  0.00    +0.000 C 
ATOM     21  C   UNL     1      44.389   2.102   8.936  0.00  0.00    +0.000 C 
BRANCH  16  22
ATOM     22  C   UNL     1      46.722   2.210   7.830  0.00  0.00    +0.000 C 
BRANCH  22  23
ATOM     23  C   UNL     1      47.284   1.969   6.428  0.00  0.00    +0.000 C 
BRANCH  23  24
ATOM     24  N   UNL     1      48.651   2.473   6.345  0.00  0.00    +0.000 NA
ATOM     25  H   UNL     1      48.779   2.958   5.457  0.00  0.00    +0.000 HD
ATOM     26  H   UNL     1      49.307   1.691   6.337  0.00  0.00    +0.000 HD
ENDBRANCH  23  24
ENDBRANCH  22  23
ENDBRANCH  16  22
ENDBRANCH  15  19
ENDBRANCH   1  15
TORSDOF 6
ENDMDL
MODEL 4
REMARK VINA RESULT:    -6.213      4.666      8.380
REMARK INTER + INTRA:          -8.134
REMARK INTER:                  -7.576
REMARK INTRA:                  -0.558
REMARK UNBOUND:                 0.077
REMARK  Name = 
REMARK  6 active torsions:
REMARK  status: ('A' for Active; 'I' for Inactive)
REMARK    1  A    between atoms: N_1  and  C_2
REMARK    2  A    between atoms: C_2  and  C_3
REMARK    3  A    between atoms: C_3  and  C_4
REMARK    4  A    between atoms: N_7  and  C_8
REMARK    5  A    between atoms: C_8  and  N_9
REMARK    6  A    between atoms: C_14  and  C_15
REMARK                            x       y       z     vdW  Elec       q    Type
REMARK                         _______ _______ _______ _____ _____    ______ ____
ROOT
ATOM      1  N   UNL     1      48.335   6.613  14.524  0.00  0.00    +0.000 N 
ATOM      2  C   UNL     1      48.667   7.934  14.720  0.00  0.00    +0.000 A 
ATOM      3  C   UNL     1      49.001   8.098  16.047  0.00  0.00    +0.000 A 
ATOM      4  C   UNL     1      48.846   6.840  16.688  0.00  0.00    +0.000 A 
ATOM      5  C   UNL     1      48.990   6.368  18.008  0.00  0.00    +0.000 A 
ATOM      6  C   UNL     1      48.714   5.020  18.253  0.00  0.00    +0.000 A 
ATOM      7  C   UNL     1      48.350   4.212  17.178  0.00  0.00    +0.000 A 
ATOM      8  N   UNL     1      48.198   4.615  15.888  0.00  0.00    +0.000 NA
ATOM      9  C   UNL     1      48.448   5.928  15.713  0.00  0.00    +0.000 A 
ENDROOT
BRANCH   6  10
ATOM     10  C   UNL     1      48.764   4.399  19.600  0.00  0.00    +0.000 C 
ATOM     11  N   UNL     1      48.359   3.100  19.740  0.00  0.00    +0.000 N 
ATOM     12  O   UNL     1      49.181   5.017  20.571  0.00  0.00    +0.000 OA
ATOM     13  H   UNL     1      48.054   2.499  18.991  0.00  0.00    +0.000 HD
ATOM     14  H   UNL     1      48.453   2.692  20.661  0.00  0.00    +0.000 HD
ENDBRANCH   6  10
BRANCH   1  15
ATOM     15  C   UNL     1      47.838   6.034  13.281  0.00  0.00    +0.000 C 
BRANCH  15  19
ATOM     16  C   UNL     1      43.873   5.847  11.624  0.00  0.00    +0.000 C 
ATOM     17  C   UNL     1      44.669   7.153  11.492  0.00  0.00    +0.000 C 
ATOM     18  C   UNL     1      46.161   6.950  11.775  0.00  0.00    +0.000 C 
ATOM     19  N   UNL     1      46.403   6.355  13.101  0.00  0.00    +0.000 NA
ATOM     20  C   UNL     1      45.632   5.116  13.306  0.00  0.00    +0.000 C 
ATOM     21  C   UNL     1      44.136   5.294  13.030  0.00  0.00    +0.000 C 
BRANCH  16  22
ATOM     22  C   UNL     1      44.228   4.863  10.484  0.00  0.00    +0.000 C 
BRANCH  22  23
ATOM     23  C   UNL     1      43.764   3.431  10.748  0.00  0.00    +0.000 C 
BRANCH  23  24
ATOM     24  N   UNL     1      44.846   2.494  10.466  0.00  0.00    +0.000 NA
ATOM     25  H   UNL     1      45.542   2.949   9.875  0.00  0.00    +0.000 HD
ATOM     26  H   UNL     1      44.488   1.705   9.927  0.00  0.00    +0.000 HD
ENDBRANCH  23  24
ENDBRANCH  22  23
ENDBRANCH  16  22
ENDBRANCH  15  19
ENDBRANCH   1  15
TORSDOF 6
ENDMDL
MODEL 5
REMARK VINA RESULT:    -6.196      4.439      6.275
REMARK INTER + INTRA:          -8.111
REMARK INTER:                  -7.724
REMARK INTRA:                  -0.388
REMARK UNBOUND:                 0.077
REMARK  Name = 
REMARK  6 active torsions:
REMARK  status: ('A' for Active; 'I' for Inactive)
REMARK    1  A    between atoms: N_1  and  C_2
REMARK    2  A    between atoms: C_2  and  C_3
REMARK    3  A    between atoms: C_3  and  C_4
REMARK    4  A    between atoms: N_7  and  C_8
REMARK    5  A    between atoms: C_8  and  N_9
REMARK    6  A    between atoms: C_14  and  C_15
REMARK                            x       y       z     vdW  Elec       q    Type
REMARK                         _______ _______ _______ _____ _____    ______ ____
ROOT
ATOM      1  N   UNL     1      47.517   5.689  14.340  0.00  0.00    +0.000 N 
ATOM      2  C   UNL     1      47.929   6.922  13.888  0.00  0.00    +0.000 A 
ATOM      3  C   UNL     1      47.287   7.176  12.696  0.00  0.00    +0.000 A 
ATOM      4  C   UNL     1      46.474   6.051  12.397  0.00  0.00    +0.000 A 
ATOM      5  C   UNL     1      45.626   5.687  11.332  0.00  0.00    +0.000 A 
ATOM      6  C   UNL     1      44.997   4.440  11.395  0.00  0.00    +0.000 A 
ATOM      7  C   UNL     1      45.213   3.645  12.518  0.00  0.00    +0.000 A 
ATOM      8  N   UNL     1      46.019   3.948  13.571  0.00  0.00    +0.000 NA
ATOM      9  C   UNL     1      46.622   5.146  13.446  0.00  0.00    +0.000 A 
ENDROOT
BRANCH   6  10
ATOM     10  C   UNL     1      44.127   3.900  10.321  0.00  0.00    +0.000 C 
ATOM     11  N   UNL     1      44.085   4.552   9.119  0.00  0.00    +0.000 N 
ATOM     12  O   UNL     1      43.474   2.878  10.485  0.00  0.00    +0.000 OA
ATOM     13  H   UNL     1      44.627   5.365   8.877  0.00  0.00    +0.000 HD
ATOM     14  H   UNL     1      43.521   4.129   8.393  0.00  0.00    +0.000 HD
ENDBRANCH   6  10
BRANCH   1  15
ATOM     15  C   UNL     1      48.021   5.003  15.525  0.00  0.00    +0.000 C 
BRANCH  15  19
ATOM     16  C   UNL     1      49.894   6.472  19.108  0.00  0.00    +0.000 C 
ATOM     17  C   UNL     1      48.402   6.755  18.883  0.00  0.00    +0.000 C 
ATOM     18  C   UNL     1      47.804   5.864  17.790  0.00  0.00    +0.000 C 
ATOM     19  N   UNL     1      48.527   5.984  16.512  0.00  0.00    +0.000 NA
ATOM     20  C   UNL     1      49.976   5.764  16.669  0.00  0.00    +0.000 C 
ATOM     21  C   UNL     1      50.598   6.644  17.756  0.00  0.00    +0.000 C 
BRANCH  16  22
ATOM     22  C   UNL     1      50.103   5.082  19.754  0.00  0.00    +0.000 C 
BRANCH  22  23
ATOM     23  C   UNL     1      49.137   4.791  20.902  0.00  0.00    +0.000 C 
BRANCH  23  24
ATOM     24  N   UNL     1      48.324   3.621  20.588  0.00  0.00    +0.000 NA
ATOM     25  H   UNL     1      48.930   2.808  20.476  0.00  0.00    +0.000 HD
ATOM     26  H   UNL     1      47.860   3.754  19.689  0.00  0.00    +0.000 HD
ENDBRANCH  23  24
ENDBRANCH  22  23
ENDBRANCH  16  22
ENDBRANCH  15  19
ENDBRANCH   1  15
TORSDOF 6
ENDMDL
MODEL 6
REMARK VINA RESULT:    -6.114      5.863      9.038
REMARK INTER + INTRA:          -8.003
REMARK INTER:                  -7.577
REMARK INTRA:                  -0.425
REMARK UNBOUND:                 0.077
REMARK  Name = 
REMARK  6 active torsions:
REMARK  status: ('A' for Active; 'I' for Inactive)
REMARK    1  A    between atoms: N_1  and  C_2
REMARK    2  A    between atoms: C_2  and  C_3
REMARK    3  A    between atoms: C_3  and  C_4
REMARK    4  A    between atoms: N_7  and  C_8
REMARK    5  A    between atoms: C_8  and  N_9
REMARK    6  A    between atoms: C_14  and  C_15
REMARK                            x       y       z     vdW  Elec       q    Type
REMARK                         _______ _______ _______ _____ _____    ______ ____
ROOT
ATOM      1  N   UNL     1      49.760   5.523  17.026  0.00  0.00    +0.000 N 
ATOM      2  C   UNL     1      50.545   6.609  17.341  0.00  0.00    +0.000 A 
ATOM      3  C   UNL     1      51.780   6.144  17.734  0.00  0.00    +0.000 A 
ATOM      4  C   UNL     1      51.742   4.725  17.682  0.00  0.00    +0.000 A 
ATOM      5  C   UNL     1      52.647   3.690  17.990  0.00  0.00    +0.000 A 
ATOM      6  C   UNL     1      52.214   2.372  17.821  0.00  0.00    +0.000 A 
ATOM      7  C   UNL     1      50.931   2.154  17.325  0.00  0.00    +0.000 A 
ATOM      8  N   UNL     1      50.020   3.114  17.012  0.00  0.00    +0.000 NA
ATOM      9  C   UNL     1      50.478   4.364  17.221  0.00  0.00    +0.000 A 
ENDROOT
BRANCH   6  10
ATOM     10  C   UNL     1      53.036   1.184  18.162  0.00  0.00    +0.000 C 
ATOM     11  N   UNL     1      52.431  -0.043  18.200  0.00  0.00    +0.000 N 
ATOM     12  O   UNL     1      54.236   1.281  18.382  0.00  0.00    +0.000 OA
ATOM     13  H   UNL     1      51.465  -0.226  17.981  0.00  0.00    +0.000 HD
ATOM     14  H   UNL     1      53.030  -0.839  18.386  0.00  0.00    +0.000 HD
ENDBRANCH   6  10
BRANCH   1  15
ATOM     15  C   UNL     1      48.352   5.569  16.647  0.00  0.00    +0.000 C 
BRANCH  15  19
ATOM     16  C   UNL     1      46.481   5.178  12.794  0.00  0.00    +0.000 C 
ATOM     17  C   UNL     1      46.778   3.909  13.604  0.00  0.00    +0.000 C 
ATOM     18  C   UNL     1      47.078   4.219  15.073  0.00  0.00    +0.000 C 
ATOM     19  N   UNL     1      48.188   5.176  15.228  0.00  0.00    +0.000 NA
ATOM     20  C   UNL     1      47.981   6.403  14.439  0.00  0.00    +0.000 C 
ATOM     21  C   UNL     1      47.680   6.118  12.965  0.00  0.00    +0.000 C 
BRANCH  16  22
ATOM     22  C   UNL     1      45.128   5.800  13.215  0.00  0.00    +0.000 C 
BRANCH  22  23
ATOM     23  C   UNL     1      43.929   4.888  12.954  0.00  0.00    +0.000 C 
BRANCH  23  24
ATOM     24  N   UNL     1      42.701   5.675  12.914  0.00  0.00    +0.000 NA
ATOM     25  H   UNL     1      42.179   5.445  12.069  0.00  0.00    +0.000 HD
ATOM     26  H   UNL     1      42.930   6.668  12.844  0.00  0.00    +0.000 HD
ENDBRANCH  23  24
ENDBRANCH  22  23
ENDBRANCH  16  22
ENDBRANCH  15  19
ENDBRANCH   1  15
TORSDOF 6
ENDMDL
MODEL 7
REMARK VINA RESULT:    -5.885      2.968      6.759
REMARK INTER + INTRA:          -7.700
REMARK INTER:                  -7.902
REMARK INTRA:                   0.201
REMARK UNBOUND:                 0.077
REMARK  Name = 
REMARK  6 active torsions:
REMARK  status: ('A' for Active; 'I' for Inactive)
REMARK    1  A    between atoms: N_1  and  C_2
REMARK    2  A    between atoms: C_2  and  C_3
REMARK    3  A    between atoms: C_3  and  C_4
REMARK    4  A    between atoms: N_7  and  C_8
REMARK    5  A    between atoms: C_8  and  N_9
REMARK    6  A    between atoms: C_14  and  C_15
REMARK                            x       y       z     vdW  Elec       q    Type
REMARK                         _______ _______ _______ _____ _____    ______ ____
ROOT
ATOM      1  N   UNL     1      45.483   5.302  12.329  0.00  0.00    +0.000 N 
ATOM      2  C   UNL     1      46.647   5.128  13.043  0.00  0.00    +0.000 A 
ATOM      3  C   UNL     1      47.157   6.374  13.335  0.00  0.00    +0.000 A 
ATOM      4  C   UNL     1      46.290   7.341  12.760  0.00  0.00    +0.000 A 
ATOM      5  C   UNL     1      46.280   8.747  12.674  0.00  0.00    +0.000 A 
ATOM      6  C   UNL     1      45.229   9.351  11.979  0.00  0.00    +0.000 A 
ATOM      7  C   UNL     1      44.233   8.537  11.444  0.00  0.00    +0.000 A 
ATOM      8  N   UNL     1      44.195   7.178  11.499  0.00  0.00    +0.000 NA
ATOM      9  C   UNL     1      45.246   6.646  12.154  0.00  0.00    +0.000 A 
ENDROOT
BRANCH   6  10
ATOM     10  C   UNL     1      45.120  10.814  11.756  0.00  0.00    +0.000 C 
ATOM     11  N   UNL     1      43.877  11.387  11.751  0.00  0.00    +0.000 N 
ATOM     12  O   UNL     1      46.114  11.511  11.605  0.00  0.00    +0.000 OA
ATOM     13  H   UNL     1      43.010  10.903  11.920  0.00  0.00    +0.000 HD
ATOM     14  H   UNL     1      43.842  12.394  11.646  0.00  0.00    +0.000 HD
ENDBRANCH   6  10
BRANCH   1  15
ATOM     15  C   UNL     1      44.672   4.237  11.747  0.00  0.00    +0.000 C 
BRANCH  15  19
ATOM     16  C   UNL     1      45.628   3.384   7.641  0.00  0.00    +0.000 C 
ATOM     17  C   UNL     1      46.013   4.751   8.222  0.00  0.00    +0.000 C 
ATOM     18  C   UNL     1      45.962   4.764   9.752  0.00  0.00    +0.000 C 
ATOM     19  N   UNL     1      44.643   4.360  10.272  0.00  0.00    +0.000 NA
ATOM     20  C   UNL     1      44.197   3.069   9.718  0.00  0.00    +0.000 C 
ATOM     21  C   UNL     1      44.238   3.032   8.187  0.00  0.00    +0.000 C 
BRANCH  16  22
ATOM     22  C   UNL     1      46.712   2.324   7.952  0.00  0.00    +0.000 C 
BRANCH  22  23
ATOM     23  C   UNL     1      47.378   1.748   6.702  0.00  0.00    +0.000 C 
BRANCH  23  24
ATOM     24  N   UNL     1      48.594   2.493   6.394  0.00  0.00    +0.000 NA
ATOM     25  H   UNL     1      48.859   3.056   7.202  0.00  0.00    +0.000 HD
ATOM     26  H   UNL     1      48.413   3.152   5.636  0.00  0.00    +0.000 HD
ENDBRANCH  23  24
ENDBRANCH  22  23
ENDBRANCH  16  22
ENDBRANCH  15  19
ENDBRANCH   1  15
TORSDOF 6
ENDMDL
MODEL 8
REMARK VINA RESULT:    -5.601      5.516      8.238
REMARK INTER + INTRA:          -7.325
REMARK INTER:                  -6.903
REMARK INTRA:                  -0.423
REMARK UNBOUND:                 0.077
REMARK  Name = 
REMARK  6 active torsions:
REMARK  status: ('A' for Active; 'I' for Inactive)
REMARK    1  A    between atoms: N_1  and  C_2
REMARK    2  A    between atoms: C_2  and  C_3
REMARK    3  A    between atoms: C_3  and  C_4
REMARK    4  A    between atoms: N_7  and  C_8
REMARK    5  A    between atoms: C_8  and  N_9
REMARK    6  A    between atoms: C_14  and  C_15
REMARK                            x       y       z     vdW  Elec       q    Type
REMARK                         _______ _______ _______ _____ _____    ______ ____
ROOT
ATOM      1  N   UNL     1      48.522   4.880  16.599  0.00  0.00    +0.000 N 
ATOM      2  C   UNL     1      47.420   4.059  16.669  0.00  0.00    +0.000 A 
ATOM      3  C   UNL     1      47.836   2.822  17.109  0.00  0.00    +0.000 A 
ATOM      4  C   UNL     1      49.243   2.881  17.291  0.00  0.00    +0.000 A 
ATOM      5  C   UNL     1      50.239   1.962  17.676  0.00  0.00    +0.000 A 
ATOM      6  C   UNL     1      51.563   2.411  17.715  0.00  0.00    +0.000 A 
ATOM      7  C   UNL     1      51.819   3.746  17.409  0.00  0.00    +0.000 A 
ATOM      8  N   UNL     1      50.897   4.672  17.033  0.00  0.00    +0.000 NA
ATOM      9  C   UNL     1      49.643   4.179  16.983  0.00  0.00    +0.000 A 
ENDROOT
BRANCH   6  10
ATOM     10  C   UNL     1      52.720   1.541  18.043  0.00  0.00    +0.000 C 
ATOM     11  N   UNL     1      52.932   0.419  17.290  0.00  0.00    +0.000 N 
ATOM     12  O   UNL     1      53.491   1.824  18.950  0.00  0.00    +0.000 OA
ATOM     13  H   UNL     1      52.384   0.137  16.494  0.00  0.00    +0.000 HD
ATOM     14  H   UNL     1      53.758  -0.124  17.508  0.00  0.00    +0.000 HD
ENDBRANCH   6  10
BRANCH   1  15
ATOM     15  C   UNL     1      48.536   6.250  16.097  0.00  0.00    +0.000 C 
BRANCH  15  19
ATOM     16  C   UNL     1      48.218   7.687  12.055  0.00  0.00    +0.000 C 
ATOM     17  C   UNL     1      47.447   6.421  12.454  0.00  0.00    +0.000 C 
ATOM     18  C   UNL     1      47.349   6.259  13.973  0.00  0.00    +0.000 C 
ATOM     19  N   UNL     1      48.672   6.256  14.622  0.00  0.00    +0.000 NA
ATOM     20  C   UNL     1      49.480   7.430  14.246  0.00  0.00    +0.000 C 
ATOM     21  C   UNL     1      49.593   7.613  12.730  0.00  0.00    +0.000 C 
BRANCH  16  22
ATOM     22  C   UNL     1      47.412   8.960  12.407  0.00  0.00    +0.000 C 
BRANCH  22  23
ATOM     23  C   UNL     1      45.957   8.910  11.940  0.00  0.00    +0.000 C 
BRANCH  23  24
ATOM     24  N   UNL     1      45.066   9.256  13.042  0.00  0.00    +0.000 NA
ATOM     25  H   UNL     1      44.185   8.753  12.935  0.00  0.00    +0.000 HD
ATOM     26  H   UNL     1      44.833  10.249  12.999  0.00  0.00    +0.000 HD
ENDBRANCH  23  24
ENDBRANCH  22  23
ENDBRANCH  16  22
ENDBRANCH  15  19
ENDBRANCH   1  15
TORSDOF 6
ENDMDL
MODEL 9
REMARK VINA RESULT:    -5.534      3.016      4.843
REMARK INTER + INTRA:          -7.236
REMARK INTER:                  -7.169
REMARK INTRA:                  -0.068
REMARK UNBOUND:                 0.077
REMARK  Name = 
REMARK  6 active torsions:
REMARK  status: ('A' for Active; 'I' for Inactive)
REMARK    1  A    between atoms: N_1  and  C_2
REMARK    2  A    between atoms: C_2  and  C_3
REMARK    3  A    between atoms: C_3  and  C_4
REMARK    4  A    between atoms: N_7  and  C_8
REMARK    5  A    between atoms: C_8  and  N_9
REMARK    6  A    between atoms: C_14  and  C_15
REMARK                            x       y       z     vdW  Elec       q    Type
REMARK                         _______ _______ _______ _____ _____    ______ ____
ROOT
ATOM      1  N   UNL     1      47.072   6.691  13.429  0.00  0.00    +0.000 N 
ATOM      2  C   UNL     1      47.625   6.017  14.494  0.00  0.00    +0.000 A 
ATOM      3  C   UNL     1      47.228   4.700  14.418  0.00  0.00    +0.000 A 
ATOM      4  C   UNL     1      46.385   4.569  13.283  0.00  0.00    +0.000 A 
ATOM      5  C   UNL     1      45.650   3.518  12.702  0.00  0.00    +0.000 A 
ATOM      6  C   UNL     1      44.897   3.801  11.558  0.00  0.00    +0.000 A 
ATOM      7  C   UNL     1      44.943   5.092  11.037  0.00  0.00    +0.000 A 
ATOM      8  N   UNL     1      45.635   6.141  11.558  0.00  0.00    +0.000 NA
ATOM      9  C   UNL     1      46.319   5.821  12.674  0.00  0.00    +0.000 A 
ENDROOT
BRANCH   6  10
ATOM     10  C   UNL     1      44.029   2.809  10.875  0.00  0.00    +0.000 C 
ATOM     11  N   UNL     1      44.491   2.205   9.739  0.00  0.00    +0.000 N 
ATOM     12  O   UNL     1      42.930   2.510  11.323  0.00  0.00    +0.000 OA
ATOM     13  H   UNL     1      45.400   2.348   9.329  0.00  0.00    +0.000 HD
ATOM     14  H   UNL     1      43.895   1.498   9.326  0.00  0.00    +0.000 HD
ENDBRANCH   6  10
BRANCH   1  15
ATOM     15  C   UNL     1      47.172   8.126  13.182  0.00  0.00    +0.000 C 
BRANCH  15  19
ATOM     16  C   UNL     1      50.930   9.190  11.380  0.00  0.00    +0.000 C 
ATOM     17  C   UNL     1      49.712  10.092  11.139  0.00  0.00    +0.000 C 
ATOM     18  C   UNL     1      48.579   9.809  12.130  0.00  0.00    +0.000 C 
ATOM     19  N   UNL     1      48.159   8.396  12.111  0.00  0.00    +0.000 NA
ATOM     20  C   UNL     1      49.294   7.475  12.297  0.00  0.00    +0.000 C 
ATOM     21  C   UNL     1      50.440   7.738  11.317  0.00  0.00    +0.000 C 
BRANCH  16  22
ATOM     22  C   UNL     1      51.638   9.558  12.706  0.00  0.00    +0.000 C 
BRANCH  22  23
ATOM     23  C   UNL     1      52.835   8.662  13.028  0.00  0.00    +0.000 C 
BRANCH  23  24
ATOM     24  N   UNL     1      52.563   7.875  14.226  0.00  0.00    +0.000 NA
ATOM     25  H   UNL     1      52.280   8.498  14.982  0.00  0.00    +0.000 HD
ATOM     26  H   UNL     1      53.420   7.418  14.540  0.00  0.00    +0.000 HD
ENDBRANCH  23  24
ENDBRANCH  22  23
ENDBRANCH  16  22
ENDBRANCH  15  19
ENDBRANCH   1  15
TORSDOF 6
ENDMDL
