MODEL 1
REMARK VINA RESULT:    -8.055      0.000      0.000
REMARK INTER + INTRA:         -10.675
REMARK INTER:                 -10.410
REMARK INTRA:                  -0.265
REMARK UNBOUND:                -0.265
REMARK  Name = 
REMARK  5 active torsions:
REMARK  status: ('A' for Active; 'I' for Inactive)
REMARK    1  A    between atoms: C_2  and  C_4
REMARK    2  A    between atoms: C_7  and  O_8
REMARK    3  A    between atoms: O_8  and  C_9
REMARK    4  A    between atoms: C_11  and  C_12
REMARK    5  A    between atoms: C_11  and  C_18
REMARK                            x       y       z     vdW  Elec       q    Type
REMARK                         _______ _______ _______ _____ _____    ______ ____
ROOT
ATOM      1  C   UNL     1      45.261   3.796  11.933  0.00  0.00    +0.000 C 
ATOM      2  C   UNL     1      44.409   4.293  13.075  0.00  0.00    +0.000 C 
ATOM      3  C   UNL     1      45.594   5.129  12.614  0.00  0.00    +0.000 C 
ENDROOT
BRANCH   3   4
ATOM      4  C   UNL     1      46.722   5.263  13.646  0.00  0.00    +0.000 A 
ATOM      5  C   UNL     1      47.653   6.311  13.605  0.00  0.00    +0.000 A 
ATOM      6  C   UNL     1      48.469   6.592  14.708  0.00  0.00    +0.000 A 
ATOM      7  C   UNL     1      48.382   5.817  15.863  0.00  0.00    +0.000 A 
ATOM      8  C   UNL     1      47.532   4.719  15.894  0.00  0.00    +0.000 A 
ATOM      9  C   UNL     1      46.727   4.435  14.790  0.00  0.00    +0.000 A 
ENDBRANCH   3   4
BRANCH   3  10
ATOM     10  C   UNL     1      45.356   6.439  11.884  0.00  0.00    +0.000 C 
ATOM     11  F   UNL     1      44.184   6.491  11.217  0.00  0.00    +0.000 F 
ATOM     12  F   UNL     1      45.370   7.474  12.764  0.00  0.00    +0.000 F 
ATOM     13  F   UNL     1      46.336   6.674  10.973  0.00  0.00    +0.000 F 
ENDBRANCH   3  10
BRANCH   1  14
ATOM     14  O   UNL     1      44.458   3.744  10.731  0.00  0.00    +0.000 OA
BRANCH  14  18
ATOM     15  C   UNL     1      46.561   2.724   7.292  0.00  0.00    +0.000 A 
ATOM     16  C   UNL     1      46.285   4.058   7.606  0.00  0.00    +0.000 A 
ATOM     17  C   UNL     1      45.531   4.357   8.743  0.00  0.00    +0.000 A 
ATOM     18  C   UNL     1      45.043   3.337   9.564  0.00  0.00    +0.000 A 
ATOM     19  C   UNL     1      45.271   2.002   9.230  0.00  0.00    +0.000 A 
ATOM     20  C   UNL     1      46.023   1.699   8.085  0.00  0.00    +0.000 A 
BRANCH  15  22
ATOM     21  N   UNL     1      47.363   3.128   5.029  0.00  0.00    +0.000 N 
ATOM     22  C   UNL     1      47.444   2.353   6.156  0.00  0.00    +0.000 C 
ATOM     23  O   UNL     1      48.250   1.441   6.238  0.00  0.00    +0.000 OA
ATOM     24  H   UNL     1      48.074   2.963   4.325  0.00  0.00    +0.000 HD
ATOM     25  H   UNL     1      46.917   4.034   5.030  0.00  0.00    +0.000 HD
ENDBRANCH  15  22
ENDBRANCH  14  18
ENDBRANCH   1  14
TORSDOF 5
ENDMDL
MODEL 2
REMARK VINA RESULT:    -7.490      3.466      6.989
REMARK INTER + INTRA:          -9.944
REMARK INTER:                  -9.793
REMARK INTRA:                  -0.150
REMARK UNBOUND:                -0.265
REMARK  Name = 
REMARK  5 active torsions:
REMARK  status: ('A' for Active; 'I' for Inactive)
REMARK    1  A    between atoms: C_2  and  C_4
REMARK    2  A    between atoms: C_7  and  O_8
REMARK    3  A    between atoms: O_8  and  C_9
REMARK    4  A    between atoms: C_11  and  C_12
REMARK    5  A    between atoms: C_11  and  C_18
REMARK                            x       y       z     vdW  Elec       q    Type
REMARK                         _______ _______ _______ _____ _____    ______ ____
ROOT
ATOM      1  C   UNL     1      45.427   4.997   9.652  0.00  0.00    +0.000 C 
ATOM      2  C   UNL     1      44.196   4.798   8.804  0.00  0.00    +0.000 C 
ATOM      3  C   UNL     1      45.024   3.586   9.208  0.00  0.00    +0.000 C 
ENDROOT
BRANCH   3   4
ATOM      4  C   UNL     1      45.713   2.866   8.041  0.00  0.00    +0.000 A 
ATOM      5  C   UNL     1      45.983   3.505   6.822  0.00  0.00    +0.000 A 
ATOM      6  C   UNL     1      46.872   2.945   5.897  0.00  0.00    +0.000 A 
ATOM      7  C   UNL     1      47.491   1.725   6.166  0.00  0.00    +0.000 A 
ATOM      8  C   UNL     1      47.171   1.030   7.326  0.00  0.00    +0.000 A 
ATOM      9  C   UNL     1      46.276   1.587   8.241  0.00  0.00    +0.000 A 
ENDBRANCH   3   4
BRANCH   3  10
ATOM     10  C   UNL     1      44.472   2.597  10.218  0.00  0.00    +0.000 C 
ATOM     11  F   UNL     1      44.153   1.396   9.692  0.00  0.00    +0.000 F 
ATOM     12  F   UNL     1      45.381   2.380  11.205  0.00  0.00    +0.000 F 
ATOM     13  F   UNL     1      43.348   3.078  10.808  0.00  0.00    +0.000 F 
ENDBRANCH   3  10
BRANCH   1  14
ATOM     14  O   UNL     1      45.034   5.522  10.941  0.00  0.00    +0.000 OA
BRANCH  14  18
ATOM     15  C   UNL     1      47.795   6.236  13.968  0.00  0.00    +0.000 A 
ATOM     16  C   UNL     1      47.832   6.951  12.768  0.00  0.00    +0.000 A 
ATOM     17  C   UNL     1      46.920   6.646  11.755  0.00  0.00    +0.000 A 
ATOM     18  C   UNL     1      45.978   5.629  11.926  0.00  0.00    +0.000 A 
ATOM     19  C   UNL     1      45.967   4.877  13.101  0.00  0.00    +0.000 A 
ATOM     20  C   UNL     1      46.886   5.177  14.117  0.00  0.00    +0.000 A 
BRANCH  15  22
ATOM     21  N   UNL     1      48.101   6.557  16.362  0.00  0.00    +0.000 N 
ATOM     22  C   UNL     1      48.670   6.586  15.117  0.00  0.00    +0.000 C 
ATOM     23  O   UNL     1      49.858   6.827  14.972  0.00  0.00    +0.000 OA
ATOM     24  H   UNL     1      48.740   6.643  17.145  0.00  0.00    +0.000 HD
ATOM     25  H   UNL     1      47.215   6.104  16.538  0.00  0.00    +0.000 HD
ENDBRANCH  15  22
ENDBRANCH  14  18
ENDBRANCH   1  14
TORSDOF 5
ENDMDL
MODEL 3
REMARK VINA RESULT:    -7.382      2.083      3.076
REMARK INTER + INTRA:          -9.804
REMARK INTER:                  -9.701
REMARK INTRA:                  -0.104
REMARK UNBOUND:                -0.265
REMARK  Name = 
REMARK  5 active torsions:
REMARK  status: ('A' for Active; 'I' for Inactive)
REMARK    1  A    between atoms: C_2  and  C_4
REMARK    2  A    between atoms: C_7  and  O_8
REMARK    3  A    between atoms: O_8  and  C_9
REMARK    4  A    between atoms: C_11  and  C_12
REMARK    5  A    between atoms: C_11  and  C_18
REMARK                            x       y       z     vdW  Elec       q    Type
REMARK                         _______ _______ _______ _____ _____    ______ ____
ROOT
ATOM      1  C   UNL     1      44.855   6.065  10.350  0.00  0.00    +0.000 C 
ATOM      2  C   UNL     1      46.334   5.842  10.542  0.00  0.00    +0.000 C 
ATOM      3  C   UNL     1      45.517   6.429  11.684  0.00  0.00    +0.000 C 
ENDROOT
BRANCH   3   4
ATOM      4  C   UNL     1      45.879   7.874  12.052  0.00  0.00    +0.000 A 
ATOM      5  C   UNL     1      47.208   8.304  12.177  0.00  0.00    +0.000 A 
ATOM      6  C   UNL     1      47.524   9.667  12.205  0.00  0.00    +0.000 A 
ATOM      7  C   UNL     1      46.514  10.625  12.130  0.00  0.00    +0.000 A 
ATOM      8  C   UNL     1      45.184  10.224  12.096  0.00  0.00    +0.000 A 
ATOM      9  C   UNL     1      44.872   8.864  12.078  0.00  0.00    +0.000 A 
ENDBRANCH   3   4
BRANCH   3  10
ATOM     10  C   UNL     1      45.243   5.596  12.923  0.00  0.00    +0.000 C 
ATOM     11  F   UNL     1      43.976   5.688  13.378  0.00  0.00    +0.000 F 
ATOM     12  F   UNL     1      45.491   4.284  12.670  0.00  0.00    +0.000 F 
ATOM     13  F   UNL     1      46.054   5.967  13.948  0.00  0.00    +0.000 F 
ENDBRANCH   3  10
BRANCH   1  14
ATOM     14  O   UNL     1      44.205   4.787  10.154  0.00  0.00    +0.000 OA
BRANCH  14  18
ATOM     15  C   UNL     1      46.335   2.194   7.698  0.00  0.00    +0.000 A 
ATOM     16  C   UNL     1      46.253   3.560   7.415  0.00  0.00    +0.000 A 
ATOM     17  C   UNL     1      45.485   4.390   8.234  0.00  0.00    +0.000 A 
ATOM     18  C   UNL     1      44.792   3.868   9.329  0.00  0.00    +0.000 A 
ATOM     19  C   UNL     1      44.827   2.498   9.589  0.00  0.00    +0.000 A 
ATOM     20  C   UNL     1      45.593   1.661   8.763  0.00  0.00    +0.000 A 
BRANCH  15  22
ATOM     21  N   UNL     1      48.292   1.852   6.291  0.00  0.00    +0.000 N 
ATOM     22  C   UNL     1      47.218   1.284   6.924  0.00  0.00    +0.000 C 
ATOM     23  O   UNL     1      47.038   0.077   6.900  0.00  0.00    +0.000 OA
ATOM     24  H   UNL     1      48.969   1.207   5.900  0.00  0.00    +0.000 HD
ATOM     25  H   UNL     1      48.617   2.782   6.514  0.00  0.00    +0.000 HD
ENDBRANCH  15  22
ENDBRANCH  14  18
ENDBRANCH   1  14
TORSDOF 5
ENDMDL
MODEL 4
REMARK VINA RESULT:    -7.255      3.899      7.181
REMARK INTER + INTRA:          -9.640
REMARK INTER:                  -8.768
REMARK INTRA:                  -0.872
REMARK UNBOUND:                -0.265
REMARK  Name = 
REMARK  5 active torsions:
REMARK  status: ('A' for Active; 'I' for Inactive)
REMARK    1  A    between atoms: C_2  and  C_4
REMARK    2  A    between atoms: C_7  and  O_8
REMARK    3  A    between atoms: O_8  and  C_9
REMARK    4  A    between atoms: C_11  and  C_12
REMARK    5  A    between atoms: C_11  and  C_18
REMARK                            x       y       z     vdW  Elec       q    Type
REMARK                         _______ _______ _______ _____ _____    ______ ____
ROOT
ATOM      1  C   UNL     1      46.980   5.710  12.476  0.00  0.00    +0.000 C 
ATOM      2  C   UNL     1      46.999   6.677  11.319  0.00  0.00    +0.000 C 
ATOM      3  C   UNL     1      45.716   5.923  11.636  0.00  0.00    +0.000 C 
ENDROOT
BRANCH   3   4
ATOM      4  C   UNL     1      45.275   4.929  10.553  0.00  0.00    +0.000 A 
ATOM      5  C   UNL     1      45.636   5.080   9.206  0.00  0.00    +0.000 A 
ATOM      6  C   UNL     1      45.495   4.023   8.299  0.00  0.00    +0.000 A 
ATOM      7  C   UNL     1      44.970   2.802   8.718  0.00  0.00    +0.000 A 
ATOM      8  C   UNL     1      44.522   2.656  10.026  0.00  0.00    +0.000 A 
ATOM      9  C   UNL     1      44.656   3.715  10.925  0.00  0.00    +0.000 A 
ENDBRANCH   3   4
BRANCH   3  10
ATOM     10  C   UNL     1      44.527   6.664  12.219  0.00  0.00    +0.000 C 
ATOM     11  F   UNL     1      43.499   6.817  11.358  0.00  0.00    +0.000 F 
ATOM     12  F   UNL     1      44.052   6.005  13.308  0.00  0.00    +0.000 F 
ATOM     13  F   UNL     1      44.882   7.910  12.629  0.00  0.00    +0.000 F 
ENDBRANCH   3  10
BRANCH   1  14
ATOM     14  O   UNL     1      47.199   6.440  13.706  0.00  0.00    +0.000 OA
BRANCH  14  18
ATOM     15  C   UNL     1      48.421   4.043  16.877  0.00  0.00    +0.000 A 
ATOM     16  C   UNL     1      47.481   3.592  15.945  0.00  0.00    +0.000 A 
ATOM     17  C   UNL     1      47.057   4.446  14.925  0.00  0.00    +0.000 A 
ATOM     18  C   UNL     1      47.556   5.747  14.830  0.00  0.00    +0.000 A 
ATOM     19  C   UNL     1      48.456   6.222  15.784  0.00  0.00    +0.000 A 
ATOM     20  C   UNL     1      48.878   5.368  16.814  0.00  0.00    +0.000 A 
BRANCH  15  22
ATOM     21  N   UNL     1      48.411   3.205  19.162  0.00  0.00    +0.000 N 
ATOM     22  C   UNL     1      48.984   3.146  17.919  0.00  0.00    +0.000 C 
ATOM     23  O   UNL     1      49.872   2.347  17.670  0.00  0.00    +0.000 OA
ATOM     24  H   UNL     1      48.696   2.484  19.816  0.00  0.00    +0.000 HD
ATOM     25  H   UNL     1      47.516   3.644  19.322  0.00  0.00    +0.000 HD
ENDBRANCH  15  22
ENDBRANCH  14  18
ENDBRANCH   1  14
TORSDOF 5
ENDMDL
MODEL 5
REMARK VINA RESULT:    -6.865      3.931      7.407
REMARK INTER + INTRA:          -9.136
REMARK INTER:                  -8.712
REMARK INTRA:                  -0.424
REMARK UNBOUND:                -0.265
REMARK  Name = 
REMARK  5 active torsions:
REMARK  status: ('A' for Active; 'I' for Inactive)
REMARK    1  A    between atoms: C_2  and  C_4
REMARK    2  A    between atoms: C_7  and  O_8
REMARK    3  A    between atoms: O_8  and  C_9
REMARK    4  A    between atoms: C_11  and  C_12
REMARK    5  A    between atoms: C_11  and  C_18
REMARK                            x       y       z     vdW  Elec       q    Type
REMARK                         _______ _______ _______ _____ _____    ______ ____
ROOT
ATOM      1  C   UNL     1      46.068   4.265  12.743  0.00  0.00    +0.000 C 
ATOM      2  C   UNL     1      45.593   5.565  12.146  0.00  0.00    +0.000 C 
ATOM      3  C   UNL     1      44.883   4.273  11.770  0.00  0.00    +0.000 C 
ENDROOT
BRANCH   3   4
ATOM      4  C   UNL     1      45.030   3.868  10.297  0.00  0.00    +0.000 A 
ATOM      5  C   UNL     1      45.421   4.780   9.306  0.00  0.00    +0.000 A 
ATOM      6  C   UNL     1      45.845   4.338   8.047  0.00  0.00    +0.000 A 
ATOM      7  C   UNL     1      45.867   2.977   7.750  0.00  0.00    +0.000 A 
ATOM      8  C   UNL     1      45.399   2.060   8.684  0.00  0.00    +0.000 A 
ATOM      9  C   UNL     1      44.968   2.505   9.935  0.00  0.00    +0.000 A 
ENDBRANCH   3   4
BRANCH   3  10
ATOM     10  C   UNL     1      43.477   4.008  12.277  0.00  0.00    +0.000 C 
ATOM     11  F   UNL     1      42.526   4.088  11.323  0.00  0.00    +0.000 F 
ATOM     12  F   UNL     1      43.403   2.766  12.823  0.00  0.00    +0.000 F 
ATOM     13  F   UNL     1      43.134   4.893  13.248  0.00  0.00    +0.000 F 
ENDBRANCH   3  10
BRANCH   1  14
ATOM     14  O   UNL     1      45.867   4.300  14.176  0.00  0.00    +0.000 OA
BRANCH  14  18
ATOM     15  C   UNL     1      49.038   5.529  16.569  0.00  0.00    +0.000 A 
ATOM     16  C   UNL     1      48.211   4.468  16.947  0.00  0.00    +0.000 A 
ATOM     17  C   UNL     1      47.124   4.119  16.142  0.00  0.00    +0.000 A 
ATOM     18  C   UNL     1      46.851   4.824  14.968  0.00  0.00    +0.000 A 
ATOM     19  C   UNL     1      47.642   5.916  14.609  0.00  0.00    +0.000 A 
ATOM     20  C   UNL     1      48.729   6.272  15.420  0.00  0.00    +0.000 A 
BRANCH  15  22
ATOM     21  N   UNL     1      50.278   5.558  18.663  0.00  0.00    +0.000 N 
ATOM     22  C   UNL     1      50.265   5.877  17.331  0.00  0.00    +0.000 C 
ATOM     23  O   UNL     1      51.242   6.367  16.790  0.00  0.00    +0.000 OA
ATOM     24  H   UNL     1      51.171   5.656  19.134  0.00  0.00    +0.000 HD
ATOM     25  H   UNL     1      49.611   4.918  19.070  0.00  0.00    +0.000 HD
ENDBRANCH  15  22
ENDBRANCH  14  18
ENDBRANCH   1  14
TORSDOF 5
ENDMDL
MODEL 6
REMARK VINA RESULT:    -6.677      3.502      6.783
REMARK INTER + INTRA:          -8.894
REMARK INTER:                  -9.070
REMARK INTRA:                   0.176
REMARK UNBOUND:                -0.265
REMARK  Name = 
REMARK  5 active torsions:
REMARK  status: ('A' for Active; 'I' for Inactive)
REMARK    1  A    between atoms: C_2  and  C_4
REMARK    2  A    between atoms: C_7  and  O_8
REMARK    3  A    between atoms: O_8  and  C_9
REMARK    4  A    between atoms: C_11  and  C_12
REMARK    5  A    between atoms: C_11  and  C_18
REMARK                            x       y       z     vdW  Elec       q    Type
REMARK                         _______ _______ _______ _____ _____    ______ ____
ROOT
ATOM      1  C   UNL     1      44.812   6.134  11.270  0.00  0.00    +0.000 C 
ATOM      2  C   UNL     1      43.422   5.612  11.006  0.00  0.00    +0.000 C 
ATOM      3  C   UNL     1      44.577   4.627  11.115  0.00  0.00    +0.000 C 
ENDROOT
BRANCH   3   4
ATOM      4  C   UNL     1      44.901   3.877   9.816  0.00  0.00    +0.000 A 
ATOM      5  C   UNL     1      45.567   4.489   8.744  0.00  0.00    +0.000 A 
ATOM      6  C   UNL     1      46.123   3.726   7.711  0.00  0.00    +0.000 A 
ATOM      7  C   UNL     1      46.005   2.337   7.720  0.00  0.00    +0.000 A 
ATOM      8  C   UNL     1      45.272   1.714   8.724  0.00  0.00    +0.000 A 
ATOM      9  C   UNL     1      44.711   2.479   9.748  0.00  0.00    +0.000 A 
ENDBRANCH   3   4
BRANCH   3  10
ATOM     10  C   UNL     1      44.678   3.711  12.321  0.00  0.00    +0.000 C 
ATOM     11  F   UNL     1      43.871   2.631  12.258  0.00  0.00    +0.000 F 
ATOM     12  F   UNL     1      45.952   3.260  12.461  0.00  0.00    +0.000 F 
ATOM     13  F   UNL     1      44.359   4.372  13.464  0.00  0.00    +0.000 F 
ENDBRANCH   3  10
BRANCH   1  14
ATOM     14  O   UNL     1      44.843   6.762  12.573  0.00  0.00    +0.000 OA
BRANCH  14  18
ATOM     15  C   UNL     1      48.616   8.132  13.657  0.00  0.00    +0.000 A 
ATOM     16  C   UNL     1      48.336   6.766  13.574  0.00  0.00    +0.000 A 
ATOM     17  C   UNL     1      47.043   6.345  13.258  0.00  0.00    +0.000 A 
ATOM     18  C   UNL     1      46.025   7.275  13.032  0.00  0.00    +0.000 A 
ATOM     19  C   UNL     1      46.284   8.639  13.162  0.00  0.00    +0.000 A 
ATOM     20  C   UNL     1      47.581   9.064  13.486  0.00  0.00    +0.000 A 
BRANCH  15  22
ATOM     21  N   UNL     1      51.026   7.796  13.562  0.00  0.00    +0.000 N 
ATOM     22  C   UNL     1      49.995   8.638  13.887  0.00  0.00    +0.000 C 
ATOM     23  O   UNL     1      50.207   9.771  14.286  0.00  0.00    +0.000 OA
ATOM     24  H   UNL     1      51.953   8.206  13.575  0.00  0.00    +0.000 HD
ATOM     25  H   UNL     1      50.891   6.979  12.985  0.00  0.00    +0.000 HD
ENDBRANCH  15  22
ENDBRANCH  14  18
ENDBRANCH   1  14
TORSDOF 5
ENDMDL
MODEL 7
REMARK VINA RESULT:    -6.380      1.562      2.190
REMARK INTER + INTRA:          -8.510
REMARK INTER:                  -7.519
REMARK INTRA:                  -0.991
REMARK UNBOUND:                -0.265
REMARK  Name = 
REMARK  5 active torsions:
REMARK  status: ('A' for Active; 'I' for Inactive)
REMARK    1  A    between atoms: C_2  and  C_4
REMARK    2  A    between atoms: C_7  and  O_8
REMARK    3  A    between atoms: O_8  and  C_9
REMARK    4  A    between atoms: C_11  and  C_12
REMARK    5  A    between atoms: C_11  and  C_18
REMARK                            x       y       z     vdW  Elec       q    Type
REMARK                         _______ _______ _______ _____ _____    ______ ____
ROOT
ATOM      1  C   UNL     1      46.069   5.124  12.019  0.00  0.00    +0.000 C 
ATOM      2  C   UNL     1      45.605   5.458  13.414  0.00  0.00    +0.000 C 
ATOM      3  C   UNL     1      46.051   6.582  12.490  0.00  0.00    +0.000 C 
ENDROOT
BRANCH   3   4
ATOM      4  C   UNL     1      47.322   7.313  12.942  0.00  0.00    +0.000 A 
ATOM      5  C   UNL     1      48.192   7.934  12.033  0.00  0.00    +0.000 A 
ATOM      6  C   UNL     1      49.161   8.845  12.470  0.00  0.00    +0.000 A 
ATOM      7  C   UNL     1      49.292   9.135  13.827  0.00  0.00    +0.000 A 
ATOM      8  C   UNL     1      48.503   8.466  14.754  0.00  0.00    +0.000 A 
ATOM      9  C   UNL     1      47.544   7.551  14.316  0.00  0.00    +0.000 A 
ENDBRANCH   3   4
BRANCH   3  10
ATOM     10  C   UNL     1      45.026   7.552  11.931  0.00  0.00    +0.000 C 
ATOM     11  F   UNL     1      45.038   8.765  12.524  0.00  0.00    +0.000 F 
ATOM     12  F   UNL     1      45.240   7.746  10.604  0.00  0.00    +0.000 F 
ATOM     13  F   UNL     1      43.766   7.063  12.066  0.00  0.00    +0.000 F 
ENDBRANCH   3  10
BRANCH   1  14
ATOM     14  O   UNL     1      44.964   4.558  11.275  0.00  0.00    +0.000 OA
BRANCH  14  18
ATOM     15  C   UNL     1      46.106   2.883   7.644  0.00  0.00    +0.000 A 
ATOM     16  C   UNL     1      46.156   4.264   7.855  0.00  0.00    +0.000 A 
ATOM     17  C   UNL     1      45.715   4.793   9.069  0.00  0.00    +0.000 A 
ATOM     18  C   UNL     1      45.217   3.957  10.072  0.00  0.00    +0.000 A 
ATOM     19  C   UNL     1      45.117   2.584   9.852  0.00  0.00    +0.000 A 
ATOM     20  C   UNL     1      45.553   2.051   8.630  0.00  0.00    +0.000 A 
BRANCH  15  22
ATOM     21  N   UNL     1      47.129   0.976   6.529  0.00  0.00    +0.000 N 
ATOM     22  C   UNL     1      46.657   2.257   6.415  0.00  0.00    +0.000 C 
ATOM     23  O   UNL     1      46.637   2.828   5.336  0.00  0.00    +0.000 OA
ATOM     24  H   UNL     1      47.355   0.507   5.659  0.00  0.00    +0.000 HD
ATOM     25  H   UNL     1      46.912   0.392   7.324  0.00  0.00    +0.000 HD
ENDBRANCH  15  22
ENDBRANCH  14  18
ENDBRANCH   1  14
TORSDOF 5
ENDMDL
MODEL 8
REMARK VINA RESULT:    -6.350      2.806      4.341
REMARK INTER + INTRA:          -8.471
REMARK INTER:                  -7.480
REMARK INTRA:                  -0.992
REMARK UNBOUND:                -0.265
REMARK  Name = 
REMARK  5 active torsions:
REMARK  status: ('A' for Active; 'I' for Inactive)
REMARK    1  A    between atoms: C_2  and  C_4
REMARK    2  A    between atoms: C_7  and  O_8
REMARK    3  A    between atoms: O_8  and  C_9
REMARK    4  A    between atoms: C_11  and  C_12
REMARK    5  A    between atoms: C_11  and  C_18
REMARK                            x       y       z     vdW  Elec       q    Type
REMARK                         _______ _______ _______ _____ _____    ______ ____
ROOT
ATOM      1  C   UNL     1      47.862   6.149  13.372  0.00  0.00    +0.000 C 
ATOM      2  C   UNL     1      48.333   6.796  14.650  0.00  0.00    +0.000 C 
ATOM      3  C   UNL     1      48.465   7.558  13.340  0.00  0.00    +0.000 C 
ENDROOT
BRANCH   3   4
ATOM      4  C   UNL     1      49.911   7.821  12.897  0.00  0.00    +0.000 A 
ATOM      5  C   UNL     1      50.280   7.883  11.545  0.00  0.00    +0.000 A 
ATOM      6  C   UNL     1      51.514   8.421  11.160  0.00  0.00    +0.000 A 
ATOM      7  C   UNL     1      52.409   8.887  12.121  0.00  0.00    +0.000 A 
ATOM      8  C   UNL     1      52.105   8.753  13.470  0.00  0.00    +0.000 A 
ATOM      9  C   UNL     1      50.878   8.208  13.851  0.00  0.00    +0.000 A 
ENDBRANCH   3   4
BRANCH   3  10
ATOM     10  C   UNL     1      47.580   8.762  13.073  0.00  0.00    +0.000 C 
ATOM     11  F   UNL     1      48.220   9.946  13.171  0.00  0.00    +0.000 F 
ATOM     12  F   UNL     1      47.051   8.686  11.824  0.00  0.00    +0.000 F 
ATOM     13  F   UNL     1      46.540   8.806  13.946  0.00  0.00    +0.000 F 
ENDBRANCH   3  10
BRANCH   1  14
ATOM     14  O   UNL     1      46.432   5.944  13.445  0.00  0.00    +0.000 OA
BRANCH  14  18
ATOM     15  C   UNL     1      44.912   3.755  10.251  0.00  0.00    +0.000 A 
ATOM     16  C   UNL     1      45.339   5.076  10.089  0.00  0.00    +0.000 A 
ATOM     17  C   UNL     1      45.794   5.795  11.196  0.00  0.00    +0.000 A 
ATOM     18  C   UNL     1      45.820   5.211  12.465  0.00  0.00    +0.000 A 
ATOM     19  C   UNL     1      45.349   3.910  12.644  0.00  0.00    +0.000 A 
ATOM     20  C   UNL     1      44.885   3.188  11.535  0.00  0.00    +0.000 A 
BRANCH  15  22
ATOM     21  N   UNL     1      44.312   3.552   7.901  0.00  0.00    +0.000 N 
ATOM     22  C   UNL     1      44.517   2.911   9.094  0.00  0.00    +0.000 C 
ATOM     23  O   UNL     1      44.437   1.697   9.180  0.00  0.00    +0.000 OA
ATOM     24  H   UNL     1      44.197   2.954   7.090  0.00  0.00    +0.000 HD
ATOM     25  H   UNL     1      44.631   4.496   7.736  0.00  0.00    +0.000 HD
ENDBRANCH  15  22
ENDBRANCH  14  18
ENDBRANCH   1  14
TORSDOF 5
ENDMDL
MODEL 9
REMARK VINA RESULT:    -6.153      4.223      6.036
REMARK INTER + INTRA:          -8.216
REMARK INTER:                  -7.488
REMARK INTRA:                  -0.728
REMARK UNBOUND:                -0.265
REMARK  Name = 
REMARK  5 active torsions:
REMARK  status: ('A' for Active; 'I' for Inactive)
REMARK    1  A    between atoms: C_2  and  C_4
REMARK    2  A    between atoms: C_7  and  O_8
REMARK    3  A    between atoms: O_8  and  C_9
REMARK    4  A    between atoms: C_11  and  C_12
REMARK    5  A    between atoms: C_11  and  C_18
REMARK                            x       y       z     vdW  Elec       q    Type
REMARK                         _______ _______ _______ _____ _____    ______ ____
ROOT
ATOM      1  C   UNL     1      47.751   5.380  15.819  0.00  0.00    +0.000 C 
ATOM      2  C   UNL     1      49.210   5.646  16.095  0.00  0.00    +0.000 C 
ATOM      3  C   UNL     1      48.332   5.098  17.210  0.00  0.00    +0.000 C 
ENDROOT
BRANCH   3   4
ATOM      4  C   UNL     1      48.129   6.055  18.392  0.00  0.00    +0.000 A 
ATOM      5  C   UNL     1      47.106   5.875  19.335  0.00  0.00    +0.000 A 
ATOM      6  C   UNL     1      47.123   6.559  20.556  0.00  0.00    +0.000 A 
ATOM      7  C   UNL     1      48.152   7.454  20.847  0.00  0.00    +0.000 A 
ATOM      8  C   UNL     1      49.127   7.717  19.892  0.00  0.00    +0.000 A 
ATOM      9  C   UNL     1      49.102   7.040  18.672  0.00  0.00    +0.000 A 
ENDBRANCH   3   4
BRANCH   3  10
ATOM     10  C   UNL     1      48.516   3.668  17.685  0.00  0.00    +0.000 C 
ATOM     11  F   UNL     1      49.010   3.565  18.937  0.00  0.00    +0.000 F 
ATOM     12  F   UNL     1      47.328   3.009  17.659  0.00  0.00    +0.000 F 
ATOM     13  F   UNL     1      49.367   2.990  16.871  0.00  0.00    +0.000 F 
ENDBRANCH   3  10
BRANCH   1  14
ATOM     14  O   UNL     1      47.640   4.336  14.824  0.00  0.00    +0.000 OA
BRANCH  14  18
ATOM     15  C   UNL     1      44.937   4.795  11.697  0.00  0.00    +0.000 A 
ATOM     16  C   UNL     1      45.291   3.529  12.171  0.00  0.00    +0.000 A 
ATOM     17  C   UNL     1      46.242   3.414  13.187  0.00  0.00    +0.000 A 
ATOM     18  C   UNL     1      46.848   4.550  13.729  0.00  0.00    +0.000 A 
ATOM     19  C   UNL     1      46.537   5.814  13.227  0.00  0.00    +0.000 A 
ATOM     20  C   UNL     1      45.588   5.931  12.201  0.00  0.00    +0.000 A 
BRANCH  15  22
ATOM     21  N   UNL     1      44.151   4.639   9.398  0.00  0.00    +0.000 N 
ATOM     22  C   UNL     1      43.859   4.982  10.692  0.00  0.00    +0.000 C 
ATOM     23  O   UNL     1      42.743   5.363  11.007  0.00  0.00    +0.000 OA
ATOM     24  H   UNL     1      43.366   4.622   8.756  0.00  0.00    +0.000 HD
ATOM     25  H   UNL     1      44.953   4.074   9.160  0.00  0.00    +0.000 HD
ENDBRANCH  15  22
ENDBRANCH  14  18
ENDBRANCH   1  14
TORSDOF 5
ENDMDL
