MODEL 1
REMARK VINA RESULT:    -7.924      0.000      0.000
REMARK INTER + INTRA:         -11.841
REMARK INTER:                 -10.703
REMARK INTRA:                  -1.138
REMARK UNBOUND:                -1.138
REMARK  Name = 
REMARK  6 active torsions:
REMARK  status: ('A' for Active; 'I' for Inactive)
REMARK    1  A    between atoms: C_2  and  C_25
REMARK    2  A    between atoms: N_3  and  C_4
REMARK    3  A    between atoms: C_4  and  C_5
REMARK    4  A    between atoms: C_8  and  C_9
REMARK    5  A    between atoms: C_9  and  N_10
REMARK    6  A    between atoms: C_11  and  C_13
REMARK                            x       y       z     vdW  Elec       q    Type
REMARK                         _______ _______ _______ _____ _____    ______ ____
ROOT
ATOM      1  C   UNL     1      44.887   5.614  10.833  0.00  0.00    +0.000 A 
ATOM      2  C   UNL     1      44.293   6.058  12.022  0.00  0.00    +0.000 A 
ATOM      3  C   UNL     1      44.988   6.901  12.896  0.00  0.00    +0.000 A 
ATOM      4  C   UNL     1      46.284   7.333  12.587  0.00  0.00    +0.000 A 
ATOM      5  C   UNL     1      46.885   6.876  11.406  0.00  0.00    +0.000 A 
ATOM      6  C   UNL     1      46.191   6.034  10.533  0.00  0.00    +0.000 A 
ENDROOT
BRANCH   1   7
ATOM      7  C   UNL     1      44.133   4.724   9.882  0.00  0.00    +0.000 C 
BRANCH   7  10
ATOM      8  O   UNL     1      45.025   2.115   9.778  0.00  0.00    +0.000 OA
ATOM      9  C   UNL     1      45.391   2.871   8.880  0.00  0.00    +0.000 C 
ATOM     10  N   UNL     1      44.996   4.191   8.856  0.00  0.00    +0.000 N 
ATOM     11  H   UNL     1      45.268   4.780   8.079  0.00  0.00    +0.000 HD
BRANCH   9  12
ATOM     12  C   UNL     1      46.245   2.433   7.794  0.00  0.00    +0.000 A 
ATOM     13  C   UNL     1      46.848   1.195   7.659  0.00  0.00    +0.000 A 
ATOM     14  N   UNL     1      47.632   1.022   6.533  0.00  0.00    +0.000 NA
ATOM     15  C   UNL     1      47.619   2.129   5.827  0.00  0.00    +0.000 A 
ATOM     16  S   UNL     1      46.674   3.416   6.455  0.00  0.00    +0.000 S 
ENDBRANCH   9  12
ENDBRANCH   7  10
ENDBRANCH   1   7
BRANCH   4  17
ATOM     17  C   UNL     1      47.046   8.234  13.527  0.00  0.00    +0.000 C 
BRANCH  17  18
ATOM     18  N   UNL     1      47.499   7.506  14.683  0.00  0.00    +0.000 N 
ATOM     19  C   UNL     1      48.723   6.887  14.710  0.00  0.00    +0.000 C 
ATOM     20  O   UNL     1      49.511   6.963  13.773  0.00  0.00    +0.000 OA
ATOM     21  H   UNL     1      46.789   7.232  15.355  0.00  0.00    +0.000 HD
BRANCH  19  22
ATOM     22  C   UNL     1      49.065   6.180  15.951  0.00  0.00    +0.000 A 
ATOM     23  C   UNL     1      50.149   6.603  16.709  0.00  0.00    +0.000 A 
ATOM     24  S   UNL     1      50.356   5.721  18.155  0.00  0.00    +0.000 S 
ATOM     25  C   UNL     1      49.042   4.704  17.789  0.00  0.00    +0.000 A 
ATOM     26  N   UNL     1      48.679   3.699  18.630  0.00  0.00    +0.000 NA
ATOM     27  C   UNL     1      47.683   2.990  18.216  0.00  0.00    +0.000 A 
ATOM     28  N   UNL     1      47.015   3.195  17.037  0.00  0.00    +0.000 N 
ATOM     29  C   UNL     1      47.332   4.210  16.167  0.00  0.00    +0.000 A 
ATOM     30  O   UNL     1      46.700   4.380  15.130  0.00  0.00    +0.000 OA
ATOM     31  C   UNL     1      48.445   5.040  16.587  0.00  0.00    +0.000 A 
ATOM     32  H   UNL     1      46.243   2.604  16.768  0.00  0.00    +0.000 HD
ENDBRANCH  19  22
ENDBRANCH  17  18
ENDBRANCH   4  17
TORSDOF 6
ENDMDL
MODEL 2
REMARK VINA RESULT:    -6.987      4.908      9.172
REMARK INTER + INTRA:         -10.575
REMARK INTER:                  -9.805
REMARK INTRA:                  -0.769
REMARK UNBOUND:                -1.138
REMARK  Name = 
REMARK  6 active torsions:
REMARK  status: ('A' for Active; 'I' for Inactive)
REMARK    1  A    between atoms: C_2  and  C_25
REMARK    2  A    between atoms: N_3  and  C_4
REMARK    3  A    between atoms: C_4  and  C_5
REMARK    4  A    between atoms: C_8  and  C_9
REMARK    5  A    between atoms: C_9  and  N_10
REMARK    6  A    between atoms: C_11  and  C_13
REMARK                            x       y       z     vdW  Elec       q    Type
REMARK                         _______ _______ _______ _____ _____    ______ ____
ROOT
ATOM      1  C   UNL     1      51.545   2.969  17.720  0.00  0.00    +0.000 A 
ATOM      2  C   UNL     1      50.756   1.933  17.201  0.00  0.00    +0.000 A 
ATOM      3  C   UNL     1      49.383   2.114  17.002  0.00  0.00    +0.000 A 
ATOM      4  C   UNL     1      48.775   3.341  17.300  0.00  0.00    +0.000 A 
ATOM      5  C   UNL     1      49.562   4.371  17.834  0.00  0.00    +0.000 A 
ATOM      6  C   UNL     1      50.933   4.191  18.033  0.00  0.00    +0.000 A 
ENDROOT
BRANCH   1   7
ATOM      7  C   UNL     1      53.025   2.784  17.915  0.00  0.00    +0.000 C 
BRANCH   7  10
ATOM      8  O   UNL     1      54.309   0.875  19.439  0.00  0.00    +0.000 OA
ATOM      9  C   UNL     1      54.101   0.605  18.258  0.00  0.00    +0.000 C 
ATOM     10  N   UNL     1      53.470   1.502  17.424  0.00  0.00    +0.000 N 
ATOM     11  H   UNL     1      53.263   1.237  16.469  0.00  0.00    +0.000 HD
BRANCH   9  12
ATOM     12  C   UNL     1      54.493  -0.659  17.669  0.00  0.00    +0.000 A 
ATOM     13  C   UNL     1      54.870  -0.884  16.357  0.00  0.00    +0.000 A 
ATOM     14  N   UNL     1      55.188  -2.189  16.031  0.00  0.00    +0.000 NA
ATOM     15  C   UNL     1      55.047  -2.944  17.097  0.00  0.00    +0.000 A 
ATOM     16  S   UNL     1      54.544  -2.143  18.529  0.00  0.00    +0.000 S 
ENDBRANCH   9  12
ENDBRANCH   7  10
ENDBRANCH   1   7
BRANCH   4  17
ATOM     17  C   UNL     1      47.295   3.542  17.098  0.00  0.00    +0.000 C 
BRANCH  17  18
ATOM     18  N   UNL     1      47.044   4.545  16.096  0.00  0.00    +0.000 N 
ATOM     19  C   UNL     1      47.073   4.248  14.758  0.00  0.00    +0.000 C 
ATOM     20  O   UNL     1      47.265   3.108  14.348  0.00  0.00    +0.000 OA
ATOM     21  H   UNL     1      47.121   5.512  16.393  0.00  0.00    +0.000 HD
BRANCH  19  22
ATOM     22  C   UNL     1      46.797   5.361  13.840  0.00  0.00    +0.000 A 
ATOM     23  C   UNL     1      47.747   6.357  13.658  0.00  0.00    +0.000 A 
ATOM     24  S   UNL     1      47.297   7.527  12.501  0.00  0.00    +0.000 S 
ATOM     25  C   UNL     1      45.791   6.778  12.247  0.00  0.00    +0.000 A 
ATOM     26  N   UNL     1      44.893   7.292  11.365  0.00  0.00    +0.000 NA
ATOM     27  C   UNL     1      43.782   6.639  11.291  0.00  0.00    +0.000 A 
ATOM     28  N   UNL     1      43.487   5.516  12.019  0.00  0.00    +0.000 N 
ATOM     29  C   UNL     1      44.371   4.948  12.906  0.00  0.00    +0.000 A 
ATOM     30  O   UNL     1      44.084   3.930  13.526  0.00  0.00    +0.000 OA
ATOM     31  C   UNL     1      45.638   5.644  13.024  0.00  0.00    +0.000 A 
ATOM     32  H   UNL     1      42.599   5.050  11.918  0.00  0.00    +0.000 HD
ENDBRANCH  19  22
ENDBRANCH  17  18
ENDBRANCH   4  17
TORSDOF 6
ENDMDL
MODEL 3
REMARK VINA RESULT:    -6.946      2.234      2.621
REMARK INTER + INTRA:         -10.520
REMARK INTER:                  -9.554
REMARK INTRA:                  -0.965
REMARK UNBOUND:                -1.138
REMARK  Name = 
REMARK  6 active torsions:
REMARK  status: ('A' for Active; 'I' for Inactive)
REMARK    1  A    between atoms: C_2  and  C_25
REMARK    2  A    between atoms: N_3  and  C_4
REMARK    3  A    between atoms: C_4  and  C_5
REMARK    4  A    between atoms: C_8  and  C_9
REMARK    5  A    between atoms: C_9  and  N_10
REMARK    6  A    between atoms: C_11  and  C_13
REMARK                            x       y       z     vdW  Elec       q    Type
REMARK                         _______ _______ _______ _____ _____    ______ ____
ROOT
ATOM      1  C   UNL     1      45.191   4.572  11.907  0.00  0.00    +0.000 A 
ATOM      2  C   UNL     1      45.072   5.935  11.601  0.00  0.00    +0.000 A 
ATOM      3  C   UNL     1      45.873   6.884  12.247  0.00  0.00    +0.000 A 
ATOM      4  C   UNL     1      46.822   6.486  13.197  0.00  0.00    +0.000 A 
ATOM      5  C   UNL     1      46.929   5.125  13.515  0.00  0.00    +0.000 A 
ATOM      6  C   UNL     1      46.130   4.177  12.870  0.00  0.00    +0.000 A 
ENDROOT
BRANCH   1   7
ATOM      7  C   UNL     1      44.346   3.549  11.199  0.00  0.00    +0.000 C 
BRANCH   7  10
ATOM      8  O   UNL     1      44.521   4.239   8.533  0.00  0.00    +0.000 OA
ATOM      9  C   UNL     1      45.141   3.242   8.898  0.00  0.00    +0.000 C 
ATOM     10  N   UNL     1      45.107   2.824  10.211  0.00  0.00    +0.000 N 
ATOM     11  H   UNL     1      45.667   2.031  10.497  0.00  0.00    +0.000 HD
BRANCH   9  12
ATOM     12  C   UNL     1      45.948   2.453   7.989  0.00  0.00    +0.000 A 
ATOM     13  C   UNL     1      46.243   1.106   8.096  0.00  0.00    +0.000 A 
ATOM     14  N   UNL     1      47.050   0.581   7.104  0.00  0.00    +0.000 NA
ATOM     15  C   UNL     1      47.361   1.533   6.255  0.00  0.00    +0.000 A 
ATOM     16  S   UNL     1      46.707   3.085   6.586  0.00  0.00    +0.000 S 
ENDBRANCH   9  12
ENDBRANCH   7  10
ENDBRANCH   1   7
BRANCH   4  17
ATOM     17  C   UNL     1      47.683   7.502  13.906  0.00  0.00    +0.000 C 
BRANCH  17  18
ATOM     18  N   UNL     1      47.944   7.097  15.263  0.00  0.00    +0.000 N 
ATOM     19  C   UNL     1      49.212   6.804  15.695  0.00  0.00    +0.000 C 
ATOM     20  O   UNL     1      50.191   6.919  14.965  0.00  0.00    +0.000 OA
ATOM     21  H   UNL     1      47.147   6.771  15.800  0.00  0.00    +0.000 HD
BRANCH  19  22
ATOM     22  C   UNL     1      49.342   6.407  17.103  0.00  0.00    +0.000 A 
ATOM     23  C   UNL     1      49.932   5.193  17.425  0.00  0.00    +0.000 A 
ATOM     24  S   UNL     1      50.074   4.926  19.105  0.00  0.00    +0.000 S 
ATOM     25  C   UNL     1      49.296   6.398  19.460  0.00  0.00    +0.000 A 
ATOM     26  N   UNL     1      49.080   6.783  20.746  0.00  0.00    +0.000 NA
ATOM     27  C   UNL     1      48.458   7.907  20.870  0.00  0.00    +0.000 A 
ATOM     28  N   UNL     1      48.030   8.682  19.824  0.00  0.00    +0.000 N 
ATOM     29  C   UNL     1      48.244   8.344  18.509  0.00  0.00    +0.000 A 
ATOM     30  O   UNL     1      47.869   9.071  17.595  0.00  0.00    +0.000 OA
ATOM     31  C   UNL     1      48.945   7.088  18.314  0.00  0.00    +0.000 A 
ATOM     32  H   UNL     1      47.546   9.552  19.985  0.00  0.00    +0.000 HD
ENDBRANCH  19  22
ENDBRANCH  17  18
ENDBRANCH   4  17
TORSDOF 6
ENDMDL
MODEL 4
REMARK VINA RESULT:    -6.727      1.998      2.666
REMARK INTER + INTRA:         -10.224
REMARK INTER:                  -9.606
REMARK INTRA:                  -0.619
REMARK UNBOUND:                -1.138
REMARK  Name = 
REMARK  6 active torsions:
REMARK  status: ('A' for Active; 'I' for Inactive)
REMARK    1  A    between atoms: C_2  and  C_25
REMARK    2  A    between atoms: N_3  and  C_4
REMARK    3  A    between atoms: C_4  and  C_5
REMARK    4  A    between atoms: C_8  and  C_9
REMARK    5  A    between atoms: C_9  and  N_10
REMARK    6  A    between atoms: C_11  and  C_13
REMARK                            x       y       z     vdW  Elec       q    Type
REMARK                         _______ _______ _______ _____ _____    ______ ____
ROOT
ATOM      1  C   UNL     1      44.932   5.391  11.358  0.00  0.00    +0.000 A 
ATOM      2  C   UNL     1      45.601   4.706  12.381  0.00  0.00    +0.000 A 
ATOM      3  C   UNL     1      46.493   5.378  13.224  0.00  0.00    +0.000 A 
ATOM      4  C   UNL     1      46.718   6.753  13.073  0.00  0.00    +0.000 A 
ATOM      5  C   UNL     1      46.060   7.434  12.039  0.00  0.00    +0.000 A 
ATOM      6  C   UNL     1      45.169   6.763  11.196  0.00  0.00    +0.000 A 
ENDROOT
BRANCH   1   7
ATOM      7  C   UNL     1      43.956   4.674  10.464  0.00  0.00    +0.000 C 
BRANCH   7  10
ATOM      8  O   UNL     1      45.672   4.944   8.319  0.00  0.00    +0.000 OA
ATOM      9  C   UNL     1      45.430   3.802   8.706  0.00  0.00    +0.000 C 
ATOM     10  N   UNL     1      44.581   3.576   9.768  0.00  0.00    +0.000 N 
ATOM     11  H   UNL     1      44.439   2.631  10.101  0.00  0.00    +0.000 HD
BRANCH   9  12
ATOM     12  C   UNL     1      46.018   2.631   8.088  0.00  0.00    +0.000 A 
ATOM     13  C   UNL     1      45.906   1.321   8.516  0.00  0.00    +0.000 A 
ATOM     14  N   UNL     1      46.574   0.376   7.759  0.00  0.00    +0.000 NA
ATOM     15  C   UNL     1      47.188   0.978   6.766  0.00  0.00    +0.000 A 
ATOM     16  S   UNL     1      46.995   2.680   6.678  0.00  0.00    +0.000 S 
ENDBRANCH   9  12
ENDBRANCH   7  10
ENDBRANCH   1   7
BRANCH   4  17
ATOM     17  C   UNL     1      47.684   7.485  13.969  0.00  0.00    +0.000 C 
BRANCH  17  18
ATOM     18  N   UNL     1      48.183   6.618  15.005  0.00  0.00    +0.000 N 
ATOM     19  C   UNL     1      48.922   7.100  16.054  0.00  0.00    +0.000 C 
ATOM     20  O   UNL     1      49.154   8.298  16.190  0.00  0.00    +0.000 OA
ATOM     21  H   UNL     1      48.211   5.626  14.792  0.00  0.00    +0.000 HD
BRANCH  19  22
ATOM     22  C   UNL     1      49.368   6.111  17.044  0.00  0.00    +0.000 A 
ATOM     23  C   UNL     1      48.441   5.509  17.883  0.00  0.00    +0.000 A 
ATOM     24  S   UNL     1      49.118   4.330  18.914  0.00  0.00    +0.000 S 
ATOM     25  C   UNL     1      50.684   4.626  18.317  0.00  0.00    +0.000 A 
ATOM     26  N   UNL     1      51.757   3.944  18.797  0.00  0.00    +0.000 NA
ATOM     27  C   UNL     1      52.886   4.287  18.275  0.00  0.00    +0.000 A 
ATOM     28  N   UNL     1      53.041   5.252  17.315  0.00  0.00    +0.000 N 
ATOM     29  C   UNL     1      51.984   5.953  16.784  0.00  0.00    +0.000 A 
ATOM     30  O   UNL     1      52.153   6.795  15.909  0.00  0.00    +0.000 OA
ATOM     31  C   UNL     1      50.689   5.602  17.336  0.00  0.00    +0.000 A 
ATOM     32  H   UNL     1      53.952   5.477  16.946  0.00  0.00    +0.000 HD
ENDBRANCH  19  22
ENDBRANCH  17  18
ENDBRANCH   4  17
TORSDOF 6
ENDMDL
MODEL 5
REMARK VINA RESULT:    -6.593      3.542      8.400
REMARK INTER + INTRA:         -10.042
REMARK INTER:                  -9.015
REMARK INTRA:                  -1.028
REMARK UNBOUND:                -1.138
REMARK  Name = 
REMARK  6 active torsions:
REMARK  status: ('A' for Active; 'I' for Inactive)
REMARK    1  A    between atoms: C_2  and  C_25
REMARK    2  A    between atoms: N_3  and  C_4
REMARK    3  A    between atoms: C_4  and  C_5
REMARK    4  A    between atoms: C_8  and  C_9
REMARK    5  A    between atoms: C_9  and  N_10
REMARK    6  A    between atoms: C_11  and  C_13
REMARK                            x       y       z     vdW  Elec       q    Type
REMARK                         _______ _______ _______ _____ _____    ______ ____
ROOT
ATOM      1  C   UNL     1      49.670   4.572  17.589  0.00  0.00    +0.000 A 
ATOM      2  C   UNL     1      50.426   5.694  17.223  0.00  0.00    +0.000 A 
ATOM      3  C   UNL     1      49.975   6.564  16.224  0.00  0.00    +0.000 A 
ATOM      4  C   UNL     1      48.749   6.339  15.584  0.00  0.00    +0.000 A 
ATOM      5  C   UNL     1      48.001   5.207  15.938  0.00  0.00    +0.000 A 
ATOM      6  C   UNL     1      48.451   4.339  16.937  0.00  0.00    +0.000 A 
ENDROOT
BRANCH   1   7
ATOM      7  C   UNL     1      50.143   3.648  18.678  0.00  0.00    +0.000 C 
BRANCH   7  10
ATOM      8  O   UNL     1      50.833   1.362  17.295  0.00  0.00    +0.000 OA
ATOM      9  C   UNL     1      51.751   2.048  17.741  0.00  0.00    +0.000 C 
ATOM     10  N   UNL     1      51.496   3.204  18.447  0.00  0.00    +0.000 N 
ATOM     11  H   UNL     1      52.268   3.779  18.760  0.00  0.00    +0.000 HD
BRANCH   9  12
ATOM     12  C   UNL     1      53.144   1.701  17.552  0.00  0.00    +0.000 A 
ATOM     13  C   UNL     1      53.657   0.450  17.258  0.00  0.00    +0.000 A 
ATOM     14  N   UNL     1      55.032   0.369  17.138  0.00  0.00    +0.000 NA
ATOM     15  C   UNL     1      55.550   1.558  17.346  0.00  0.00    +0.000 A 
ATOM     16  S   UNL     1      54.438   2.821  17.679  0.00  0.00    +0.000 S 
ENDBRANCH   9  12
ENDBRANCH   7  10
ENDBRANCH   1   7
BRANCH   4  17
ATOM     17  C   UNL     1      48.259   7.264  14.499  0.00  0.00    +0.000 C 
BRANCH  17  18
ATOM     18  N   UNL     1      47.023   6.786  13.935  0.00  0.00    +0.000 N 
ATOM     19  C   UNL     1      46.830   6.718  12.579  0.00  0.00    +0.000 C 
ATOM     20  O   UNL     1      47.713   7.011  11.780  0.00  0.00    +0.000 OA
ATOM     21  H   UNL     1      46.219   6.769  14.554  0.00  0.00    +0.000 HD
BRANCH  19  22
ATOM     22  C   UNL     1      45.525   6.210  12.134  0.00  0.00    +0.000 A 
ATOM     23  C   UNL     1      44.599   7.082  11.581  0.00  0.00    +0.000 A 
ATOM     24  S   UNL     1      43.172   6.314  11.047  0.00  0.00    +0.000 S 
ATOM     25  C   UNL     1      43.717   4.797  11.592  0.00  0.00    +0.000 A 
ATOM     26  N   UNL     1      42.950   3.685  11.450  0.00  0.00    +0.000 NA
ATOM     27  C   UNL     1      43.476   2.608  11.931  0.00  0.00    +0.000 A 
ATOM     28  N   UNL     1      44.700   2.543  12.543  0.00  0.00    +0.000 N 
ATOM     29  C   UNL     1      45.519   3.637  12.691  0.00  0.00    +0.000 A 
ATOM     30  O   UNL     1      46.620   3.541  13.223  0.00  0.00    +0.000 OA
ATOM     31  C   UNL     1      44.976   4.874  12.162  0.00  0.00    +0.000 A 
ATOM     32  H   UNL     1      45.056   1.670  12.901  0.00  0.00    +0.000 HD
ENDBRANCH  19  22
ENDBRANCH  17  18
ENDBRANCH   4  17
TORSDOF 6
ENDMDL
MODEL 6
REMARK VINA RESULT:    -6.505      2.486      4.017
REMARK INTER + INTRA:          -9.924
REMARK INTER:                  -8.959
REMARK INTRA:                  -0.965
REMARK UNBOUND:                -1.138
REMARK  Name = 
REMARK  6 active torsions:
REMARK  status: ('A' for Active; 'I' for Inactive)
REMARK    1  A    between atoms: C_2  and  C_25
REMARK    2  A    between atoms: N_3  and  C_4
REMARK    3  A    between atoms: C_4  and  C_5
REMARK    4  A    between atoms: C_8  and  C_9
REMARK    5  A    between atoms: C_9  and  N_10
REMARK    6  A    between atoms: C_11  and  C_13
REMARK                            x       y       z     vdW  Elec       q    Type
REMARK                         _______ _______ _______ _____ _____    ______ ____
ROOT
ATOM      1  C   UNL     1      44.824   4.325  11.365  0.00  0.00    +0.000 A 
ATOM      2  C   UNL     1      45.315   3.213  12.062  0.00  0.00    +0.000 A 
ATOM      3  C   UNL     1      46.056   3.378  13.238  0.00  0.00    +0.000 A 
ATOM      4  C   UNL     1      46.303   4.659  13.750  0.00  0.00    +0.000 A 
ATOM      5  C   UNL     1      45.826   5.771  13.043  0.00  0.00    +0.000 A 
ATOM      6  C   UNL     1      45.085   5.606  11.869  0.00  0.00    +0.000 A 
ENDROOT
BRANCH   1   7
ATOM      7  C   UNL     1      44.009   4.148  10.113  0.00  0.00    +0.000 C 
BRANCH   7  10
ATOM      8  O   UNL     1      45.938   5.237   8.467  0.00  0.00    +0.000 OA
ATOM      9  C   UNL     1      45.689   4.041   8.327  0.00  0.00    +0.000 C 
ATOM     10  N   UNL     1      44.737   3.417   9.104  0.00  0.00    +0.000 N 
ATOM     11  H   UNL     1      44.586   2.421   9.006  0.00  0.00    +0.000 HD
BRANCH   9  12
ATOM     12  C   UNL     1      46.373   3.213   7.355  0.00  0.00    +0.000 A 
ATOM     13  C   UNL     1      46.782   3.585   6.087  0.00  0.00    +0.000 A 
ATOM     14  N   UNL     1      47.407   2.605   5.338  0.00  0.00    +0.000 NA
ATOM     15  C   UNL     1      47.464   1.498   6.043  0.00  0.00    +0.000 A 
ATOM     16  S   UNL     1      46.793   1.570   7.621  0.00  0.00    +0.000 S 
ENDBRANCH   9  12
ENDBRANCH   7  10
ENDBRANCH   1   7
BRANCH   4  17
ATOM     17  C   UNL     1      47.109   4.849  15.010  0.00  0.00    +0.000 C 
BRANCH  17  18
ATOM     18  N   UNL     1      47.844   6.086  14.969  0.00  0.00    +0.000 N 
ATOM     19  C   UNL     1      48.980   6.273  15.715  0.00  0.00    +0.000 C 
ATOM     20  O   UNL     1      49.453   5.383  16.415  0.00  0.00    +0.000 OA
ATOM     21  H   UNL     1      47.354   6.893  14.598  0.00  0.00    +0.000 HD
BRANCH  19  22
ATOM     22  C   UNL     1      49.637   7.580  15.581  0.00  0.00    +0.000 A 
ATOM     23  C   UNL     1      49.919   8.329  16.714  0.00  0.00    +0.000 A 
ATOM     24  S   UNL     1      50.753   9.781  16.383  0.00  0.00    +0.000 S 
ATOM     25  C   UNL     1      50.711   9.487  14.707  0.00  0.00    +0.000 A 
ATOM     26  N   UNL     1      51.255  10.370  13.828  0.00  0.00    +0.000 NA
ATOM     27  C   UNL     1      51.130  10.035  12.588  0.00  0.00    +0.000 A 
ATOM     28  N   UNL     1      50.509   8.896  12.146  0.00  0.00    +0.000 N 
ATOM     29  C   UNL     1      49.964   7.965  12.997  0.00  0.00    +0.000 A 
ATOM     30  O   UNL     1      49.435   6.944  12.570  0.00  0.00    +0.000 OA
ATOM     31  C   UNL     1      50.082   8.293  14.405  0.00  0.00    +0.000 A 
ATOM     32  H   UNL     1      50.442   8.691  11.161  0.00  0.00    +0.000 HD
ENDBRANCH  19  22
ENDBRANCH  17  18
ENDBRANCH   4  17
TORSDOF 6
ENDMDL
MODEL 7
REMARK VINA RESULT:    -6.466      3.176      3.952
REMARK INTER + INTRA:          -9.872
REMARK INTER:                  -9.159
REMARK INTRA:                  -0.713
REMARK UNBOUND:                -1.138
REMARK  Name = 
REMARK  6 active torsions:
REMARK  status: ('A' for Active; 'I' for Inactive)
REMARK    1  A    between atoms: C_2  and  C_25
REMARK    2  A    between atoms: N_3  and  C_4
REMARK    3  A    between atoms: C_4  and  C_5
REMARK    4  A    between atoms: C_8  and  C_9
REMARK    5  A    between atoms: C_9  and  N_10
REMARK    6  A    between atoms: C_11  and  C_13
REMARK                            x       y       z     vdW  Elec       q    Type
REMARK                         _______ _______ _______ _____ _____    ______ ____
ROOT
ATOM      1  C   UNL     1      44.446   4.491  11.577  0.00  0.00    +0.000 A 
ATOM      2  C   UNL     1      43.826   5.725  11.336  0.00  0.00    +0.000 A 
ATOM      3  C   UNL     1      44.367   6.908  11.851  0.00  0.00    +0.000 A 
ATOM      4  C   UNL     1      45.550   6.883  12.601  0.00  0.00    +0.000 A 
ATOM      5  C   UNL     1      46.162   5.647  12.855  0.00  0.00    +0.000 A 
ATOM      6  C   UNL     1      45.622   4.465  12.340  0.00  0.00    +0.000 A 
ENDROOT
BRANCH   1   7
ATOM      7  C   UNL     1      43.878   3.221  11.006  0.00  0.00    +0.000 C 
BRANCH   7  10
ATOM      8  O   UNL     1      44.377   4.094   8.437  0.00  0.00    +0.000 OA
ATOM      9  C   UNL     1      44.988   3.098   8.821  0.00  0.00    +0.000 C 
ATOM     10  N   UNL     1      44.797   2.592  10.089  0.00  0.00    +0.000 N 
ATOM     11  H   UNL     1      45.349   1.804  10.401  0.00  0.00    +0.000 HD
BRANCH   9  12
ATOM     12  C   UNL     1      45.945   2.402   7.985  0.00  0.00    +0.000 A 
ATOM     13  C   UNL     1      46.259   1.055   8.025  0.00  0.00    +0.000 A 
ATOM     14  N   UNL     1      47.220   0.629   7.128  0.00  0.00    +0.000 NA
ATOM     15  C   UNL     1      47.630   1.656   6.419  0.00  0.00    +0.000 A 
ATOM     16  S   UNL     1      46.890   3.163   6.772  0.00  0.00    +0.000 S 
ENDBRANCH   9  12
ENDBRANCH   7  10
ENDBRANCH   1   7
BRANCH   4  17
ATOM     17  C   UNL     1      46.136   8.151  13.169  0.00  0.00    +0.000 C 
BRANCH  17  18
ATOM     18  N   UNL     1      47.575   8.114  13.134  0.00  0.00    +0.000 N 
ATOM     19  C   UNL     1      48.304   9.068  12.471  0.00  0.00    +0.000 C 
ATOM     20  O   UNL     1      47.772  10.025  11.918  0.00  0.00    +0.000 OA
ATOM     21  H   UNL     1      48.012   7.228  13.369  0.00  0.00    +0.000 HD
BRANCH  19  22
ATOM     22  C   UNL     1      49.764   8.916  12.515  0.00  0.00    +0.000 A 
ATOM     23  C   UNL     1      50.514   9.137  11.368  0.00  0.00    +0.000 A 
ATOM     24  S   UNL     1      52.197   8.994  11.615  0.00  0.00    +0.000 S 
ATOM     25  C   UNL     1      51.978   8.572  13.249  0.00  0.00    +0.000 A 
ATOM     26  N   UNL     1      53.041   8.300  14.051  0.00  0.00    +0.000 NA
ATOM     27  C   UNL     1      52.729   7.969  15.259  0.00  0.00    +0.000 A 
ATOM     28  N   UNL     1      51.448   7.885  15.739  0.00  0.00    +0.000 N 
ATOM     29  C   UNL     1      50.344   8.171  14.973  0.00  0.00    +0.000 A 
ATOM     30  O   UNL     1      49.211   8.109  15.439  0.00  0.00    +0.000 OA
ATOM     31  C   UNL     1      50.641   8.553  13.605  0.00  0.00    +0.000 A 
ATOM     32  H   UNL     1      51.268   7.619  16.695  0.00  0.00    +0.000 HD
ENDBRANCH  19  22
ENDBRANCH  17  18
ENDBRANCH   4  17
TORSDOF 6
ENDMDL
MODEL 8
REMARK VINA RESULT:    -6.396      4.553      7.398
REMARK INTER + INTRA:          -9.777
REMARK INTER:                  -8.925
REMARK INTRA:                  -0.852
REMARK UNBOUND:                -1.138
REMARK  Name = 
REMARK  6 active torsions:
REMARK  status: ('A' for Active; 'I' for Inactive)
REMARK    1  A    between atoms: C_2  and  C_25
REMARK    2  A    between atoms: N_3  and  C_4
REMARK    3  A    between atoms: C_4  and  C_5
REMARK    4  A    between atoms: C_8  and  C_9
REMARK    5  A    between atoms: C_9  and  N_10
REMARK    6  A    between atoms: C_11  and  C_13
REMARK                            x       y       z     vdW  Elec       q    Type
REMARK                         _______ _______ _______ _____ _____    ______ ____
ROOT
ATOM      1  C   UNL     1      50.447   8.997  11.374  0.00  0.00    +0.000 A 
ATOM      2  C   UNL     1      49.939   7.692  11.443  0.00  0.00    +0.000 A 
ATOM      3  C   UNL     1      48.612   7.462  11.820  0.00  0.00    +0.000 A 
ATOM      4  C   UNL     1      47.760   8.534  12.118  0.00  0.00    +0.000 A 
ATOM      5  C   UNL     1      48.273   9.837  12.065  0.00  0.00    +0.000 A 
ATOM      6  C   UNL     1      49.598  10.068  11.688  0.00  0.00    +0.000 A 
ENDROOT
BRANCH   1   7
ATOM      7  C   UNL     1      51.868   9.248  10.948  0.00  0.00    +0.000 C 
BRANCH   7  10
ATOM      8  O   UNL     1      53.817   7.299  10.812  0.00  0.00    +0.000 OA
ATOM      9  C   UNL     1      53.192   7.543   9.781  0.00  0.00    +0.000 C 
ATOM     10  N   UNL     1      52.204   8.504   9.759  0.00  0.00    +0.000 N 
ATOM     11  H   UNL     1      51.669   8.651   8.912  0.00  0.00    +0.000 HD
BRANCH   9  12
ATOM     12  C   UNL     1      53.441   6.844   8.537  0.00  0.00    +0.000 A 
ATOM     13  C   UNL     1      53.133   7.280   7.261  0.00  0.00    +0.000 A 
ATOM     14  N   UNL     1      53.460   6.421   6.229  0.00  0.00    +0.000 NA
ATOM     15  C   UNL     1      54.011   5.339   6.731  0.00  0.00    +0.000 A 
ATOM     16  S   UNL     1      54.175   5.296   8.438  0.00  0.00    +0.000 S 
ENDBRANCH   9  12
ENDBRANCH   7  10
ENDBRANCH   1   7
BRANCH   4  17
ATOM     17  C   UNL     1      46.331   8.296  12.536  0.00  0.00    +0.000 C 
BRANCH  17  18
ATOM     18  N   UNL     1      45.932   6.941  12.256  0.00  0.00    +0.000 N 
ATOM     19  C   UNL     1      44.733   6.653  11.655  0.00  0.00    +0.000 C 
ATOM     20  O   UNL     1      43.964   7.533  11.282  0.00  0.00    +0.000 OA
ATOM     21  H   UNL     1      46.424   6.210  12.759  0.00  0.00    +0.000 HD
BRANCH  19  22
ATOM     22  C   UNL     1      44.448   5.231  11.424  0.00  0.00    +0.000 A 
ATOM     23  C   UNL     1      43.719   4.513  12.362  0.00  0.00    +0.000 A 
ATOM     24  S   UNL     1      43.412   2.900  11.898  0.00  0.00    +0.000 S 
ATOM     25  C   UNL     1      44.295   3.087  10.455  0.00  0.00    +0.000 A 
ATOM     26  N   UNL     1      44.438   2.055   9.583  0.00  0.00    +0.000 NA
ATOM     27  C   UNL     1      45.153   2.329   8.544  0.00  0.00    +0.000 A 
ATOM     28  N   UNL     1      45.739   3.543   8.297  0.00  0.00    +0.000 N 
ATOM     29  C   UNL     1      45.605   4.621   9.139  0.00  0.00    +0.000 A 
ATOM     30  O   UNL     1      46.124   5.701   8.878  0.00  0.00    +0.000 OA
ATOM     31  C   UNL     1      44.806   4.366  10.323  0.00  0.00    +0.000 A 
ATOM     32  H   UNL     1      46.289   3.695   7.466  0.00  0.00    +0.000 HD
ENDBRANCH  19  22
ENDBRANCH  17  18
ENDBRANCH   4  17
TORSDOF 6
ENDMDL
MODEL 9
REMARK VINA RESULT:    -6.117      3.336      5.102
REMARK INTER + INTRA:          -9.400
REMARK INTER:                  -8.440
REMARK INTRA:                  -0.960
REMARK UNBOUND:                -1.138
REMARK  Name = 
REMARK  6 active torsions:
REMARK  status: ('A' for Active; 'I' for Inactive)
REMARK    1  A    between atoms: C_2  and  C_25
REMARK    2  A    between atoms: N_3  and  C_4
REMARK    3  A    between atoms: C_4  and  C_5
REMARK    4  A    between atoms: C_8  and  C_9
REMARK    5  A    between atoms: C_9  and  N_10
REMARK    6  A    between atoms: C_11  and  C_13
REMARK                            x       y       z     vdW  Elec       q    Type
REMARK                         _______ _______ _______ _____ _____    ______ ____
ROOT
ATOM      1  C   UNL     1      45.520   4.201  12.165  0.00  0.00    +0.000 A 
ATOM      2  C   UNL     1      46.185   3.621  13.253  0.00  0.00    +0.000 A 
ATOM      3  C   UNL     1      47.043   4.383  14.054  0.00  0.00    +0.000 A 
ATOM      4  C   UNL     1      47.238   5.746  13.793  0.00  0.00    +0.000 A 
ATOM      5  C   UNL     1      46.585   6.322  12.694  0.00  0.00    +0.000 A 
ATOM      6  C   UNL     1      45.727   5.561  11.895  0.00  0.00    +0.000 A 
ENDROOT
BRANCH   1   7
ATOM      7  C   UNL     1      44.580   3.388  11.316  0.00  0.00    +0.000 C 
BRANCH   7  10
ATOM      8  O   UNL     1      44.658   4.326   8.722  0.00  0.00    +0.000 OA
ATOM      9  C   UNL     1      45.262   3.282   8.961  0.00  0.00    +0.000 C 
ATOM     10  N   UNL     1      45.272   2.741  10.229  0.00  0.00    +0.000 N 
ATOM     11  H   UNL     1      45.819   1.909  10.412  0.00  0.00    +0.000 HD
BRANCH   9  12
ATOM     12  C   UNL     1      46.001   2.561   7.945  0.00  0.00    +0.000 A 
ATOM     13  C   UNL     1      46.382   1.232   7.980  0.00  0.00    +0.000 A 
ATOM     14  N   UNL     1      47.096   0.776   6.887  0.00  0.00    +0.000 NA
ATOM     15  C   UNL     1      47.254   1.763   6.036  0.00  0.00    +0.000 A 
ATOM     16  S   UNL     1      46.557   3.266   6.483  0.00  0.00    +0.000 S 
ENDBRANCH   9  12
ENDBRANCH   7  10
ENDBRANCH   1   7
BRANCH   4  17
ATOM     17  C   UNL     1      48.168   6.573  14.643  0.00  0.00    +0.000 C 
BRANCH  17  18
ATOM     18  N   UNL     1      49.124   7.275  13.826  0.00  0.00    +0.000 N 
ATOM     19  C   UNL     1      50.091   8.076  14.377  0.00  0.00    +0.000 C 
ATOM     20  O   UNL     1      50.223   8.196  15.591  0.00  0.00    +0.000 OA
ATOM     21  H   UNL     1      48.891   7.381  12.844  0.00  0.00    +0.000 HD
BRANCH  19  22
ATOM     22  C   UNL     1      51.005   8.733  13.434  0.00  0.00    +0.000 A 
ATOM     23  C   UNL     1      52.375   8.542  13.555  0.00  0.00    +0.000 A 
ATOM     24  S   UNL     1      53.282   9.313  12.332  0.00  0.00    +0.000 S 
ATOM     25  C   UNL     1      51.880   9.978  11.634  0.00  0.00    +0.000 A 
ATOM     26  N   UNL     1      51.956  10.772  10.533  0.00  0.00    +0.000 NA
ATOM     27  C   UNL     1      50.819  11.229  10.125  0.00  0.00    +0.000 A 
ATOM     28  N   UNL     1      49.613  10.964  10.718  0.00  0.00    +0.000 N 
ATOM     29  C   UNL     1      49.485  10.151  11.819  0.00  0.00    +0.000 A 
ATOM     30  O   UNL     1      48.388   9.916  12.312  0.00  0.00    +0.000 OA
ATOM     31  C   UNL     1      50.735   9.608  12.316  0.00  0.00    +0.000 A 
ATOM     32  H   UNL     1      48.757  11.354  10.352  0.00  0.00    +0.000 HD
ENDBRANCH  19  22
ENDBRANCH  17  18
ENDBRANCH   4  17
TORSDOF 6
ENDMDL
