MODEL 1
REMARK VINA RESULT:    -8.690      0.000      0.000
REMARK INTER + INTRA:         -14.604
REMARK INTER:                 -13.516
REMARK INTRA:                  -1.088
REMARK UNBOUND:                -1.088
REMARK  Name = 
REMARK  10 active torsions:
REMARK  status: ('A' for Active; 'I' for Inactive)
REMARK    1  A    between atoms: N_1  and  C_2
REMARK    2  A    between atoms: C_2  and  C_3
REMARK    3  A    between atoms: C_3  and  N_4
REMARK    4  A    between atoms: C_3  and  C_21
REMARK    5  A    between atoms: N_4  and  C_5
REMARK    6  A    between atoms: C_5  and  C_6
REMARK    7  A    between atoms: C_9  and  C_10
REMARK    8  A    between atoms: C_10  and  N_11
REMARK    9  A    between atoms: N_11  and  C_12
REMARK   10  A    between atoms: C_12  and  C_13
REMARK                            x       y       z     vdW  Elec       q    Type
REMARK                         _______ _______ _______ _____ _____    ______ ____
ROOT
ATOM      1  N   UNL     1      48.298   4.288  15.894  0.00  0.00    +0.000 NA
ATOM      2  H   UNL     1      47.717   3.535  15.523  0.00  0.00    +0.000 HD
ENDROOT
BRANCH   1   3
ATOM      3  C   UNL     1      48.217   4.310  17.369  0.00  0.00    +0.000 C 
BRANCH   3   4
ATOM      4  C   UNL     1      49.660   4.153  17.871  0.00  0.00    +0.000 A 
ATOM      5  C   UNL     1      50.279   5.108  18.669  0.00  0.00    +0.000 A 
ATOM      6  S   UNL     1      51.886   4.737  19.071  0.00  0.00    +0.000 S 
ATOM      7  C   UNL     1      51.815   3.259  18.235  0.00  0.00    +0.000 A 
ATOM      8  N   UNL     1      52.894   2.433  18.217  0.00  0.00    +0.000 NA
ATOM      9  C   UNL     1      52.711   1.324  17.586  0.00  0.00    +0.000 A 
ATOM     10  N   UNL     1      51.539   0.974  16.955  0.00  0.00    +0.000 N 
ATOM     11  C   UNL     1      50.447   1.808  16.889  0.00  0.00    +0.000 A 
ATOM     12  O   UNL     1      49.453   1.491  16.235  0.00  0.00    +0.000 OA
ATOM     13  C   UNL     1      50.583   3.054  17.630  0.00  0.00    +0.000 A 
ATOM     14  H   UNL     1      51.472   0.097  16.466  0.00  0.00    +0.000 HD
ENDBRANCH   3   4
BRANCH   3  15
ATOM     15  C   UNL     1      47.584   5.622  17.960  0.00  0.00    +0.000 C 
BRANCH  15  16
ATOM     16  N   UNL     1      46.383   5.443  18.793  0.00  0.00    +0.000 NA
ATOM     17  H   UNL     1      46.122   4.460  18.817  0.00  0.00    +0.000 HD
ATOM     18  H   UNL     1      45.603   5.959  18.391  0.00  0.00    +0.000 HD
ENDBRANCH  15  16
ENDBRANCH   3  15
ENDBRANCH   1   3
BRANCH   1  19
ATOM     19  C   UNL     1      47.885   5.525  15.231  0.00  0.00    +0.000 C 
BRANCH  19  20
ATOM     20  C   UNL     1      47.070   5.243  13.984  0.00  0.00    +0.000 A 
ATOM     21  C   UNL     1      47.148   6.111  12.896  0.00  0.00    +0.000 A 
ATOM     22  C   UNL     1      46.346   5.869  11.785  0.00  0.00    +0.000 A 
ATOM     23  C   UNL     1      45.492   4.762  11.779  0.00  0.00    +0.000 A 
ATOM     24  C   UNL     1      45.489   3.952  12.910  0.00  0.00    +0.000 A 
ATOM     25  N   UNL     1      46.252   4.159  14.005  0.00  0.00    +0.000 NA
BRANCH  23  26
ATOM     26  C   UNL     1      44.589   4.437  10.619  0.00  0.00    +0.000 C 
BRANCH  26  27
ATOM     27  N   UNL     1      45.216   4.810   9.358  0.00  0.00    +0.000 NA
ATOM     28  H   UNL     1      46.226   4.696   9.445  0.00  0.00    +0.000 HD
BRANCH  27  29
ATOM     29  C   UNL     1      44.747   3.997   8.240  0.00  0.00    +0.000 C 
BRANCH  29  30
ATOM     30  C   UNL     1      45.840   3.057   7.791  0.00  0.00    +0.000 A 
ATOM     31  C   UNL     1      46.836   3.471   6.900  0.00  0.00    +0.000 A 
ATOM     32  C   UNL     1      47.801   2.556   6.505  0.00  0.00    +0.000 A 
ATOM     33  N   UNL     1      47.848   1.278   6.937  0.00  0.00    +0.000 NA
ATOM     34  C   UNL     1      46.879   0.897   7.797  0.00  0.00    +0.000 A 
ATOM     35  C   UNL     1      45.871   1.734   8.246  0.00  0.00    +0.000 A 
ENDBRANCH  29  30
ENDBRANCH  27  29
ENDBRANCH  26  27
ENDBRANCH  23  26
ENDBRANCH  19  20
ENDBRANCH   1  19
TORSDOF 10
ENDMDL
MODEL 2
REMARK VINA RESULT:    -8.197      1.785      2.557
REMARK INTER + INTRA:         -13.837
REMARK INTER:                 -12.589
REMARK INTRA:                  -1.247
REMARK UNBOUND:                -1.088
REMARK  Name = 
REMARK  10 active torsions:
REMARK  status: ('A' for Active; 'I' for Inactive)
REMARK    1  A    between atoms: N_1  and  C_2
REMARK    2  A    between atoms: C_2  and  C_3
REMARK    3  A    between atoms: C_3  and  N_4
REMARK    4  A    between atoms: C_3  and  C_21
REMARK    5  A    between atoms: N_4  and  C_5
REMARK    6  A    between atoms: C_5  and  C_6
REMARK    7  A    between atoms: C_9  and  C_10
REMARK    8  A    between atoms: C_10  and  N_11
REMARK    9  A    between atoms: N_11  and  C_12
REMARK   10  A    between atoms: C_12  and  C_13
REMARK                            x       y       z     vdW  Elec       q    Type
REMARK                         _______ _______ _______ _____ _____    ______ ____
ROOT
ATOM      1  N   UNL     1      47.174   5.013  15.756  0.00  0.00    +0.000 NA
ATOM      2  H   UNL     1      46.764   5.677  16.415  0.00  0.00    +0.000 HD
ENDROOT
BRANCH   1   3
ATOM      3  C   UNL     1      48.277   4.274  16.405  0.00  0.00    +0.000 C 
BRANCH   3   4
ATOM      4  C   UNL     1      48.355   4.813  17.841  0.00  0.00    +0.000 A 
ATOM      5  C   UNL     1      47.276   5.427  18.466  0.00  0.00    +0.000 A 
ATOM      6  S   UNL     1      47.608   5.976  20.038  0.00  0.00    +0.000 S 
ATOM      7  C   UNL     1      49.197   5.375  19.974  0.00  0.00    +0.000 A 
ATOM      8  N   UNL     1      50.020   5.507  21.048  0.00  0.00    +0.000 NA
ATOM      9  C   UNL     1      51.187   4.981  20.899  0.00  0.00    +0.000 A 
ATOM     10  N   UNL     1      51.609   4.341  19.756  0.00  0.00    +0.000 N 
ATOM     11  C   UNL     1      50.835   4.246  18.622  0.00  0.00    +0.000 A 
ATOM     12  O   UNL     1      51.289   3.745  17.593  0.00  0.00    +0.000 OA
ATOM     13  C   UNL     1      49.487   4.780  18.755  0.00  0.00    +0.000 A 
ATOM     14  H   UNL     1      52.542   3.967  19.703  0.00  0.00    +0.000 HD
ENDBRANCH   3   4
BRANCH   3  15
ATOM     15  C   UNL     1      48.081   2.714  16.429  0.00  0.00    +0.000 C 
BRANCH  15  16
ATOM     16  N   UNL     1      49.274   1.907  16.123  0.00  0.00    +0.000 NA
ATOM     17  H   UNL     1      49.457   1.924  15.122  0.00  0.00    +0.000 HD
ATOM     18  H   UNL     1      49.115   0.938  16.390  0.00  0.00    +0.000 HD
ENDBRANCH  15  16
ENDBRANCH   3  15
ENDBRANCH   1   3
BRANCH   1  19
ATOM     19  C   UNL     1      47.550   5.762  14.558  0.00  0.00    +0.000 C 
BRANCH  19  20
ATOM     20  C   UNL     1      46.600   5.488  13.409  0.00  0.00    +0.000 A 
ATOM     21  C   UNL     1      46.741   6.188  12.211  0.00  0.00    +0.000 A 
ATOM     22  C   UNL     1      45.821   5.967  11.191  0.00  0.00    +0.000 A 
ATOM     23  C   UNL     1      44.787   5.047  11.383  0.00  0.00    +0.000 A 
ATOM     24  C   UNL     1      44.733   4.395  12.610  0.00  0.00    +0.000 A 
ATOM     25  N   UNL     1      45.607   4.587  13.621  0.00  0.00    +0.000 NA
BRANCH  23  26
ATOM     26  C   UNL     1      43.750   4.758  10.331  0.00  0.00    +0.000 C 
BRANCH  26  27
ATOM     27  N   UNL     1      44.376   4.270   9.110  0.00  0.00    +0.000 NA
ATOM     28  H   UNL     1      45.306   4.682   9.027  0.00  0.00    +0.000 HD
BRANCH  27  29
ATOM     29  C   UNL     1      44.504   2.816   9.090  0.00  0.00    +0.000 C 
BRANCH  29  30
ATOM     30  C   UNL     1      45.706   2.415   8.267  0.00  0.00    +0.000 A 
ATOM     31  C   UNL     1      46.443   3.361   7.547  0.00  0.00    +0.000 A 
ATOM     32  C   UNL     1      47.523   2.930   6.790  0.00  0.00    +0.000 A 
ATOM     33  N   UNL     1      47.919   1.643   6.709  0.00  0.00    +0.000 NA
ATOM     34  C   UNL     1      47.195   0.744   7.410  0.00  0.00    +0.000 A 
ATOM     35  C   UNL     1      46.099   1.075   8.191  0.00  0.00    +0.000 A 
ENDBRANCH  29  30
ENDBRANCH  27  29
ENDBRANCH  26  27
ENDBRANCH  23  26
ENDBRANCH  19  20
ENDBRANCH   1  19
TORSDOF 10
ENDMDL
MODEL 3
REMARK VINA RESULT:    -7.552      2.068      2.511
REMARK INTER + INTRA:         -12.835
REMARK INTER:                 -11.527
REMARK INTRA:                  -1.308
REMARK UNBOUND:                -1.088
REMARK  Name = 
REMARK  10 active torsions:
REMARK  status: ('A' for Active; 'I' for Inactive)
REMARK    1  A    between atoms: N_1  and  C_2
REMARK    2  A    between atoms: C_2  and  C_3
REMARK    3  A    between atoms: C_3  and  N_4
REMARK    4  A    between atoms: C_3  and  C_21
REMARK    5  A    between atoms: N_4  and  C_5
REMARK    6  A    between atoms: C_5  and  C_6
REMARK    7  A    between atoms: C_9  and  C_10
REMARK    8  A    between atoms: C_10  and  N_11
REMARK    9  A    between atoms: N_11  and  C_12
REMARK   10  A    between atoms: C_12  and  C_13
REMARK                            x       y       z     vdW  Elec       q    Type
REMARK                         _______ _______ _______ _____ _____    ______ ____
ROOT
ATOM      1  N   UNL     1      48.359   5.794  14.696  0.00  0.00    +0.000 NA
ATOM      2  H   UNL     1      47.515   5.294  14.979  0.00  0.00    +0.000 HD
ENDROOT
BRANCH   1   3
ATOM      3  C   UNL     1      48.682   6.843  15.686  0.00  0.00    +0.000 C 
BRANCH   3   4
ATOM      4  C   UNL     1      50.125   6.569  16.133  0.00  0.00    +0.000 A 
ATOM      5  C   UNL     1      51.183   7.400  15.785  0.00  0.00    +0.000 A 
ATOM      6  S   UNL     1      52.692   6.877  16.362  0.00  0.00    +0.000 S 
ATOM      7  C   UNL     1      51.994   5.539  17.144  0.00  0.00    +0.000 A 
ATOM      8  N   UNL     1      52.772   4.684  17.859  0.00  0.00    +0.000 NA
ATOM      9  C   UNL     1      52.129   3.730  18.439  0.00  0.00    +0.000 A 
ATOM     10  N   UNL     1      50.768   3.547  18.354  0.00  0.00    +0.000 N 
ATOM     11  C   UNL     1      49.952   4.346  17.586  0.00  0.00    +0.000 A 
ATOM     12  O   UNL     1      48.754   4.090  17.468  0.00  0.00    +0.000 OA
ATOM     13  C   UNL     1      50.622   5.472  16.950  0.00  0.00    +0.000 A 
ATOM     14  H   UNL     1      50.334   2.768  18.821  0.00  0.00    +0.000 HD
ENDBRANCH   3   4
BRANCH   3  15
ATOM     15  C   UNL     1      48.562   8.310  15.132  0.00  0.00    +0.000 C 
BRANCH  15  16
ATOM     16  N   UNL     1      47.625   9.195  15.844  0.00  0.00    +0.000 NA
ATOM     17  H   UNL     1      47.517   8.884  16.806  0.00  0.00    +0.000 HD
ATOM     18  H   UNL     1      46.709   9.157  15.403  0.00  0.00    +0.000 HD
ENDBRANCH  15  16
ENDBRANCH   3  15
ENDBRANCH   1   3
BRANCH   1  19
ATOM     19  C   UNL     1      48.145   6.274  13.331  0.00  0.00    +0.000 C 
BRANCH  19  20
ATOM     20  C   UNL     1      46.873   5.705  12.734  0.00  0.00    +0.000 A 
ATOM     21  C   UNL     1      46.253   4.613  13.340  0.00  0.00    +0.000 A 
ATOM     22  C   UNL     1      45.121   4.066  12.743  0.00  0.00    +0.000 A 
ATOM     23  C   UNL     1      44.627   4.626  11.561  0.00  0.00    +0.000 A 
ATOM     24  C   UNL     1      45.312   5.716  11.036  0.00  0.00    +0.000 A 
ATOM     25  N   UNL     1      46.413   6.270  11.588  0.00  0.00    +0.000 NA
BRANCH  23  26
ATOM     26  C   UNL     1      43.414   4.087  10.852  0.00  0.00    +0.000 C 
BRANCH  26  27
ATOM     27  N   UNL     1      43.756   3.649   9.505  0.00  0.00    +0.000 NA
ATOM     28  H   UNL     1      44.339   4.361   9.064  0.00  0.00    +0.000 HD
BRANCH  27  29
ATOM     29  C   UNL     1      44.478   2.380   9.497  0.00  0.00    +0.000 C 
BRANCH  29  30
ATOM     30  C   UNL     1      45.611   2.438   8.501  0.00  0.00    +0.000 A 
ATOM     31  C   UNL     1      45.982   3.640   7.889  0.00  0.00    +0.000 A 
ATOM     32  C   UNL     1      47.016   3.628   6.964  0.00  0.00    +0.000 A 
ATOM     33  N   UNL     1      47.702   2.519   6.617  0.00  0.00    +0.000 NA
ATOM     34  C   UNL     1      47.330   1.368   7.217  0.00  0.00    +0.000 A 
ATOM     35  C   UNL     1      46.309   1.277   8.150  0.00  0.00    +0.000 A 
ENDBRANCH  29  30
ENDBRANCH  27  29
ENDBRANCH  26  27
ENDBRANCH  23  26
ENDBRANCH  19  20
ENDBRANCH   1  19
TORSDOF 10
ENDMDL
MODEL 4
REMARK VINA RESULT:    -7.498      3.813      4.894
REMARK INTER + INTRA:         -12.751
REMARK INTER:                 -11.132
REMARK INTRA:                  -1.618
REMARK UNBOUND:                -1.088
REMARK  Name = 
REMARK  10 active torsions:
REMARK  status: ('A' for Active; 'I' for Inactive)
REMARK    1  A    between atoms: N_1  and  C_2
REMARK    2  A    between atoms: C_2  and  C_3
REMARK    3  A    between atoms: C_3  and  N_4
REMARK    4  A    between atoms: C_3  and  C_21
REMARK    5  A    between atoms: N_4  and  C_5
REMARK    6  A    between atoms: C_5  and  C_6
REMARK    7  A    between atoms: C_9  and  C_10
REMARK    8  A    between atoms: C_10  and  N_11
REMARK    9  A    between atoms: N_11  and  C_12
REMARK   10  A    between atoms: C_12  and  C_13
REMARK                            x       y       z     vdW  Elec       q    Type
REMARK                         _______ _______ _______ _____ _____    ______ ____
ROOT
ATOM      1  N   UNL     1      48.536   6.467  13.998  0.00  0.00    +0.000 NA
ATOM      2  H   UNL     1      49.333   5.995  13.568  0.00  0.00    +0.000 HD
ENDROOT
BRANCH   1   3
ATOM      3  C   UNL     1      49.006   7.419  15.027  0.00  0.00    +0.000 C 
BRANCH   3   4
ATOM      4  C   UNL     1      50.432   7.811  14.614  0.00  0.00    +0.000 A 
ATOM      5  C   UNL     1      51.511   7.718  15.485  0.00  0.00    +0.000 A 
ATOM      6  S   UNL     1      52.983   8.243  14.819  0.00  0.00    +0.000 S 
ATOM      7  C   UNL     1      52.253   8.575  13.321  0.00  0.00    +0.000 A 
ATOM      8  N   UNL     1      53.002   9.042  12.286  0.00  0.00    +0.000 NA
ATOM      9  C   UNL     1      52.350   9.221  11.189  0.00  0.00    +0.000 A 
ATOM     10  N   UNL     1      51.002   8.985  11.040  0.00  0.00    +0.000 N 
ATOM     11  C   UNL     1      50.194   8.580  12.077  0.00  0.00    +0.000 A 
ATOM     12  O   UNL     1      48.978   8.470  11.920  0.00  0.00    +0.000 OA
ATOM     13  C   UNL     1      50.891   8.313  13.328  0.00  0.00    +0.000 A 
ATOM     14  H   UNL     1      50.554   9.163  10.157  0.00  0.00    +0.000 HD
ENDBRANCH   3   4
BRANCH   3  15
ATOM     15  C   UNL     1      48.115   8.707  15.168  0.00  0.00    +0.000 C 
BRANCH  15  16
ATOM     16  N   UNL     1      46.992   8.823  14.223  0.00  0.00    +0.000 NA
ATOM     17  H   UNL     1      46.975   8.016  13.604  0.00  0.00    +0.000 HD
ATOM     18  H   UNL     1      47.110   9.652  13.645  0.00  0.00    +0.000 HD
ENDBRANCH  15  16
ENDBRANCH   3  15
ENDBRANCH   1   3
BRANCH   1  19
ATOM     19  C   UNL     1      47.623   5.431  14.481  0.00  0.00    +0.000 C 
BRANCH  19  20
ATOM     20  C   UNL     1      46.555   5.107  13.454  0.00  0.00    +0.000 A 
ATOM     21  C   UNL     1      46.178   3.782  13.243  0.00  0.00    +0.000 A 
ATOM     22  C   UNL     1      45.242   3.499  12.253  0.00  0.00    +0.000 A 
ATOM     23  C   UNL     1      44.696   4.544  11.503  0.00  0.00    +0.000 A 
ATOM     24  C   UNL     1      45.133   5.833  11.791  0.00  0.00    +0.000 A 
ATOM     25  N   UNL     1      46.040   6.142  12.742  0.00  0.00    +0.000 NA
BRANCH  23  26
ATOM     26  C   UNL     1      43.685   4.319  10.411  0.00  0.00    +0.000 C 
BRANCH  26  27
ATOM     27  N   UNL     1      44.177   3.347   9.444  0.00  0.00    +0.000 NA
ATOM     28  H   UNL     1      43.387   2.811   9.083  0.00  0.00    +0.000 HD
BRANCH  27  29
ATOM     29  C   UNL     1      44.869   3.976   8.322  0.00  0.00    +0.000 C 
BRANCH  29  30
ATOM     30  C   UNL     1      45.879   3.018   7.737  0.00  0.00    +0.000 A 
ATOM     31  C   UNL     1      46.007   1.711   8.218  0.00  0.00    +0.000 A 
ATOM     32  C   UNL     1      46.968   0.883   7.657  0.00  0.00    +0.000 A 
ATOM     33  N   UNL     1      47.793   1.259   6.657  0.00  0.00    +0.000 NA
ATOM     34  C   UNL     1      47.655   2.524   6.205  0.00  0.00    +0.000 A 
ATOM     35  C   UNL     1      46.729   3.426   6.703  0.00  0.00    +0.000 A 
ENDBRANCH  29  30
ENDBRANCH  27  29
ENDBRANCH  26  27
ENDBRANCH  23  26
ENDBRANCH  19  20
ENDBRANCH   1  19
TORSDOF 10
ENDMDL
MODEL 5
REMARK VINA RESULT:    -7.486      2.715      3.880
REMARK INTER + INTRA:         -12.732
REMARK INTER:                 -11.313
REMARK INTRA:                  -1.419
REMARK UNBOUND:                -1.088
REMARK  Name = 
REMARK  10 active torsions:
REMARK  status: ('A' for Active; 'I' for Inactive)
REMARK    1  A    between atoms: N_1  and  C_2
REMARK    2  A    between atoms: C_2  and  C_3
REMARK    3  A    between atoms: C_3  and  N_4
REMARK    4  A    between atoms: C_3  and  C_21
REMARK    5  A    between atoms: N_4  and  C_5
REMARK    6  A    between atoms: C_5  and  C_6
REMARK    7  A    between atoms: C_9  and  C_10
REMARK    8  A    between atoms: C_10  and  N_11
REMARK    9  A    between atoms: N_11  and  C_12
REMARK   10  A    between atoms: C_12  and  C_13
REMARK                            x       y       z     vdW  Elec       q    Type
REMARK                         _______ _______ _______ _____ _____    ______ ____
ROOT
ATOM      1  N   UNL     1      47.193   7.918  14.151  0.00  0.00    +0.000 NA
ATOM      2  H   UNL     1      46.602   8.210  14.931  0.00  0.00    +0.000 HD
ENDROOT
BRANCH   1   3
ATOM      3  C   UNL     1      48.499   8.606  14.222  0.00  0.00    +0.000 C 
BRANCH   3   4
ATOM      4  C   UNL     1      48.919   8.558  15.698  0.00  0.00    +0.000 A 
ATOM      5  C   UNL     1      49.285   9.697  16.406  0.00  0.00    +0.000 A 
ATOM      6  S   UNL     1      49.745   9.395  18.012  0.00  0.00    +0.000 S 
ATOM      7  C   UNL     1      49.432   7.732  17.850  0.00  0.00    +0.000 A 
ATOM      8  N   UNL     1      49.609   6.898  18.909  0.00  0.00    +0.000 NA
ATOM      9  C   UNL     1      49.304   5.667  18.680  0.00  0.00    +0.000 A 
ATOM     10  N   UNL     1      48.846   5.192  17.472  0.00  0.00    +0.000 N 
ATOM     11  C   UNL     1      48.718   5.987  16.356  0.00  0.00    +0.000 A 
ATOM     12  O   UNL     1      48.392   5.500  15.273  0.00  0.00    +0.000 OA
ATOM     13  C   UNL     1      49.001   7.399  16.574  0.00  0.00    +0.000 A 
ATOM     14  H   UNL     1      48.642   4.213  17.359  0.00  0.00    +0.000 HD
ENDBRANCH   3   4
BRANCH   3  15
ATOM     15  C   UNL     1      49.618   7.958  13.326  0.00  0.00    +0.000 C 
BRANCH  15  16
ATOM     16  N   UNL     1      49.370   6.577  12.880  0.00  0.00    +0.000 NA
ATOM     17  H   UNL     1      49.305   5.959  13.685  0.00  0.00    +0.000 HD
ATOM     18  H   UNL     1      50.145   6.254  12.305  0.00  0.00    +0.000 HD
ENDBRANCH  15  16
ENDBRANCH   3  15
ENDBRANCH   1   3
BRANCH   1  19
ATOM     19  C   UNL     1      46.437   8.147  12.920  0.00  0.00    +0.000 C 
BRANCH  19  20
ATOM     20  C   UNL     1      45.750   6.882  12.445  0.00  0.00    +0.000 A 
ATOM     21  C   UNL     1      44.647   6.969  11.597  0.00  0.00    +0.000 A 
ATOM     22  C   UNL     1      43.993   5.800  11.222  0.00  0.00    +0.000 A 
ATOM     23  C   UNL     1      44.459   4.569  11.692  0.00  0.00    +0.000 A 
ATOM     24  C   UNL     1      45.569   4.584  12.529  0.00  0.00    +0.000 A 
ATOM     25  N   UNL     1      46.225   5.699  12.914  0.00  0.00    +0.000 NA
BRANCH  23  26
ATOM     26  C   UNL     1      43.802   3.262  11.338  0.00  0.00    +0.000 C 
BRANCH  26  27
ATOM     27  N   UNL     1      44.661   2.473  10.465  0.00  0.00    +0.000 NA
ATOM     28  H   UNL     1      44.486   1.482  10.637  0.00  0.00    +0.000 HD
BRANCH  27  29
ATOM     29  C   UNL     1      44.429   2.752   9.051  0.00  0.00    +0.000 C 
BRANCH  29  30
ATOM     30  C   UNL     1      45.658   2.399   8.247  0.00  0.00    +0.000 A 
ATOM     31  C   UNL     1      46.109   1.079   8.149  0.00  0.00    +0.000 A 
ATOM     32  C   UNL     1      47.257   0.818   7.416  0.00  0.00    +0.000 A 
ATOM     33  N   UNL     1      47.972   1.767   6.775  0.00  0.00    +0.000 NA
ATOM     34  C   UNL     1      47.521   3.035   6.881  0.00  0.00    +0.000 A 
ATOM     35  C   UNL     1      46.389   3.396   7.593  0.00  0.00    +0.000 A 
ENDBRANCH  29  30
ENDBRANCH  27  29
ENDBRANCH  26  27
ENDBRANCH  23  26
ENDBRANCH  19  20
ENDBRANCH   1  19
TORSDOF 10
ENDMDL
MODEL 6
REMARK VINA RESULT:    -7.430      2.867      3.965
REMARK INTER + INTRA:         -12.645
REMARK INTER:                 -11.770
REMARK INTRA:                  -0.875
REMARK UNBOUND:                -1.088
REMARK  Name = 
REMARK  10 active torsions:
REMARK  status: ('A' for Active; 'I' for Inactive)
REMARK    1  A    between atoms: N_1  and  C_2
REMARK    2  A    between atoms: C_2  and  C_3
REMARK    3  A    between atoms: C_3  and  N_4
REMARK    4  A    between atoms: C_3  and  C_21
REMARK    5  A    between atoms: N_4  and  C_5
REMARK    6  A    between atoms: C_5  and  C_6
REMARK    7  A    between atoms: C_9  and  C_10
REMARK    8  A    between atoms: C_10  and  N_11
REMARK    9  A    between atoms: N_11  and  C_12
REMARK   10  A    between atoms: C_12  and  C_13
REMARK                            x       y       z     vdW  Elec       q    Type
REMARK                         _______ _______ _______ _____ _____    ______ ____
ROOT
ATOM      1  N   UNL     1      48.360   5.862  14.852  0.00  0.00    +0.000 NA
ATOM      2  H   UNL     1      47.712   5.212  15.301  0.00  0.00    +0.000 HD
ENDROOT
BRANCH   1   3
ATOM      3  C   UNL     1      48.976   6.742  15.868  0.00  0.00    +0.000 C 
BRANCH   3   4
ATOM      4  C   UNL     1      48.772   6.034  17.215  0.00  0.00    +0.000 A 
ATOM      5  C   UNL     1      49.063   4.688  17.401  0.00  0.00    +0.000 A 
ATOM      6  S   UNL     1      48.723   4.116  18.963  0.00  0.00    +0.000 S 
ATOM      7  C   UNL     1      48.215   5.654  19.478  0.00  0.00    +0.000 A 
ATOM      8  N   UNL     1      47.810   5.844  20.761  0.00  0.00    +0.000 NA
ATOM      9  C   UNL     1      47.484   7.058  21.048  0.00  0.00    +0.000 A 
ATOM     10  N   UNL     1      47.516   8.102  20.152  0.00  0.00    +0.000 N 
ATOM     11  C   UNL     1      47.853   7.942  18.827  0.00  0.00    +0.000 A 
ATOM     12  O   UNL     1      47.779   8.887  18.042  0.00  0.00    +0.000 OA
ATOM     13  C   UNL     1      48.278   6.598  18.463  0.00  0.00    +0.000 A 
ATOM     14  H   UNL     1      47.232   9.024  20.440  0.00  0.00    +0.000 HD
ENDBRANCH   3   4
BRANCH   3  15
ATOM     15  C   UNL     1      50.506   7.021  15.636  0.00  0.00    +0.000 C 
BRANCH  15  16
ATOM     16  N   UNL     1      50.866   7.607  14.333  0.00  0.00    +0.000 NA
ATOM     17  H   UNL     1      50.316   7.175  13.595  0.00  0.00    +0.000 HD
ATOM     18  H   UNL     1      51.847   7.427  14.132  0.00  0.00    +0.000 HD
ENDBRANCH  15  16
ENDBRANCH   3  15
ENDBRANCH   1   3
BRANCH   1  19
ATOM     19  C   UNL     1      47.623   6.555  13.796  0.00  0.00    +0.000 C 
BRANCH  19  20
ATOM     20  C   UNL     1      46.591   5.649  13.152  0.00  0.00    +0.000 A 
ATOM     21  C   UNL     1      46.684   4.268  13.316  0.00  0.00    +0.000 A 
ATOM     22  C   UNL     1      45.764   3.451  12.667  0.00  0.00    +0.000 A 
ATOM     23  C   UNL     1      44.766   4.029  11.877  0.00  0.00    +0.000 A 
ATOM     24  C   UNL     1      44.753   5.416  11.778  0.00  0.00    +0.000 A 
ATOM     25  N   UNL     1      45.631   6.238  12.392  0.00  0.00    +0.000 NA
BRANCH  23  26
ATOM     26  C   UNL     1      43.740   3.213  11.137  0.00  0.00    +0.000 C 
BRANCH  26  27
ATOM     27  N   UNL     1      44.370   2.411  10.097  0.00  0.00    +0.000 NA
ATOM     28  H   UNL     1      43.768   1.616   9.882  0.00  0.00    +0.000 HD
BRANCH  27  29
ATOM     29  C   UNL     1      44.601   3.169   8.870  0.00  0.00    +0.000 C 
BRANCH  29  30
ATOM     30  C   UNL     1      45.783   2.596   8.125  0.00  0.00    +0.000 A 
ATOM     31  C   UNL     1      46.603   3.402   7.329  0.00  0.00    +0.000 A 
ATOM     32  C   UNL     1      47.659   2.815   6.649  0.00  0.00    +0.000 A 
ATOM     33  N   UNL     1      47.957   1.500   6.712  0.00  0.00    +0.000 NA
ATOM     34  C   UNL     1      47.154   0.738   7.484  0.00  0.00    +0.000 A 
ATOM     35  C   UNL     1      46.073   1.229   8.198  0.00  0.00    +0.000 A 
ENDBRANCH  29  30
ENDBRANCH  27  29
ENDBRANCH  26  27
ENDBRANCH  23  26
ENDBRANCH  19  20
ENDBRANCH   1  19
TORSDOF 10
ENDMDL
MODEL 7
REMARK VINA RESULT:    -7.157      2.536      3.460
REMARK INTER + INTRA:         -12.220
REMARK INTER:                 -11.244
REMARK INTRA:                  -0.976
REMARK UNBOUND:                -1.088
REMARK  Name = 
REMARK  10 active torsions:
REMARK  status: ('A' for Active; 'I' for Inactive)
REMARK    1  A    between atoms: N_1  and  C_2
REMARK    2  A    between atoms: C_2  and  C_3
REMARK    3  A    between atoms: C_3  and  N_4
REMARK    4  A    between atoms: C_3  and  C_21
REMARK    5  A    between atoms: N_4  and  C_5
REMARK    6  A    between atoms: C_5  and  C_6
REMARK    7  A    between atoms: C_9  and  C_10
REMARK    8  A    between atoms: C_10  and  N_11
REMARK    9  A    between atoms: N_11  and  C_12
REMARK   10  A    between atoms: C_12  and  C_13
REMARK                            x       y       z     vdW  Elec       q    Type
REMARK                         _______ _______ _______ _____ _____    ______ ____
ROOT
ATOM      1  N   UNL     1      47.738   8.487  14.876  0.00  0.00    +0.000 NA
ATOM      2  H   UNL     1      47.187   9.096  15.483  0.00  0.00    +0.000 HD
ENDROOT
BRANCH   1   3
ATOM      3  C   UNL     1      49.128   8.403  15.371  0.00  0.00    +0.000 C 
BRANCH   3   4
ATOM      4  C   UNL     1      49.058   7.609  16.683  0.00  0.00    +0.000 A 
ATOM      5  C   UNL     1      49.457   8.147  17.902  0.00  0.00    +0.000 A 
ATOM      6  S   UNL     1      49.324   7.071  19.209  0.00  0.00    +0.000 S 
ATOM      7  C   UNL     1      48.683   5.851  18.214  0.00  0.00    +0.000 A 
ATOM      8  N   UNL     1      48.326   4.653  18.749  0.00  0.00    +0.000 NA
ATOM      9  C   UNL     1      47.817   3.820  17.907  0.00  0.00    +0.000 A 
ATOM     10  N   UNL     1      47.644   4.078  16.567  0.00  0.00    +0.000 N 
ATOM     11  C   UNL     1      48.054   5.249  15.972  0.00  0.00    +0.000 A 
ATOM     12  O   UNL     1      47.963   5.400  14.753  0.00  0.00    +0.000 OA
ATOM     13  C   UNL     1      48.590   6.246  16.888  0.00  0.00    +0.000 A 
ATOM     14  H   UNL     1      47.254   3.374  15.963  0.00  0.00    +0.000 HD
ENDBRANCH   3   4
BRANCH   3  15
ATOM     15  C   UNL     1      50.125   7.705  14.376  0.00  0.00    +0.000 C 
BRANCH  15  16
ATOM     16  N   UNL     1      51.474   7.428  14.899  0.00  0.00    +0.000 NA
ATOM     17  H   UNL     1      52.139   8.095  14.517  0.00  0.00    +0.000 HD
ATOM     18  H   UNL     1      51.771   6.498  14.614  0.00  0.00    +0.000 HD
ENDBRANCH  15  16
ENDBRANCH   3  15
ENDBRANCH   1   3
BRANCH   1  19
ATOM     19  C   UNL     1      47.596   8.990  13.509  0.00  0.00    +0.000 C 
BRANCH  19  20
ATOM     20  C   UNL     1      46.766   8.051  12.655  0.00  0.00    +0.000 A 
ATOM     21  C   UNL     1      45.395   8.265  12.524  0.00  0.00    +0.000 A 
ATOM     22  C   UNL     1      44.640   7.357  11.787  0.00  0.00    +0.000 A 
ATOM     23  C   UNL     1      45.271   6.262  11.189  0.00  0.00    +0.000 A 
ATOM     24  C   UNL     1      46.644   6.138  11.373  0.00  0.00    +0.000 A 
ATOM     25  N   UNL     1      47.405   6.998  12.083  0.00  0.00    +0.000 NA
BRANCH  23  26
ATOM     26  C   UNL     1      44.524   5.234  10.383  0.00  0.00    +0.000 C 
BRANCH  26  27
ATOM     27  N   UNL     1      45.253   4.903   9.167  0.00  0.00    +0.000 NA
ATOM     28  H   UNL     1      46.231   4.732   9.404  0.00  0.00    +0.000 HD
BRANCH  27  29
ATOM     29  C   UNL     1      44.719   3.719   8.500  0.00  0.00    +0.000 C 
BRANCH  29  30
ATOM     30  C   UNL     1      45.848   2.892   7.934  0.00  0.00    +0.000 A 
ATOM     31  C   UNL     1      46.807   3.453   7.085  0.00  0.00    +0.000 A 
ATOM     32  C   UNL     1      47.808   2.638   6.576  0.00  0.00    +0.000 A 
ATOM     33  N   UNL     1      47.924   1.323   6.859  0.00  0.00    +0.000 NA
ATOM     34  C   UNL     1      46.989   0.799   7.680  0.00  0.00    +0.000 A 
ATOM     35  C   UNL     1      45.950   1.529   8.234  0.00  0.00    +0.000 A 
ENDBRANCH  29  30
ENDBRANCH  27  29
ENDBRANCH  26  27
ENDBRANCH  23  26
ENDBRANCH  19  20
ENDBRANCH   1  19
TORSDOF 10
ENDMDL
MODEL 8
REMARK VINA RESULT:    -7.028      3.216      9.222
REMARK INTER + INTRA:         -12.020
REMARK INTER:                 -11.199
REMARK INTRA:                  -0.820
REMARK UNBOUND:                -1.088
REMARK  Name = 
REMARK  10 active torsions:
REMARK  status: ('A' for Active; 'I' for Inactive)
REMARK    1  A    between atoms: N_1  and  C_2
REMARK    2  A    between atoms: C_2  and  C_3
REMARK    3  A    between atoms: C_3  and  N_4
REMARK    4  A    between atoms: C_3  and  C_21
REMARK    5  A    between atoms: N_4  and  C_5
REMARK    6  A    between atoms: C_5  and  C_6
REMARK    7  A    between atoms: C_9  and  C_10
REMARK    8  A    between atoms: C_10  and  N_11
REMARK    9  A    between atoms: N_11  and  C_12
REMARK   10  A    between atoms: C_12  and  C_13
REMARK                            x       y       z     vdW  Elec       q    Type
REMARK                         _______ _______ _______ _____ _____    ______ ____
ROOT
ATOM      1  N   UNL     1      46.196   6.933  13.122  0.00  0.00    +0.000 NA
ATOM      2  H   UNL     1      45.604   6.404  13.765  0.00  0.00    +0.000 HD
ENDROOT
BRANCH   1   3
ATOM      3  C   UNL     1      45.646   6.860  11.752  0.00  0.00    +0.000 C 
BRANCH   3   4
ATOM      4  C   UNL     1      44.964   5.489  11.647  0.00  0.00    +0.000 A 
ATOM      5  C   UNL     1      44.234   4.937  12.693  0.00  0.00    +0.000 A 
ATOM      6  S   UNL     1      43.603   3.396  12.360  0.00  0.00    +0.000 S 
ATOM      7  C   UNL     1      44.238   3.415  10.783  0.00  0.00    +0.000 A 
ATOM      8  N   UNL     1      44.020   2.364   9.948  0.00  0.00    +0.000 NA
ATOM      9  C   UNL     1      44.516   2.505   8.767  0.00  0.00    +0.000 A 
ATOM     10  N   UNL     1      45.227   3.607   8.350  0.00  0.00    +0.000 N 
ATOM     11  C   UNL     1      45.529   4.661   9.181  0.00  0.00    +0.000 A 
ATOM     12  O   UNL     1      46.245   5.584   8.791  0.00  0.00    +0.000 OA
ATOM     13  C   UNL     1      44.948   4.575  10.514  0.00  0.00    +0.000 A 
ATOM     14  H   UNL     1      45.600   3.643   7.416  0.00  0.00    +0.000 HD
ENDBRANCH   3   4
BRANCH   3  15
ATOM     15  C   UNL     1      44.615   7.998  11.411  0.00  0.00    +0.000 C 
BRANCH  15  16
ATOM     16  N   UNL     1      43.263   7.554  11.033  0.00  0.00    +0.000 NA
ATOM     17  H   UNL     1      43.280   6.569  10.781  0.00  0.00    +0.000 HD
ATOM     18  H   UNL     1      42.942   8.075  10.221  0.00  0.00    +0.000 HD
ENDBRANCH  15  16
ENDBRANCH   3  15
ENDBRANCH   1   3
BRANCH   1  19
ATOM     19  C   UNL     1      47.561   6.429  13.270  0.00  0.00    +0.000 C 
BRANCH  19  20
ATOM     20  C   UNL     1      47.759   5.742  14.608  0.00  0.00    +0.000 A 
ATOM     21  C   UNL     1      48.583   6.325  15.569  0.00  0.00    +0.000 A 
ATOM     22  C   UNL     1      48.801   5.649  16.766  0.00  0.00    +0.000 A 
ATOM     23  C   UNL     1      48.185   4.413  16.981  0.00  0.00    +0.000 A 
ATOM     24  C   UNL     1      47.377   3.916  15.964  0.00  0.00    +0.000 A 
ATOM     25  N   UNL     1      47.146   4.544  14.791  0.00  0.00    +0.000 NA
BRANCH  23  26
ATOM     26  C   UNL     1      48.377   3.618  18.245  0.00  0.00    +0.000 C 
BRANCH  26  27
ATOM     27  N   UNL     1      49.784   3.299  18.445  0.00  0.00    +0.000 NA
ATOM     28  H   UNL     1      49.897   2.863  19.361  0.00  0.00    +0.000 HD
BRANCH  27  29
ATOM     29  C   UNL     1      50.301   2.389  17.427  0.00  0.00    +0.000 C 
BRANCH  29  30
ATOM     30  C   UNL     1      51.765   2.114  17.677  0.00  0.00    +0.000 A 
ATOM     31  C   UNL     1      52.318   0.850  17.445  0.00  0.00    +0.000 A 
ATOM     32  C   UNL     1      53.663   0.650  17.716  0.00  0.00    +0.000 A 
ATOM     33  N   UNL     1      54.487   1.611  18.185  0.00  0.00    +0.000 NA
ATOM     34  C   UNL     1      53.936   2.824  18.403  0.00  0.00    +0.000 A 
ATOM     35  C   UNL     1      52.603   3.121  18.169  0.00  0.00    +0.000 A 
ENDBRANCH  29  30
ENDBRANCH  27  29
ENDBRANCH  26  27
ENDBRANCH  23  26
ENDBRANCH  19  20
ENDBRANCH   1  19
TORSDOF 10
ENDMDL
MODEL 9
REMARK VINA RESULT:    -6.755      3.688      8.755
REMARK INTER + INTRA:         -11.594
REMARK INTER:                 -10.559
REMARK INTRA:                  -1.035
REMARK UNBOUND:                -1.088
REMARK  Name = 
REMARK  10 active torsions:
REMARK  status: ('A' for Active; 'I' for Inactive)
REMARK    1  A    between atoms: N_1  and  C_2
REMARK    2  A    between atoms: C_2  and  C_3
REMARK    3  A    between atoms: C_3  and  N_4
REMARK    4  A    between atoms: C_3  and  C_21
REMARK    5  A    between atoms: N_4  and  C_5
REMARK    6  A    between atoms: C_5  and  C_6
REMARK    7  A    between atoms: C_9  and  C_10
REMARK    8  A    between atoms: C_10  and  N_11
REMARK    9  A    between atoms: N_11  and  C_12
REMARK   10  A    between atoms: C_12  and  C_13
REMARK                            x       y       z     vdW  Elec       q    Type
REMARK                         _______ _______ _______ _____ _____    ______ ____
ROOT
ATOM      1  N   UNL     1      47.156   6.667  12.185  0.00  0.00    +0.000 NA
ATOM      2  H   UNL     1      47.669   5.851  11.846  0.00  0.00    +0.000 HD
ENDROOT
BRANCH   1   3
ATOM      3  C   UNL     1      46.147   7.080  11.187  0.00  0.00    +0.000 C 
BRANCH   3   4
ATOM      4  C   UNL     1      45.551   5.779  10.631  0.00  0.00    +0.000 A 
ATOM      5  C   UNL     1      45.692   5.403   9.300  0.00  0.00    +0.000 A 
ATOM      6  S   UNL     1      44.917   3.945   8.907  0.00  0.00    +0.000 S 
ATOM      7  C   UNL     1      44.395   3.723  10.509  0.00  0.00    +0.000 A 
ATOM      8  N   UNL     1      43.681   2.617  10.847  0.00  0.00    +0.000 NA
ATOM      9  C   UNL     1      43.373   2.537  12.096  0.00  0.00    +0.000 A 
ATOM     10  N   UNL     1      43.708   3.481  13.040  0.00  0.00    +0.000 N 
ATOM     11  C   UNL     1      44.368   4.647  12.730  0.00  0.00    +0.000 A 
ATOM     12  O   UNL     1      44.566   5.505  13.591  0.00  0.00    +0.000 OA
ATOM     13  C   UNL     1      44.785   4.764  11.339  0.00  0.00    +0.000 A 
ATOM     14  H   UNL     1      43.419   3.362  13.997  0.00  0.00    +0.000 HD
ENDBRANCH   3   4
BRANCH   3  15
ATOM     15  C   UNL     1      45.002   7.989  11.767  0.00  0.00    +0.000 C 
BRANCH  15  16
ATOM     16  N   UNL     1      43.767   8.061  10.968  0.00  0.00    +0.000 NA
ATOM     17  H   UNL     1      43.966   8.468  10.058  0.00  0.00    +0.000 HD
ATOM     18  H   UNL     1      43.089   8.660  11.433  0.00  0.00    +0.000 HD
ENDBRANCH  15  16
ENDBRANCH   3  15
ENDBRANCH   1   3
BRANCH   1  19
ATOM     19  C   UNL     1      48.143   7.690  12.529  0.00  0.00    +0.000 C 
BRANCH  19  20
ATOM     20  C   UNL     1      48.503   7.642  14.001  0.00  0.00    +0.000 A 
ATOM     21  C   UNL     1      48.043   8.640  14.859  0.00  0.00    +0.000 A 
ATOM     22  C   UNL     1      48.436   8.613  16.194  0.00  0.00    +0.000 A 
ATOM     23  C   UNL     1      49.270   7.587  16.646  0.00  0.00    +0.000 A 
ATOM     24  C   UNL     1      49.672   6.635  15.715  0.00  0.00    +0.000 A 
ATOM     25  N   UNL     1      49.312   6.633  14.414  0.00  0.00    +0.000 NA
BRANCH  23  26
ATOM     26  C   UNL     1      49.743   7.492  18.071  0.00  0.00    +0.000 C 
BRANCH  26  27
ATOM     27  N   UNL     1      50.448   6.238  18.299  0.00  0.00    +0.000 NA
ATOM     28  H   UNL     1      51.238   6.411  18.921  0.00  0.00    +0.000 HD
BRANCH  27  29
ATOM     29  C   UNL     1      49.593   5.217  18.898  0.00  0.00    +0.000 C 
BRANCH  29  30
ATOM     30  C   UNL     1      49.536   4.002  18.004  0.00  0.00    +0.000 A 
ATOM     31  C   UNL     1      50.665   3.207  17.783  0.00  0.00    +0.000 A 
ATOM     32  C   UNL     1      50.558   2.116  16.932  0.00  0.00    +0.000 A 
ATOM     33  N   UNL     1      49.418   1.762  16.303  0.00  0.00    +0.000 NA
ATOM     34  C   UNL     1      48.339   2.541  16.528  0.00  0.00    +0.000 A 
ATOM     35  C   UNL     1      48.346   3.653  17.355  0.00  0.00    +0.000 A 
ENDBRANCH  29  30
ENDBRANCH  27  29
ENDBRANCH  26  27
ENDBRANCH  23  26
ENDBRANCH  19  20
ENDBRANCH   1  19
TORSDOF 10
ENDMDL
