MODEL 1
REMARK VINA RESULT:    -7.802      0.000      0.000
REMARK INTER + INTRA:         -10.253
REMARK INTER:                  -9.626
REMARK INTRA:                  -0.626
REMARK UNBOUND:                -0.626
REMARK  Name = 
REMARK  4 active torsions:
REMARK  status: ('A' for Active; 'I' for Inactive)
REMARK    1  A    between atoms: C_5  and  N_6
REMARK    2  A    between atoms: N_6  and  C_7
REMARK    3  A    between atoms: C_7  and  C_8
REMARK    4  A    between atoms: C_12  and  C_13
REMARK                            x       y       z     vdW  Elec       q    Type
REMARK                         _______ _______ _______ _____ _____    ______ ____
ROOT
ATOM      1  C   UNL     1      44.244   3.663  10.764  0.00  0.00    +0.000 A 
ATOM      2  C   UNL     1      43.209   3.725  11.695  0.00  0.00    +0.000 A 
ATOM      3  C   UNL     1      43.402   4.471  12.844  0.00  0.00    +0.000 A 
ATOM      4  N   UNL     1      44.533   5.159  13.116  0.00  0.00    +0.000 NA
ATOM      5  C   UNL     1      45.530   5.135  12.197  0.00  0.00    +0.000 A 
ATOM      6  C   UNL     1      45.411   4.396  11.019  0.00  0.00    +0.000 A 
ENDROOT
BRANCH   5   7
ATOM      7  C   UNL     1      46.731   5.921  12.529  0.00  0.00    +0.000 A 
ATOM      8  C   UNL     1      47.231   6.935  11.699  0.00  0.00    +0.000 A 
ATOM      9  C   UNL     1      48.377   7.647  12.053  0.00  0.00    +0.000 A 
ATOM     10  C   UNL     1      49.006   7.329  13.244  0.00  0.00    +0.000 A 
ATOM     11  N   UNL     1      48.569   6.369  14.082  0.00  0.00    +0.000 NA
ATOM     12  C   UNL     1      47.444   5.700  13.709  0.00  0.00    +0.000 A 
ENDBRANCH   5   7
BRANCH   1  13
ATOM     13  C   UNL     1      44.123   2.829   9.513  0.00  0.00    +0.000 C 
BRANCH  13  14
ATOM     14  N   UNL     1      45.314   2.017   9.339  0.00  0.00    +0.000 N 
ATOM     15  H   UNL     1      45.865   1.909  10.189  0.00  0.00    +0.000 HD
BRANCH  14  20
ATOM     16  C   UNL     1      46.833   3.324   6.189  0.00  0.00    +0.000 A 
ATOM     17  C   UNL     1      47.588   2.215   5.856  0.00  0.00    +0.000 A 
ATOM     18  N   UNL     1      47.636   1.098   6.608  0.00  0.00    +0.000 NA
ATOM     19  C   UNL     1      46.891   1.101   7.741  0.00  0.00    +0.000 A 
ATOM     20  C   UNL     1      46.109   2.168   8.199  0.00  0.00    +0.000 A 
ATOM     21  C   UNL     1      46.079   3.288   7.365  0.00  0.00    +0.000 A 
ENDBRANCH  14  20
ENDBRANCH  13  14
ENDBRANCH   1  13
TORSDOF 4
ENDMDL
MODEL 2
REMARK VINA RESULT:    -7.794      1.125      6.074
REMARK INTER + INTRA:         -10.243
REMARK INTER:                  -9.506
REMARK INTRA:                  -0.737
REMARK UNBOUND:                -0.626
REMARK  Name = 
REMARK  4 active torsions:
REMARK  status: ('A' for Active; 'I' for Inactive)
REMARK    1  A    between atoms: C_5  and  N_6
REMARK    2  A    between atoms: N_6  and  C_7
REMARK    3  A    between atoms: C_7  and  C_8
REMARK    4  A    between atoms: C_12  and  C_13
REMARK                            x       y       z     vdW  Elec       q    Type
REMARK                         _______ _______ _______ _____ _____    ______ ____
ROOT
ATOM      1  C   UNL     1      43.920   5.050  11.042  0.00  0.00    +0.000 A 
ATOM      2  C   UNL     1      43.207   4.072  11.734  0.00  0.00    +0.000 A 
ATOM      3  C   UNL     1      43.299   2.761  11.300  0.00  0.00    +0.000 A 
ATOM      4  N   UNL     1      44.051   2.364  10.250  0.00  0.00    +0.000 NA
ATOM      5  C   UNL     1      44.778   3.304   9.597  0.00  0.00    +0.000 A 
ATOM      6  C   UNL     1      44.728   4.648   9.970  0.00  0.00    +0.000 A 
ENDROOT
BRANCH   5   7
ATOM      7  C   UNL     1      45.600   2.816   8.476  0.00  0.00    +0.000 A 
ATOM      8  C   UNL     1      45.982   3.632   7.400  0.00  0.00    +0.000 A 
ATOM      9  C   UNL     1      46.755   3.122   6.357  0.00  0.00    +0.000 A 
ATOM     10  C   UNL     1      47.138   1.794   6.412  0.00  0.00    +0.000 A 
ATOM     11  N   UNL     1      46.805   0.965   7.421  0.00  0.00    +0.000 NA
ATOM     12  C   UNL     1      46.057   1.498   8.425  0.00  0.00    +0.000 A 
ENDBRANCH   5   7
BRANCH   1  13
ATOM     13  C   UNL     1      43.828   6.505  11.426  0.00  0.00    +0.000 C 
BRANCH  13  14
ATOM     14  N   UNL     1      44.496   6.728  12.696  0.00  0.00    +0.000 N 
ATOM     15  H   UNL     1      44.042   7.427  13.281  0.00  0.00    +0.000 HD
BRANCH  14  20
ATOM     16  C   UNL     1      48.048   7.729  12.136  0.00  0.00    +0.000 A 
ATOM     17  C   UNL     1      48.658   6.675  12.790  0.00  0.00    +0.000 A 
ATOM     18  N   UNL     1      47.976   5.691  13.407  0.00  0.00    +0.000 NA
ATOM     19  C   UNL     1      46.623   5.773  13.361  0.00  0.00    +0.000 A 
ATOM     20  C   UNL     1      45.890   6.801  12.755  0.00  0.00    +0.000 A 
ATOM     21  C   UNL     1      46.652   7.779  12.111  0.00  0.00    +0.000 A 
ENDBRANCH  14  20
ENDBRANCH  13  14
ENDBRANCH   1  13
TORSDOF 4
ENDMDL
MODEL 3
REMARK VINA RESULT:    -7.731      1.237      1.472
REMARK INTER + INTRA:         -10.166
REMARK INTER:                  -9.545
REMARK INTRA:                  -0.620
REMARK UNBOUND:                -0.626
REMARK  Name = 
REMARK  4 active torsions:
REMARK  status: ('A' for Active; 'I' for Inactive)
REMARK    1  A    between atoms: C_5  and  N_6
REMARK    2  A    between atoms: N_6  and  C_7
REMARK    3  A    between atoms: C_7  and  C_8
REMARK    4  A    between atoms: C_12  and  C_13
REMARK                            x       y       z     vdW  Elec       q    Type
REMARK                         _______ _______ _______ _____ _____    ______ ____
ROOT
ATOM      1  C   UNL     1      44.184   3.348  10.601  0.00  0.00    +0.000 A 
ATOM      2  C   UNL     1      43.435   2.992  11.722  0.00  0.00    +0.000 A 
ATOM      3  C   UNL     1      43.514   3.795  12.847  0.00  0.00    +0.000 A 
ATOM      4  N   UNL     1      44.265   4.915  12.923  0.00  0.00    +0.000 NA
ATOM      5  C   UNL     1      44.966   5.288  11.824  0.00  0.00    +0.000 A 
ATOM      6  C   UNL     1      44.945   4.524  10.656  0.00  0.00    +0.000 A 
ENDROOT
BRANCH   5   7
ATOM      7  C   UNL     1      45.749   6.530  11.951  0.00  0.00    +0.000 A 
ATOM      8  C   UNL     1      47.149   6.541  12.042  0.00  0.00    +0.000 A 
ATOM      9  C   UNL     1      47.846   7.743  12.169  0.00  0.00    +0.000 A 
ATOM     10  C   UNL     1      47.123   8.921  12.202  0.00  0.00    +0.000 A 
ATOM     11  N   UNL     1      45.779   8.972  12.115  0.00  0.00    +0.000 NA
ATOM     12  C   UNL     1      45.133   7.782  11.983  0.00  0.00    +0.000 A 
ENDBRANCH   5   7
BRANCH   1  13
ATOM     13  C   UNL     1      44.187   2.494   9.358  0.00  0.00    +0.000 C 
BRANCH  13  14
ATOM     14  N   UNL     1      45.488   1.875   9.181  0.00  0.00    +0.000 N 
ATOM     15  H   UNL     1      46.054   1.862  10.028  0.00  0.00    +0.000 HD
BRANCH  14  20
ATOM     16  C   UNL     1      46.796   3.402   6.036  0.00  0.00    +0.000 A 
ATOM     17  C   UNL     1      47.669   2.394   5.673  0.00  0.00    +0.000 A 
ATOM     18  N   UNL     1      47.859   1.278   6.404  0.00  0.00    +0.000 NA
ATOM     19  C   UNL     1      47.136   1.175   7.546  0.00  0.00    +0.000 A 
ATOM     20  C   UNL     1      46.242   2.136   8.034  0.00  0.00    +0.000 A 
ATOM     21  C   UNL     1      46.070   3.259   7.222  0.00  0.00    +0.000 A 
ENDBRANCH  14  20
ENDBRANCH  13  14
ENDBRANCH   1  13
TORSDOF 4
ENDMDL
MODEL 4
REMARK VINA RESULT:    -7.140      1.696      2.262
REMARK INTER + INTRA:          -9.436
REMARK INTER:                  -8.875
REMARK INTRA:                  -0.561
REMARK UNBOUND:                -0.626
REMARK  Name = 
REMARK  4 active torsions:
REMARK  status: ('A' for Active; 'I' for Inactive)
REMARK    1  A    between atoms: C_5  and  N_6
REMARK    2  A    between atoms: N_6  and  C_7
REMARK    3  A    between atoms: C_7  and  C_8
REMARK    4  A    between atoms: C_12  and  C_13
REMARK                            x       y       z     vdW  Elec       q    Type
REMARK                         _______ _______ _______ _____ _____    ______ ____
ROOT
ATOM      1  C   UNL     1      44.814   4.624  11.333  0.00  0.00    +0.000 A 
ATOM      2  C   UNL     1      45.017   3.910  12.513  0.00  0.00    +0.000 A 
ATOM      3  C   UNL     1      45.923   4.407  13.434  0.00  0.00    +0.000 A 
ATOM      4  N   UNL     1      46.617   5.554  13.267  0.00  0.00    +0.000 NA
ATOM      5  C   UNL     1      46.395   6.274  12.139  0.00  0.00    +0.000 A 
ATOM      6  C   UNL     1      45.505   5.831  11.160  0.00  0.00    +0.000 A 
ENDROOT
BRANCH   5   7
ATOM      7  C   UNL     1      47.158   7.528  12.016  0.00  0.00    +0.000 A 
ATOM      8  C   UNL     1      48.513   7.563  11.654  0.00  0.00    +0.000 A 
ATOM      9  C   UNL     1      49.195   8.776  11.559  0.00  0.00    +0.000 A 
ATOM     10  C   UNL     1      48.502   9.942  11.828  0.00  0.00    +0.000 A 
ATOM     11  N   UNL     1      47.201   9.970  12.176  0.00  0.00    +0.000 NA
ATOM     12  C   UNL     1      46.565   8.770  12.252  0.00  0.00    +0.000 A 
ENDBRANCH   5   7
BRANCH   1  13
ATOM     13  C   UNL     1      43.880   4.118  10.263  0.00  0.00    +0.000 C 
BRANCH  13  14
ATOM     14  N   UNL     1      44.321   2.817   9.791  0.00  0.00    +0.000 N 
ATOM     15  H   UNL     1      44.533   2.160  10.540  0.00  0.00    +0.000 HD
BRANCH  14  20
ATOM     16  C   UNL     1      46.923   1.602   7.406  0.00  0.00    +0.000 A 
ATOM     17  C   UNL     1      47.111   2.776   6.701  0.00  0.00    +0.000 A 
ATOM     18  N   UNL     1      46.427   3.909   6.951  0.00  0.00    +0.000 NA
ATOM     19  C   UNL     1      45.517   3.855   7.956  0.00  0.00    +0.000 A 
ATOM     20  C   UNL     1      45.217   2.723   8.723  0.00  0.00    +0.000 A 
ATOM     21  C   UNL     1      45.975   1.586   8.433  0.00  0.00    +0.000 A 
ENDBRANCH  14  20
ENDBRANCH  13  14
ENDBRANCH   1  13
TORSDOF 4
ENDMDL
MODEL 5
REMARK VINA RESULT:    -7.098      1.368      1.998
REMARK INTER + INTRA:          -9.384
REMARK INTER:                  -8.773
REMARK INTRA:                  -0.611
REMARK UNBOUND:                -0.626
REMARK  Name = 
REMARK  4 active torsions:
REMARK  status: ('A' for Active; 'I' for Inactive)
REMARK    1  A    between atoms: C_5  and  N_6
REMARK    2  A    between atoms: N_6  and  C_7
REMARK    3  A    between atoms: C_7  and  C_8
REMARK    4  A    between atoms: C_12  and  C_13
REMARK                            x       y       z     vdW  Elec       q    Type
REMARK                         _______ _______ _______ _____ _____    ______ ____
ROOT
ATOM      1  C   UNL     1      44.486   3.939  11.269  0.00  0.00    +0.000 A 
ATOM      2  C   UNL     1      43.788   5.113  10.990  0.00  0.00    +0.000 A 
ATOM      3  C   UNL     1      44.072   6.241  11.740  0.00  0.00    +0.000 A 
ATOM      4  N   UNL     1      45.000   6.280  12.722  0.00  0.00    +0.000 NA
ATOM      5  C   UNL     1      45.710   5.153  12.972  0.00  0.00    +0.000 A 
ATOM      6  C   UNL     1      45.472   3.973  12.264  0.00  0.00    +0.000 A 
ENDROOT
BRANCH   5   7
ATOM      7  C   UNL     1      46.725   5.255  14.035  0.00  0.00    +0.000 A 
ATOM      8  C   UNL     1      46.769   4.382  15.132  0.00  0.00    +0.000 A 
ATOM      9  C   UNL     1      47.746   4.524  16.118  0.00  0.00    +0.000 A 
ATOM     10  C   UNL     1      48.670   5.545  15.985  0.00  0.00    +0.000 A 
ATOM     11  N   UNL     1      48.679   6.410  14.952  0.00  0.00    +0.000 NA
ATOM     12  C   UNL     1      47.718   6.237  14.005  0.00  0.00    +0.000 A 
ENDBRANCH   5   7
BRANCH   1  13
ATOM     13  C   UNL     1      44.194   2.659  10.526  0.00  0.00    +0.000 C 
BRANCH  13  14
ATOM     14  N   UNL     1      44.206   2.900   9.094  0.00  0.00    +0.000 N 
ATOM     15  H   UNL     1      43.374   2.561   8.615  0.00  0.00    +0.000 HD
BRANCH  14  20
ATOM     16  C   UNL     1      47.047   3.316   6.709  0.00  0.00    +0.000 A 
ATOM     17  C   UNL     1      47.573   2.041   6.801  0.00  0.00    +0.000 A 
ATOM     18  N   UNL     1      47.066   1.086   7.603  0.00  0.00    +0.000 NA
ATOM     19  C   UNL     1      45.981   1.431   8.341  0.00  0.00    +0.000 A 
ATOM     20  C   UNL     1      45.374   2.693   8.356  0.00  0.00    +0.000 A 
ATOM     21  C   UNL     1      45.930   3.633   7.486  0.00  0.00    +0.000 A 
ENDBRANCH  14  20
ENDBRANCH  13  14
ENDBRANCH   1  13
TORSDOF 4
ENDMDL
MODEL 6
REMARK VINA RESULT:    -6.827      1.555      2.563
REMARK INTER + INTRA:          -9.050
REMARK INTER:                  -8.368
REMARK INTRA:                  -0.682
REMARK UNBOUND:                -0.626
REMARK  Name = 
REMARK  4 active torsions:
REMARK  status: ('A' for Active; 'I' for Inactive)
REMARK    1  A    between atoms: C_5  and  N_6
REMARK    2  A    between atoms: N_6  and  C_7
REMARK    3  A    between atoms: C_7  and  C_8
REMARK    4  A    between atoms: C_12  and  C_13
REMARK                            x       y       z     vdW  Elec       q    Type
REMARK                         _______ _______ _______ _____ _____    ______ ____
ROOT
ATOM      1  C   UNL     1      45.400   5.520  11.914  0.00  0.00    +0.000 A 
ATOM      2  C   UNL     1      45.383   4.540  12.905  0.00  0.00    +0.000 A 
ATOM      3  C   UNL     1      46.485   4.423  13.733  0.00  0.00    +0.000 A 
ATOM      4  N   UNL     1      47.579   5.212  13.650  0.00  0.00    +0.000 NA
ATOM      5  C   UNL     1      47.587   6.193  12.713  0.00  0.00    +0.000 A 
ATOM      6  C   UNL     1      46.515   6.365  11.836  0.00  0.00    +0.000 A 
ENDROOT
BRANCH   5   7
ATOM      7  C   UNL     1      48.791   7.040  12.680  0.00  0.00    +0.000 A 
ATOM      8  C   UNL     1      49.289   7.609  11.498  0.00  0.00    +0.000 A 
ATOM      9  C   UNL     1      50.439   8.399  11.516  0.00  0.00    +0.000 A 
ATOM     10  C   UNL     1      51.072   8.609  12.728  0.00  0.00    +0.000 A 
ATOM     11  N   UNL     1      50.637   8.093  13.894  0.00  0.00    +0.000 NA
ATOM     12  C   UNL     1      49.509   7.334  13.841  0.00  0.00    +0.000 A 
ENDBRANCH   5   7
BRANCH   1  13
ATOM     13  C   UNL     1      44.255   5.673  10.944  0.00  0.00    +0.000 C 
BRANCH  13  14
ATOM     14  N   UNL     1      43.920   4.385  10.363  0.00  0.00    +0.000 N 
ATOM     15  H   UNL     1      43.485   3.739  11.020  0.00  0.00    +0.000 HD
BRANCH  14  20
ATOM     16  C   UNL     1      46.282   3.665   7.563  0.00  0.00    +0.000 A 
ATOM     17  C   UNL     1      46.383   2.297   7.734  0.00  0.00    +0.000 A 
ATOM     18  N   UNL     1      45.747   1.623   8.712  0.00  0.00    +0.000 NA
ATOM     19  C   UNL     1      44.976   2.360   9.549  0.00  0.00    +0.000 A 
ATOM     20  C   UNL     1      44.813   3.750   9.496  0.00  0.00    +0.000 A 
ATOM     21  C   UNL     1      45.478   4.389   8.447  0.00  0.00    +0.000 A 
ENDBRANCH  14  20
ENDBRANCH  13  14
ENDBRANCH   1  13
TORSDOF 4
ENDMDL
MODEL 7
REMARK VINA RESULT:    -6.505      2.315      4.147
REMARK INTER + INTRA:          -8.653
REMARK INTER:                  -8.087
REMARK INTRA:                  -0.566
REMARK UNBOUND:                -0.626
REMARK  Name = 
REMARK  4 active torsions:
REMARK  status: ('A' for Active; 'I' for Inactive)
REMARK    1  A    between atoms: C_5  and  N_6
REMARK    2  A    between atoms: N_6  and  C_7
REMARK    3  A    between atoms: C_7  and  C_8
REMARK    4  A    between atoms: C_12  and  C_13
REMARK                            x       y       z     vdW  Elec       q    Type
REMARK                         _______ _______ _______ _____ _____    ______ ____
ROOT
ATOM      1  C   UNL     1      46.045   5.936  12.440  0.00  0.00    +0.000 A 
ATOM      2  C   UNL     1      47.104   6.652  11.885  0.00  0.00    +0.000 A 
ATOM      3  C   UNL     1      48.274   6.766  12.616  0.00  0.00    +0.000 A 
ATOM      4  N   UNL     1      48.459   6.213  13.835  0.00  0.00    +0.000 NA
ATOM      5  C   UNL     1      47.446   5.483  14.364  0.00  0.00    +0.000 A 
ATOM      6  C   UNL     1      46.233   5.331  13.690  0.00  0.00    +0.000 A 
ENDROOT
BRANCH   5   7
ATOM      7  C   UNL     1      47.708   4.881  15.683  0.00  0.00    +0.000 A 
ATOM      8  C   UNL     1      47.107   3.686  16.107  0.00  0.00    +0.000 A 
ATOM      9  C   UNL     1      47.380   3.159  17.369  0.00  0.00    +0.000 A 
ATOM     10  C   UNL     1      48.259   3.842  18.190  0.00  0.00    +0.000 A 
ATOM     11  N   UNL     1      48.869   4.990  17.834  0.00  0.00    +0.000 NA
ATOM     12  C   UNL     1      48.586   5.471  16.594  0.00  0.00    +0.000 A 
ENDBRANCH   5   7
BRANCH   1  13
ATOM     13  C   UNL     1      44.723   5.811  11.723  0.00  0.00    +0.000 C 
BRANCH  13  14
ATOM     14  N   UNL     1      44.468   4.422  11.387  0.00  0.00    +0.000 N 
ATOM     15  H   UNL     1      44.648   3.775  12.153  0.00  0.00    +0.000 HD
BRANCH  14  20
ATOM     16  C   UNL     1      45.471   2.120   8.625  0.00  0.00    +0.000 A 
ATOM     17  C   UNL     1      45.884   3.072   7.712  0.00  0.00    +0.000 A 
ATOM     18  N   UNL     1      45.830   4.397   7.947  0.00  0.00    +0.000 NA
ATOM     19  C   UNL     1      45.340   4.777   9.153  0.00  0.00    +0.000 A 
ATOM     20  C   UNL     1      44.866   3.913  10.148  0.00  0.00    +0.000 A 
ATOM     21  C   UNL     1      44.971   2.551   9.856  0.00  0.00    +0.000 A 
ENDBRANCH  14  20
ENDBRANCH  13  14
ENDBRANCH   1  13
TORSDOF 4
ENDMDL
MODEL 8
REMARK VINA RESULT:    -6.123      2.556      7.285
REMARK INTER + INTRA:          -8.181
REMARK INTER:                  -7.648
REMARK INTRA:                  -0.534
REMARK UNBOUND:                -0.626
REMARK  Name = 
REMARK  4 active torsions:
REMARK  status: ('A' for Active; 'I' for Inactive)
REMARK    1  A    between atoms: C_5  and  N_6
REMARK    2  A    between atoms: N_6  and  C_7
REMARK    3  A    between atoms: C_7  and  C_8
REMARK    4  A    between atoms: C_12  and  C_13
REMARK                            x       y       z     vdW  Elec       q    Type
REMARK                         _______ _______ _______ _____ _____    ______ ____
ROOT
ATOM      1  C   UNL     1      47.257   6.866  13.313  0.00  0.00    +0.000 A 
ATOM      2  C   UNL     1      46.546   8.063  13.258  0.00  0.00    +0.000 A 
ATOM      3  C   UNL     1      45.521   8.176  12.335  0.00  0.00    +0.000 A 
ATOM      4  N   UNL     1      45.154   7.189  11.490  0.00  0.00    +0.000 NA
ATOM      5  C   UNL     1      45.815   6.007  11.565  0.00  0.00    +0.000 A 
ATOM      6  C   UNL     1      46.868   5.822  12.463  0.00  0.00    +0.000 A 
ENDROOT
BRANCH   5   7
ATOM      7  C   UNL     1      45.361   4.956  10.639  0.00  0.00    +0.000 A 
ATOM      8  C   UNL     1      45.575   5.016   9.254  0.00  0.00    +0.000 A 
ATOM      9  C   UNL     1      45.118   3.998   8.416  0.00  0.00    +0.000 A 
ATOM     10  C   UNL     1      44.451   2.929   8.986  0.00  0.00    +0.000 A 
ATOM     11  N   UNL     1      44.220   2.815  10.308  0.00  0.00    +0.000 NA
ATOM     12  C   UNL     1      44.686   3.821  11.096  0.00  0.00    +0.000 A 
ENDBRANCH   5   7
BRANCH   1  13
ATOM     13  C   UNL     1      48.419   6.688  14.259  0.00  0.00    +0.000 C 
BRANCH  13  14
ATOM     14  N   UNL     1      47.934   6.399  15.596  0.00  0.00    +0.000 N 
ATOM     15  H   UNL     1      47.951   7.203  16.221  0.00  0.00    +0.000 HD
BRANCH  14  20
ATOM     16  C   UNL     1      47.924   2.924  16.959  0.00  0.00    +0.000 A 
ATOM     17  C   UNL     1      49.060   3.013  17.741  0.00  0.00    +0.000 A 
ATOM     18  N   UNL     1      49.819   4.122  17.822  0.00  0.00    +0.000 NA
ATOM     19  C   UNL     1      49.414   5.186  17.085  0.00  0.00    +0.000 A 
ATOM     20  C   UNL     1      48.300   5.212  16.236  0.00  0.00    +0.000 A 
ATOM     21  C   UNL     1      47.539   4.041  16.213  0.00  0.00    +0.000 A 
ENDBRANCH  14  20
ENDBRANCH  13  14
ENDBRANCH   1  13
TORSDOF 4
ENDMDL
MODEL 9
REMARK VINA RESULT:    -5.872      3.265      7.593
REMARK INTER + INTRA:          -7.872
REMARK INTER:                  -7.310
REMARK INTRA:                  -0.562
REMARK UNBOUND:                -0.626
REMARK  Name = 
REMARK  4 active torsions:
REMARK  status: ('A' for Active; 'I' for Inactive)
REMARK    1  A    between atoms: C_5  and  N_6
REMARK    2  A    between atoms: N_6  and  C_7
REMARK    3  A    between atoms: C_7  and  C_8
REMARK    4  A    between atoms: C_12  and  C_13
REMARK                            x       y       z     vdW  Elec       q    Type
REMARK                         _______ _______ _______ _____ _____    ______ ____
ROOT
ATOM      1  C   UNL     1      48.512   6.832  13.877  0.00  0.00    +0.000 A 
ATOM      2  C   UNL     1      49.052   7.593  12.841  0.00  0.00    +0.000 A 
ATOM      3  C   UNL     1      48.388   7.614  11.626  0.00  0.00    +0.000 A 
ATOM      4  N   UNL     1      47.237   6.950  11.384  0.00  0.00    +0.000 NA
ATOM      5  C   UNL     1      46.686   6.239  12.399  0.00  0.00    +0.000 A 
ATOM      6  C   UNL     1      47.303   6.163  13.649  0.00  0.00    +0.000 A 
ENDROOT
BRANCH   5   7
ATOM      7  C   UNL     1      45.419   5.555  12.090  0.00  0.00    +0.000 A 
ATOM      8  C   UNL     1      44.555   5.068  13.083  0.00  0.00    +0.000 A 
ATOM      9  C   UNL     1      43.369   4.418  12.741  0.00  0.00    +0.000 A 
ATOM     10  C   UNL     1      43.065   4.269  11.400  0.00  0.00    +0.000 A 
ATOM     11  N   UNL     1      43.853   4.719  10.404  0.00  0.00    +0.000 NA
ATOM     12  C   UNL     1      44.998   5.354  10.774  0.00  0.00    +0.000 A 
ENDBRANCH   5   7
BRANCH   1  13
ATOM     13  C   UNL     1      49.207   6.723  15.211  0.00  0.00    +0.000 C 
BRANCH  13  14
ATOM     14  N   UNL     1      48.239   6.431  16.254  0.00  0.00    +0.000 N 
ATOM     15  H   UNL     1      48.122   7.185  16.927  0.00  0.00    +0.000 HD
BRANCH  14  20
ATOM     16  C   UNL     1      49.235   3.208  17.854  0.00  0.00    +0.000 A 
ATOM     17  C   UNL     1      48.009   2.572  17.802  0.00  0.00    +0.000 A 
ATOM     18  N   UNL     1      46.898   3.144  17.299  0.00  0.00    +0.000 NA
ATOM     19  C   UNL     1      47.030   4.409  16.829  0.00  0.00    +0.000 A 
ATOM     20  C   UNL     1      48.207   5.168  16.850  0.00  0.00    +0.000 A 
ATOM     21  C   UNL     1      49.330   4.512  17.361  0.00  0.00    +0.000 A 
ENDBRANCH  14  20
ENDBRANCH  13  14
ENDBRANCH   1  13
TORSDOF 4
ENDMDL
