MODEL 1
REMARK VINA RESULT:    -7.224      0.000      0.000
REMARK INTER + INTRA:          -9.512
REMARK INTER:                  -9.124
REMARK INTRA:                  -0.388
REMARK UNBOUND:                -0.388
REMARK  Name = 
REMARK  5 active torsions:
REMARK  status: ('A' for Active; 'I' for Inactive)
REMARK    1  A    between atoms: N_1  and  C_2
REMARK    2  A    between atoms: C_2  and  C_3
REMARK    3  A    between atoms: C_6  and  O_7
REMARK    4  A    between atoms: O_7  and  C_8
REMARK    5  A    between atoms: C_8  and  C_9
REMARK                            x       y       z     vdW  Elec       q    Type
REMARK                         _______ _______ _______ _____ _____    ______ ____
ROOT
ATOM      1  C   UNL     1      46.779   2.238   7.531  0.00  0.00    +0.000 A 
ATOM      2  C   UNL     1      45.841   1.653   8.388  0.00  0.00    +0.000 A 
ATOM      3  C   UNL     1      44.835   2.436   8.947  0.00  0.00    +0.000 A 
ATOM      4  C   UNL     1      44.784   3.778   8.614  0.00  0.00    +0.000 A 
ATOM      5  N   UNL     1      45.670   4.382   7.793  0.00  0.00    +0.000 NA
ATOM      6  C   UNL     1      46.646   3.600   7.279  0.00  0.00    +0.000 A 
ENDROOT
BRANCH   1   7
ATOM      7  C   UNL     1      47.899   1.442   6.925  0.00  0.00    +0.000 C 
BRANCH   7   8
ATOM      8  N   UNL     1      48.327   1.995   5.646  0.00  0.00    +0.000 NA
ATOM      9  H   UNL     1      47.588   1.860   4.958  0.00  0.00    +0.000 HD
ATOM     10  H   UNL     1      49.132   1.469   5.306  0.00  0.00    +0.000 HD
ENDBRANCH   7   8
ENDBRANCH   1   7
BRANCH   4  11
ATOM     11  O   UNL     1      43.797   4.532   9.214  0.00  0.00    +0.000 OA
BRANCH  11  12
ATOM     12  C   UNL     1      43.701   4.296  10.628  0.00  0.00    +0.000 C 
BRANCH  12  13
ATOM     13  C   UNL     1      43.708   5.661  11.359  0.00  0.00    +0.000 C 
ATOM     14  C   UNL     1      43.842   5.514  12.881  0.00  0.00    +0.000 C 
ATOM     15  C   UNL     1      45.260   5.150  13.316  0.00  0.00    +0.000 C 
ATOM     16  C   UNL     1      46.289   6.073  12.673  0.00  0.00    +0.000 C 
ATOM     17  C   UNL     1      46.085   6.197  11.166  0.00  0.00    +0.000 C 
ATOM     18  N   UNL     1      44.719   6.606  10.840  0.00  0.00    +0.000 NA
ATOM     19  H   UNL     1      44.618   6.639   9.824  0.00  0.00    +0.000 HD
ENDBRANCH  12  13
ENDBRANCH  11  12
ENDBRANCH   4  11
TORSDOF 5
ENDMDL
MODEL 2
REMARK VINA RESULT:    -6.673      1.062      1.736
REMARK INTER + INTRA:          -8.817
REMARK INTER:                  -8.747
REMARK INTRA:                  -0.070
REMARK UNBOUND:                -0.388
REMARK  Name = 
REMARK  5 active torsions:
REMARK  status: ('A' for Active; 'I' for Inactive)
REMARK    1  A    between atoms: N_1  and  C_2
REMARK    2  A    between atoms: C_2  and  C_3
REMARK    3  A    between atoms: C_6  and  O_7
REMARK    4  A    between atoms: O_7  and  C_8
REMARK    5  A    between atoms: C_8  and  C_9
REMARK                            x       y       z     vdW  Elec       q    Type
REMARK                         _______ _______ _______ _____ _____    ______ ____
ROOT
ATOM      1  C   UNL     1      46.650   2.191   7.457  0.00  0.00    +0.000 A 
ATOM      2  C   UNL     1      45.815   1.827   8.519  0.00  0.00    +0.000 A 
ATOM      3  C   UNL     1      45.147   2.812   9.240  0.00  0.00    +0.000 A 
ATOM      4  C   UNL     1      45.317   4.133   8.863  0.00  0.00    +0.000 A 
ATOM      5  N   UNL     1      46.114   4.527   7.846  0.00  0.00    +0.000 NA
ATOM      6  C   UNL     1      46.763   3.548   7.175  0.00  0.00    +0.000 A 
ENDROOT
BRANCH   1   7
ATOM      7  C   UNL     1      47.413   1.166   6.666  0.00  0.00    +0.000 C 
BRANCH   7   8
ATOM      8  N   UNL     1      48.489   1.772   5.892  0.00  0.00    +0.000 NA
ATOM      9  H   UNL     1      48.765   1.136   5.146  0.00  0.00    +0.000 HD
ATOM     10  H   UNL     1      49.309   1.883   6.489  0.00  0.00    +0.000 HD
ENDBRANCH   7   8
ENDBRANCH   1   7
BRANCH   4  11
ATOM     11  O   UNL     1      44.670   5.086   9.621  0.00  0.00    +0.000 OA
BRANCH  11  12
ATOM     12  C   UNL     1      45.554   5.774  10.520  0.00  0.00    +0.000 C 
BRANCH  12  13
ATOM     13  C   UNL     1      44.714   6.391  11.665  0.00  0.00    +0.000 C 
ATOM     14  C   UNL     1      43.206   6.183  11.468  0.00  0.00    +0.000 C 
ATOM     15  C   UNL     1      42.764   4.752  11.766  0.00  0.00    +0.000 C 
ATOM     16  C   UNL     1      43.301   4.278  13.113  0.00  0.00    +0.000 C 
ATOM     17  C   UNL     1      44.797   4.538  13.256  0.00  0.00    +0.000 C 
ATOM     18  N   UNL     1      45.125   5.941  13.010  0.00  0.00    +0.000 NA
ATOM     19  H   UNL     1      46.138   6.061  13.079  0.00  0.00    +0.000 HD
ENDBRANCH  12  13
ENDBRANCH  11  12
ENDBRANCH   4  11
TORSDOF 5
ENDMDL
MODEL 3
REMARK VINA RESULT:    -6.035      2.093      5.835
REMARK INTER + INTRA:          -8.011
REMARK INTER:                  -7.517
REMARK INTRA:                  -0.494
REMARK UNBOUND:                -0.388
REMARK  Name = 
REMARK  5 active torsions:
REMARK  status: ('A' for Active; 'I' for Inactive)
REMARK    1  A    between atoms: N_1  and  C_2
REMARK    2  A    between atoms: C_2  and  C_3
REMARK    3  A    between atoms: C_6  and  O_7
REMARK    4  A    between atoms: O_7  and  C_8
REMARK    5  A    between atoms: C_8  and  C_9
REMARK                            x       y       z     vdW  Elec       q    Type
REMARK                         _______ _______ _______ _____ _____    ______ ____
ROOT
ATOM      1  C   UNL     1      46.152   4.540  13.273  0.00  0.00    +0.000 A 
ATOM      2  C   UNL     1      46.272   5.771  12.619  0.00  0.00    +0.000 A 
ATOM      3  C   UNL     1      45.824   5.902  11.308  0.00  0.00    +0.000 A 
ATOM      4  C   UNL     1      45.247   4.803  10.697  0.00  0.00    +0.000 A 
ATOM      5  N   UNL     1      45.113   3.597  11.291  0.00  0.00    +0.000 NA
ATOM      6  C   UNL     1      45.573   3.496  12.558  0.00  0.00    +0.000 A 
ENDROOT
BRANCH   1   7
ATOM      7  C   UNL     1      46.646   4.341  14.677  0.00  0.00    +0.000 C 
BRANCH   7   8
ATOM      8  N   UNL     1      47.471   3.146  14.796  0.00  0.00    +0.000 NA
ATOM      9  H   UNL     1      47.075   2.534  15.508  0.00  0.00    +0.000 HD
ATOM     10  H   UNL     1      48.397   3.411  15.133  0.00  0.00    +0.000 HD
ENDBRANCH   7   8
ENDBRANCH   1   7
BRANCH   4  11
ATOM     11  O   UNL     1      44.846   4.957   9.386  0.00  0.00    +0.000 OA
BRANCH  11  12
ATOM     12  C   UNL     1      45.876   4.609   8.447  0.00  0.00    +0.000 C 
BRANCH  12  13
ATOM     13  C   UNL     1      45.310   3.560   7.458  0.00  0.00    +0.000 C 
ATOM     14  C   UNL     1      46.277   3.254   6.306  0.00  0.00    +0.000 C 
ATOM     15  C   UNL     1      47.450   2.377   6.737  0.00  0.00    +0.000 C 
ATOM     16  C   UNL     1      46.968   1.150   7.506  0.00  0.00    +0.000 C 
ATOM     17  C   UNL     1      45.991   1.520   8.618  0.00  0.00    +0.000 C 
ATOM     18  N   UNL     1      44.871   2.309   8.109  0.00  0.00    +0.000 NA
ATOM     19  H   UNL     1      44.264   2.564   8.891  0.00  0.00    +0.000 HD
ENDBRANCH  12  13
ENDBRANCH  11  12
ENDBRANCH   4  11
TORSDOF 5
ENDMDL
MODEL 4
REMARK VINA RESULT:    -5.820      4.561      6.735
REMARK INTER + INTRA:          -7.739
REMARK INTER:                  -7.414
REMARK INTRA:                  -0.325
REMARK UNBOUND:                -0.388
REMARK  Name = 
REMARK  5 active torsions:
REMARK  status: ('A' for Active; 'I' for Inactive)
REMARK    1  A    between atoms: N_1  and  C_2
REMARK    2  A    between atoms: C_2  and  C_3
REMARK    3  A    between atoms: C_6  and  O_7
REMARK    4  A    between atoms: O_7  and  C_8
REMARK    5  A    between atoms: C_8  and  C_9
REMARK                            x       y       z     vdW  Elec       q    Type
REMARK                         _______ _______ _______ _____ _____    ______ ____
ROOT
ATOM      1  C   UNL     1      44.002   5.338  12.280  0.00  0.00    +0.000 A 
ATOM      2  C   UNL     1      44.968   6.309  12.565  0.00  0.00    +0.000 A 
ATOM      3  C   UNL     1      46.145   5.942  13.210  0.00  0.00    +0.000 A 
ATOM      4  C   UNL     1      46.331   4.608  13.532  0.00  0.00    +0.000 A 
ATOM      5  N   UNL     1      45.425   3.641  13.276  0.00  0.00    +0.000 NA
ATOM      6  C   UNL     1      44.284   4.031  12.664  0.00  0.00    +0.000 A 
ENDROOT
BRANCH   1   7
ATOM      7  C   UNL     1      42.704   5.689  11.610  0.00  0.00    +0.000 C 
BRANCH   7   8
ATOM      8  N   UNL     1      42.689   7.072  11.151  0.00  0.00    +0.000 NA
ATOM      9  H   UNL     1      43.238   7.644  11.791  0.00  0.00    +0.000 HD
ATOM     10  H   UNL     1      41.735   7.429  11.198  0.00  0.00    +0.000 HD
ENDBRANCH   7   8
ENDBRANCH   1   7
BRANCH   4  11
ATOM     11  O   UNL     1      47.493   4.285  14.203  0.00  0.00    +0.000 OA
BRANCH  11  12
ATOM     12  C   UNL     1      47.594   4.935  15.479  0.00  0.00    +0.000 C 
BRANCH  12  13
ATOM     13  C   UNL     1      47.154   3.938  16.579  0.00  0.00    +0.000 C 
ATOM     14  C   UNL     1      48.194   2.835  16.824  0.00  0.00    +0.000 C 
ATOM     15  C   UNL     1      49.408   3.331  17.606  0.00  0.00    +0.000 C 
ATOM     16  C   UNL     1      48.985   4.096  18.856  0.00  0.00    +0.000 C 
ATOM     17  C   UNL     1      47.933   5.157  18.549  0.00  0.00    +0.000 C 
ATOM     18  N   UNL     1      46.781   4.587  17.853  0.00  0.00    +0.000 NA
ATOM     19  H   UNL     1      46.122   5.338  17.635  0.00  0.00    +0.000 HD
ENDBRANCH  12  13
ENDBRANCH  11  12
ENDBRANCH   4  11
TORSDOF 5
ENDMDL
MODEL 5
REMARK VINA RESULT:    -5.787      1.461      2.211
REMARK INTER + INTRA:          -7.697
REMARK INTER:                  -7.922
REMARK INTRA:                   0.225
REMARK UNBOUND:                -0.388
REMARK  Name = 
REMARK  5 active torsions:
REMARK  status: ('A' for Active; 'I' for Inactive)
REMARK    1  A    between atoms: N_1  and  C_2
REMARK    2  A    between atoms: C_2  and  C_3
REMARK    3  A    between atoms: C_6  and  O_7
REMARK    4  A    between atoms: O_7  and  C_8
REMARK    5  A    between atoms: C_8  and  C_9
REMARK                            x       y       z     vdW  Elec       q    Type
REMARK                         _______ _______ _______ _____ _____    ______ ____
ROOT
ATOM      1  C   UNL     1      46.785   2.119   7.223  0.00  0.00    +0.000 A 
ATOM      2  C   UNL     1      46.634   3.501   7.069  0.00  0.00    +0.000 A 
ATOM      3  C   UNL     1      45.810   4.207   7.941  0.00  0.00    +0.000 A 
ATOM      4  C   UNL     1      45.177   3.511   8.956  0.00  0.00    +0.000 A 
ATOM      5  N   UNL     1      45.294   2.178   9.139  0.00  0.00    +0.000 NA
ATOM      6  C   UNL     1      46.088   1.517   8.266  0.00  0.00    +0.000 A 
ENDROOT
BRANCH   1   7
ATOM      7  C   UNL     1      47.640   1.309   6.291  0.00  0.00    +0.000 C 
BRANCH   7   8
ATOM      8  N   UNL     1      48.454   2.157   5.430  0.00  0.00    +0.000 NA
ATOM      9  H   UNL     1      49.296   1.651   5.159  0.00  0.00    +0.000 HD
ATOM     10  H   UNL     1      48.769   2.969   5.961  0.00  0.00    +0.000 HD
ENDBRANCH   7   8
ENDBRANCH   1   7
BRANCH   4  11
ATOM     11  O   UNL     1      44.341   4.235   9.780  0.00  0.00    +0.000 OA
BRANCH  11  12
ATOM     12  C   UNL     1      45.000   5.352  10.397  0.00  0.00    +0.000 C 
BRANCH  12  13
ATOM     13  C   UNL     1      45.418   4.948  11.832  0.00  0.00    +0.000 C 
ATOM     14  C   UNL     1      44.807   5.863  12.903  0.00  0.00    +0.000 C 
ATOM     15  C   UNL     1      43.324   5.587  13.139  0.00  0.00    +0.000 C 
ATOM     16  C   UNL     1      43.067   4.099  13.352  0.00  0.00    +0.000 C 
ATOM     17  C   UNL     1      43.721   3.244  12.271  0.00  0.00    +0.000 C 
ATOM     18  N   UNL     1      45.150   3.531  12.151  0.00  0.00    +0.000 NA
ATOM     19  H   UNL     1      45.538   2.965  11.393  0.00  0.00    +0.000 HD
ENDBRANCH  12  13
ENDBRANCH  11  12
ENDBRANCH   4  11
TORSDOF 5
ENDMDL
MODEL 6
REMARK VINA RESULT:    -5.449      4.997      7.857
REMARK INTER + INTRA:          -7.271
REMARK INTER:                  -7.046
REMARK INTRA:                  -0.224
REMARK UNBOUND:                -0.388
REMARK  Name = 
REMARK  5 active torsions:
REMARK  status: ('A' for Active; 'I' for Inactive)
REMARK    1  A    between atoms: N_1  and  C_2
REMARK    2  A    between atoms: C_2  and  C_3
REMARK    3  A    between atoms: C_6  and  O_7
REMARK    4  A    between atoms: O_7  and  C_8
REMARK    5  A    between atoms: C_8  and  C_9
REMARK                            x       y       z     vdW  Elec       q    Type
REMARK                         _______ _______ _______ _____ _____    ______ ____
ROOT
ATOM      1  C   UNL     1      48.628   3.847  17.935  0.00  0.00    +0.000 A 
ATOM      2  C   UNL     1      47.662   4.710  17.407  0.00  0.00    +0.000 A 
ATOM      3  C   UNL     1      47.165   4.489  16.125  0.00  0.00    +0.000 A 
ATOM      4  C   UNL     1      47.635   3.397  15.417  0.00  0.00    +0.000 A 
ATOM      5  N   UNL     1      48.567   2.540  15.889  0.00  0.00    +0.000 NA
ATOM      6  C   UNL     1      49.042   2.791  17.130  0.00  0.00    +0.000 A 
ENDROOT
BRANCH   1   7
ATOM      7  C   UNL     1      49.214   4.059  19.301  0.00  0.00    +0.000 C 
BRANCH   7   8
ATOM      8  N   UNL     1      48.297   3.643  20.354  0.00  0.00    +0.000 NA
ATOM      9  H   UNL     1      47.413   3.357  19.936  0.00  0.00    +0.000 HD
ATOM     10  H   UNL     1      48.083   4.445  20.947  0.00  0.00    +0.000 HD
ENDBRANCH   7   8
ENDBRANCH   1   7
BRANCH   4  11
ATOM     11  O   UNL     1      47.149   3.228  14.138  0.00  0.00    +0.000 OA
BRANCH  11  12
ATOM     12  C   UNL     1      46.670   4.453  13.560  0.00  0.00    +0.000 C 
BRANCH  12  13
ATOM     13  C   UNL     1      45.146   4.324  13.320  0.00  0.00    +0.000 C 
ATOM     14  C   UNL     1      44.534   5.599  12.721  0.00  0.00    +0.000 C 
ATOM     15  C   UNL     1      44.865   5.773  11.240  0.00  0.00    +0.000 C 
ATOM     16  C   UNL     1      44.573   4.498  10.456  0.00  0.00    +0.000 C 
ATOM     17  C   UNL     1      45.185   3.266  11.116  0.00  0.00    +0.000 C 
ATOM     18  N   UNL     1      44.771   3.144  12.513  0.00  0.00    +0.000 NA
ATOM     19  H   UNL     1      45.233   2.330  12.925  0.00  0.00    +0.000 HD
ENDBRANCH  12  13
ENDBRANCH  11  12
ENDBRANCH   4  11
TORSDOF 5
ENDMDL
MODEL 7
REMARK VINA RESULT:    -5.201      5.022      7.089
REMARK INTER + INTRA:          -6.958
REMARK INTER:                  -6.630
REMARK INTRA:                  -0.327
REMARK UNBOUND:                -0.388
REMARK  Name = 
REMARK  5 active torsions:
REMARK  status: ('A' for Active; 'I' for Inactive)
REMARK    1  A    between atoms: N_1  and  C_2
REMARK    2  A    between atoms: C_2  and  C_3
REMARK    3  A    between atoms: C_6  and  O_7
REMARK    4  A    between atoms: O_7  and  C_8
REMARK    5  A    between atoms: C_8  and  C_9
REMARK                            x       y       z     vdW  Elec       q    Type
REMARK                         _______ _______ _______ _____ _____    ______ ____
ROOT
ATOM      1  C   UNL     1      45.819   5.683  12.335  0.00  0.00    +0.000 A 
ATOM      2  C   UNL     1      46.831   6.218  13.140  0.00  0.00    +0.000 A 
ATOM      3  C   UNL     1      47.423   5.428  14.121  0.00  0.00    +0.000 A 
ATOM      4  C   UNL     1      47.001   4.116  14.251  0.00  0.00    +0.000 A 
ATOM      5  N   UNL     1      46.028   3.561  13.496  0.00  0.00    +0.000 NA
ATOM      6  C   UNL     1      45.460   4.359  12.564  0.00  0.00    +0.000 A 
ENDROOT
BRANCH   1   7
ATOM      7  C   UNL     1      45.131   6.505  11.283  0.00  0.00    +0.000 C 
BRANCH   7   8
ATOM      8  N   UNL     1      45.142   5.842   9.985  0.00  0.00    +0.000 NA
ATOM      9  H   UNL     1      44.721   4.918  10.076  0.00  0.00    +0.000 HD
ATOM     10  H   UNL     1      46.109   5.686   9.698  0.00  0.00    +0.000 HD
ENDBRANCH   7   8
ENDBRANCH   1   7
BRANCH   4  11
ATOM     11  O   UNL     1      47.584   3.371  15.255  0.00  0.00    +0.000 OA
BRANCH  11  12
ATOM     12  C   UNL     1      47.334   3.912  16.562  0.00  0.00    +0.000 C 
BRANCH  12  13
ATOM     13  C   UNL     1      48.046   3.022  17.610  0.00  0.00    +0.000 C 
ATOM     14  C   UNL     1      49.496   2.699  17.223  0.00  0.00    +0.000 C 
ATOM     15  C   UNL     1      50.439   3.883  17.427  0.00  0.00    +0.000 C 
ATOM     16  C   UNL     1      50.272   4.489  18.817  0.00  0.00    +0.000 C 
ATOM     17  C   UNL     1      48.808   4.760  19.150  0.00  0.00    +0.000 C 
ATOM     18  N   UNL     1      47.987   3.562  18.985  0.00  0.00    +0.000 NA
ATOM     19  H   UNL     1      47.013   3.798  19.181  0.00  0.00    +0.000 HD
ENDBRANCH  12  13
ENDBRANCH  11  12
ENDBRANCH   4  11
TORSDOF 5
ENDMDL
MODEL 8
REMARK VINA RESULT:    -5.026      3.803      5.827
REMARK INTER + INTRA:          -6.736
REMARK INTER:                  -6.276
REMARK INTRA:                  -0.460
REMARK UNBOUND:                -0.388
REMARK  Name = 
REMARK  5 active torsions:
REMARK  status: ('A' for Active; 'I' for Inactive)
REMARK    1  A    between atoms: N_1  and  C_2
REMARK    2  A    between atoms: C_2  and  C_3
REMARK    3  A    between atoms: C_6  and  O_7
REMARK    4  A    between atoms: O_7  and  C_8
REMARK    5  A    between atoms: C_8  and  C_9
REMARK                            x       y       z     vdW  Elec       q    Type
REMARK                         _______ _______ _______ _____ _____    ______ ____
ROOT
ATOM      1  C   UNL     1      48.491   7.069  13.526  0.00  0.00    +0.000 A 
ATOM      2  C   UNL     1      47.593   6.845  12.477  0.00  0.00    +0.000 A 
ATOM      3  C   UNL     1      46.705   5.775  12.545  0.00  0.00    +0.000 A 
ATOM      4  C   UNL     1      46.726   4.974  13.673  0.00  0.00    +0.000 A 
ATOM      5  N   UNL     1      47.577   5.154  14.707  0.00  0.00    +0.000 NA
ATOM      6  C   UNL     1      48.439   6.191  14.604  0.00  0.00    +0.000 A 
ENDROOT
BRANCH   1   7
ATOM      7  C   UNL     1      49.487   8.193  13.487  0.00  0.00    +0.000 C 
BRANCH   7   8
ATOM      8  N   UNL     1      50.201   8.238  12.217  0.00  0.00    +0.000 NA
ATOM      9  H   UNL     1      49.563   8.542  11.484  0.00  0.00    +0.000 HD
ATOM     10  H   UNL     1      50.495   7.294  11.965  0.00  0.00    +0.000 HD
ENDBRANCH   7   8
ENDBRANCH   1   7
BRANCH   4  11
ATOM     11  O   UNL     1      45.858   3.902  13.692  0.00  0.00    +0.000 OA
BRANCH  11  12
ATOM     12  C   UNL     1      45.555   3.411  12.377  0.00  0.00    +0.000 C 
BRANCH  12  13
ATOM     13  C   UNL     1      44.029   3.167  12.280  0.00  0.00    +0.000 C 
ATOM     14  C   UNL     1      43.229   4.039  13.258  0.00  0.00    +0.000 C 
ATOM     15  C   UNL     1      43.136   5.495  12.810  0.00  0.00    +0.000 C 
ATOM     16  C   UNL     1      42.689   5.598  11.355  0.00  0.00    +0.000 C 
ATOM     17  C   UNL     1      43.504   4.689  10.440  0.00  0.00    +0.000 C 
ATOM     18  N   UNL     1      43.493   3.304  10.910  0.00  0.00    +0.000 NA
ATOM     19  H   UNL     1      44.080   2.740  10.291  0.00  0.00    +0.000 HD
ENDBRANCH  12  13
ENDBRANCH  11  12
ENDBRANCH   4  11
TORSDOF 5
ENDMDL
MODEL 9
REMARK VINA RESULT:    -4.903      3.404      5.418
REMARK INTER + INTRA:          -6.581
REMARK INTER:                  -6.239
REMARK INTRA:                  -0.341
REMARK UNBOUND:                -0.388
REMARK  Name = 
REMARK  5 active torsions:
REMARK  status: ('A' for Active; 'I' for Inactive)
REMARK    1  A    between atoms: N_1  and  C_2
REMARK    2  A    between atoms: C_2  and  C_3
REMARK    3  A    between atoms: C_6  and  O_7
REMARK    4  A    between atoms: O_7  and  C_8
REMARK    5  A    between atoms: C_8  and  C_9
REMARK                            x       y       z     vdW  Elec       q    Type
REMARK                         _______ _______ _______ _____ _____    ______ ____
ROOT
ATOM      1  C   UNL     1      44.143   4.234  11.483  0.00  0.00    +0.000 A 
ATOM      2  C   UNL     1      44.041   4.933  12.690  0.00  0.00    +0.000 A 
ATOM      3  C   UNL     1      44.691   6.155  12.838  0.00  0.00    +0.000 A 
ATOM      4  C   UNL     1      45.408   6.652  11.763  0.00  0.00    +0.000 A 
ATOM      5  N   UNL     1      45.533   6.009  10.581  0.00  0.00    +0.000 NA
ATOM      6  C   UNL     1      44.904   4.817  10.475  0.00  0.00    +0.000 A 
ENDROOT
BRANCH   1   7
ATOM      7  C   UNL     1      43.482   2.900  11.285  0.00  0.00    +0.000 C 
BRANCH   7   8
ATOM      8  N   UNL     1      43.511   2.096  12.501  0.00  0.00    +0.000 NA
ATOM      9  H   UNL     1      42.895   1.293  12.387  0.00  0.00    +0.000 HD
ATOM     10  H   UNL     1      43.127   2.643  13.272  0.00  0.00    +0.000 HD
ENDBRANCH   7   8
ENDBRANCH   1   7
BRANCH   4  11
ATOM     11  O   UNL     1      46.069   7.847  11.954  0.00  0.00    +0.000 OA
BRANCH  11  12
ATOM     12  C   UNL     1      47.035   7.782  13.015  0.00  0.00    +0.000 C 
BRANCH  12  13
ATOM     13  C   UNL     1      48.277   7.009  12.507  0.00  0.00    +0.000 C 
ATOM     14  C   UNL     1      49.124   7.833  11.526  0.00  0.00    +0.000 C 
ATOM     15  C   UNL     1      49.946   8.915  12.221  0.00  0.00    +0.000 C 
ATOM     16  C   UNL     1      50.719   8.346  13.407  0.00  0.00    +0.000 C 
ATOM     17  C   UNL     1      49.828   7.517  14.327  0.00  0.00    +0.000 C 
ATOM     18  N   UNL     1      49.123   6.469  13.591  0.00  0.00    +0.000 NA
ATOM     19  H   UNL     1      48.512   5.965  14.238  0.00  0.00    +0.000 HD
ENDBRANCH  12  13
ENDBRANCH  11  12
ENDBRANCH   4  11
TORSDOF 5
ENDMDL
