MODEL 1
REMARK VINA RESULT:    -8.527      0.000      0.000
REMARK INTER + INTRA:         -11.749
REMARK INTER:                 -11.019
REMARK INTRA:                  -0.730
REMARK UNBOUND:                -0.730
REMARK  Name = 
REMARK  5 active torsions:
REMARK  status: ('A' for Active; 'I' for Inactive)
REMARK    1  A    between atoms: C_2  and  C_4
REMARK    2  A    between atoms: C_7  and  O_8
REMARK    3  A    between atoms: O_8  and  C_9
REMARK    4  A    between atoms: C_9  and  C_10
REMARK    5  A    between atoms: C_14  and  C_15
REMARK                            x       y       z     vdW  Elec       q    Type
REMARK                         _______ _______ _______ _____ _____    ______ ____
ROOT
ATOM      1  C   UNL     1      43.494   4.678  10.953  0.00  0.00    +0.000 C 
ENDROOT
BRANCH   1   2
ATOM      2  C   UNL     1      44.710   4.927  11.799  0.00  0.00    +0.000 A 
ATOM      3  C   UNL     1      45.005   4.112  12.883  0.00  0.00    +0.000 A 
ATOM      4  N   UNL     1      46.034   4.327  13.727  0.00  0.00    +0.000 NA
ATOM      5  C   UNL     1      46.810   5.409  13.476  0.00  0.00    +0.000 A 
ATOM      6  C   UNL     1      46.637   6.300  12.413  0.00  0.00    +0.000 A 
ATOM      7  C   UNL     1      45.551   6.023  11.567  0.00  0.00    +0.000 A 
BRANCH   6   8
ATOM      8  C   UNL     1      47.529   7.461  12.199  0.00  0.00    +0.000 A 
ATOM      9  C   UNL     1      47.036   8.782  12.214  0.00  0.00    +0.000 A 
ATOM     10  C   UNL     1      47.876   9.884  12.010  0.00  0.00    +0.000 A 
ATOM     11  C   UNL     1      49.236   9.688  11.797  0.00  0.00    +0.000 A 
ATOM     12  C   UNL     1      49.739   8.397  11.782  0.00  0.00    +0.000 A 
ATOM     13  F   UNL     1      51.049   8.200  11.581  0.00  0.00    +0.000 F 
ATOM     14  C   UNL     1      48.907   7.296  11.973  0.00  0.00    +0.000 A 
ENDBRANCH   6   8
ENDBRANCH   1   2
BRANCH   1  15
ATOM     15  O   UNL     1      43.568   3.382  10.356  0.00  0.00    +0.000 OA
BRANCH  15  19
ATOM     16  C   UNL     1      46.433   2.600   7.512  0.00  0.00    +0.000 A 
ATOM     17  C   UNL     1      45.937   3.895   7.555  0.00  0.00    +0.000 A 
ATOM     18  C   UNL     1      44.964   4.206   8.505  0.00  0.00    +0.000 A 
ATOM     19  C   UNL     1      44.517   3.223   9.383  0.00  0.00    +0.000 A 
ATOM     20  C   UNL     1      45.082   1.953   9.265  0.00  0.00    +0.000 A 
ATOM     21  N   UNL     1      46.026   1.608   8.351  0.00  0.00    +0.000 NA
BRANCH  16  23
ATOM     22  N   UNL     1      47.414   2.974   5.322  0.00  0.00    +0.000 N 
ATOM     23  C   UNL     1      47.464   2.252   6.483  0.00  0.00    +0.000 C 
ATOM     24  O   UNL     1      48.308   1.385   6.664  0.00  0.00    +0.000 OA
ATOM     25  H   UNL     1      48.110   2.807   4.609  0.00  0.00    +0.000 HD
ATOM     26  H   UNL     1      46.733   3.717   5.217  0.00  0.00    +0.000 HD
ENDBRANCH  16  23
ENDBRANCH  15  19
ENDBRANCH   1  15
TORSDOF 5
ENDMDL
MODEL 2
REMARK VINA RESULT:    -8.524      1.265      1.638
REMARK INTER + INTRA:         -11.746
REMARK INTER:                 -10.989
REMARK INTRA:                  -0.756
REMARK UNBOUND:                -0.730
REMARK  Name = 
REMARK  5 active torsions:
REMARK  status: ('A' for Active; 'I' for Inactive)
REMARK    1  A    between atoms: C_2  and  C_4
REMARK    2  A    between atoms: C_7  and  O_8
REMARK    3  A    between atoms: O_8  and  C_9
REMARK    4  A    between atoms: C_9  and  C_10
REMARK    5  A    between atoms: C_14  and  C_15
REMARK                            x       y       z     vdW  Elec       q    Type
REMARK                         _______ _______ _______ _____ _____    ______ ____
ROOT
ATOM      1  C   UNL     1      43.987   5.277  10.811  0.00  0.00    +0.000 C 
ENDROOT
BRANCH   1   2
ATOM      2  C   UNL     1      45.070   5.183  11.848  0.00  0.00    +0.000 A 
ATOM      3  C   UNL     1      44.958   4.310  12.921  0.00  0.00    +0.000 A 
ATOM      4  N   UNL     1      45.854   4.233  13.925  0.00  0.00    +0.000 NA
ATOM      5  C   UNL     1      46.919   5.069  13.854  0.00  0.00    +0.000 A 
ATOM      6  C   UNL     1      47.165   5.980  12.824  0.00  0.00    +0.000 A 
ATOM      7  C   UNL     1      46.198   6.013  11.806  0.00  0.00    +0.000 A 
BRANCH   6   8
ATOM      8  C   UNL     1      48.355   6.860  12.812  0.00  0.00    +0.000 A 
ATOM      9  C   UNL     1      48.762   7.533  11.642  0.00  0.00    +0.000 A 
ATOM     10  C   UNL     1      49.890   8.364  11.625  0.00  0.00    +0.000 A 
ATOM     11  C   UNL     1      50.631   8.549  12.786  0.00  0.00    +0.000 A 
ATOM     12  C   UNL     1      50.243   7.899  13.947  0.00  0.00    +0.000 A 
ATOM     13  F   UNL     1      50.950   8.075  15.071  0.00  0.00    +0.000 F 
ATOM     14  C   UNL     1      49.130   7.062  13.967  0.00  0.00    +0.000 A 
ENDBRANCH   6   8
ENDBRANCH   1   2
BRANCH   1  15
ATOM     15  O   UNL     1      43.692   3.980  10.290  0.00  0.00    +0.000 OA
BRANCH  15  19
ATOM     16  C   UNL     1      46.437   2.742   7.490  0.00  0.00    +0.000 A 
ATOM     17  C   UNL     1      45.961   1.775   8.365  0.00  0.00    +0.000 A 
ATOM     18  C   UNL     1      45.027   2.150   9.330  0.00  0.00    +0.000 A 
ATOM     19  C   UNL     1      44.594   3.472   9.396  0.00  0.00    +0.000 A 
ATOM     20  C   UNL     1      45.126   4.367   8.469  0.00  0.00    +0.000 A 
ATOM     21  N   UNL     1      46.039   4.044   7.517  0.00  0.00    +0.000 NA
BRANCH  16  23
ATOM     22  N   UNL     1      47.397   3.040   5.280  0.00  0.00    +0.000 N 
ATOM     23  C   UNL     1      47.453   2.353   6.462  0.00  0.00    +0.000 C 
ATOM     24  O   UNL     1      48.291   1.484   6.659  0.00  0.00    +0.000 OA
ATOM     25  H   UNL     1      48.084   2.844   4.565  0.00  0.00    +0.000 HD
ATOM     26  H   UNL     1      46.722   3.786   5.159  0.00  0.00    +0.000 HD
ENDBRANCH  16  23
ENDBRANCH  15  19
ENDBRANCH   1  15
TORSDOF 5
ENDMDL
MODEL 3
REMARK VINA RESULT:    -8.480      1.668      2.151
REMARK INTER + INTRA:         -11.688
REMARK INTER:                 -10.941
REMARK INTRA:                  -0.747
REMARK UNBOUND:                -0.730
REMARK  Name = 
REMARK  5 active torsions:
REMARK  status: ('A' for Active; 'I' for Inactive)
REMARK    1  A    between atoms: C_2  and  C_4
REMARK    2  A    between atoms: C_7  and  O_8
REMARK    3  A    between atoms: O_8  and  C_9
REMARK    4  A    between atoms: C_9  and  C_10
REMARK    5  A    between atoms: C_14  and  C_15
REMARK                            x       y       z     vdW  Elec       q    Type
REMARK                         _______ _______ _______ _____ _____    ______ ____
ROOT
ATOM      1  C   UNL     1      43.969   3.561  11.680  0.00  0.00    +0.000 C 
ENDROOT
BRANCH   1   2
ATOM      2  C   UNL     1      45.183   4.268  12.216  0.00  0.00    +0.000 A 
ATOM      3  C   UNL     1      46.088   3.611  13.036  0.00  0.00    +0.000 A 
ATOM      4  N   UNL     1      47.151   4.207  13.612  0.00  0.00    +0.000 NA
ATOM      5  C   UNL     1      47.322   5.527  13.354  0.00  0.00    +0.000 A 
ATOM      6  C   UNL     1      46.499   6.303  12.533  0.00  0.00    +0.000 A 
ATOM      7  C   UNL     1      45.410   5.627  11.960  0.00  0.00    +0.000 A 
BRANCH   6   8
ATOM      8  C   UNL     1      46.751   7.741  12.294  0.00  0.00    +0.000 A 
ATOM      9  C   UNL     1      48.051   8.233  12.059  0.00  0.00    +0.000 A 
ATOM     10  C   UNL     1      48.295   9.594  11.835  0.00  0.00    +0.000 A 
ATOM     11  C   UNL     1      47.237  10.496  11.829  0.00  0.00    +0.000 A 
ATOM     12  C   UNL     1      45.951  10.030  12.053  0.00  0.00    +0.000 A 
ATOM     13  F   UNL     1      44.925  10.892  12.045  0.00  0.00    +0.000 F 
ATOM     14  C   UNL     1      45.703   8.679  12.289  0.00  0.00    +0.000 A 
ENDBRANCH   6   8
ENDBRANCH   1   2
BRANCH   1  15
ATOM     15  O   UNL     1      43.749   3.928  10.317  0.00  0.00    +0.000 OA
BRANCH  15  19
ATOM     16  C   UNL     1      46.482   2.724   7.490  0.00  0.00    +0.000 A 
ATOM     17  C   UNL     1      45.963   1.735   8.315  0.00  0.00    +0.000 A 
ATOM     18  C   UNL     1      45.032   2.098   9.287  0.00  0.00    +0.000 A 
ATOM     19  C   UNL     1      44.644   3.429   9.410  0.00  0.00    +0.000 A 
ATOM     20  C   UNL     1      45.216   4.347   8.529  0.00  0.00    +0.000 A 
ATOM     21  N   UNL     1      46.129   4.036   7.573  0.00  0.00    +0.000 NA
BRANCH  16  23
ATOM     22  N   UNL     1      47.429   3.039   5.277  0.00  0.00    +0.000 N 
ATOM     23  C   UNL     1      47.496   2.347   6.455  0.00  0.00    +0.000 C 
ATOM     24  O   UNL     1      48.341   1.483   6.644  0.00  0.00    +0.000 OA
ATOM     25  H   UNL     1      48.113   2.852   4.557  0.00  0.00    +0.000 HD
ATOM     26  H   UNL     1      46.748   3.780   5.163  0.00  0.00    +0.000 HD
ENDBRANCH  16  23
ENDBRANCH  15  19
ENDBRANCH   1  15
TORSDOF 5
ENDMDL
MODEL 4
REMARK VINA RESULT:    -8.354      3.771      7.425
REMARK INTER + INTRA:         -11.525
REMARK INTER:                 -11.010
REMARK INTRA:                  -0.516
REMARK UNBOUND:                -0.730
REMARK  Name = 
REMARK  5 active torsions:
REMARK  status: ('A' for Active; 'I' for Inactive)
REMARK    1  A    between atoms: C_2  and  C_4
REMARK    2  A    between atoms: C_7  and  O_8
REMARK    3  A    between atoms: O_8  and  C_9
REMARK    4  A    between atoms: C_9  and  C_10
REMARK    5  A    between atoms: C_14  and  C_15
REMARK                            x       y       z     vdW  Elec       q    Type
REMARK                         _______ _______ _______ _____ _____    ______ ____
ROOT
ATOM      1  C   UNL     1      46.107   7.105  12.066  0.00  0.00    +0.000 C 
ENDROOT
BRANCH   1   2
ATOM      2  C   UNL     1      45.296   6.171  11.213  0.00  0.00    +0.000 A 
ATOM      3  C   UNL     1      43.924   6.056  11.386  0.00  0.00    +0.000 A 
ATOM      4  N   UNL     1      43.152   5.182  10.709  0.00  0.00    +0.000 NA
ATOM      5  C   UNL     1      43.780   4.383   9.813  0.00  0.00    +0.000 A 
ATOM      6  C   UNL     1      45.148   4.407   9.528  0.00  0.00    +0.000 A 
ATOM      7  C   UNL     1      45.900   5.339  10.262  0.00  0.00    +0.000 A 
BRANCH   6   8
ATOM      8  C   UNL     1      45.765   3.505   8.530  0.00  0.00    +0.000 A 
ATOM      9  C   UNL     1      46.338   4.002   7.342  0.00  0.00    +0.000 A 
ATOM     10  C   UNL     1      46.920   3.151   6.393  0.00  0.00    +0.000 A 
ATOM     11  C   UNL     1      46.953   1.780   6.619  0.00  0.00    +0.000 A 
ATOM     12  C   UNL     1      46.398   1.274   7.783  0.00  0.00    +0.000 A 
ATOM     13  F   UNL     1      46.428  -0.046   8.011  0.00  0.00    +0.000 F 
ATOM     14  C   UNL     1      45.807   2.113   8.725  0.00  0.00    +0.000 A 
ENDBRANCH   6   8
ENDBRANCH   1   2
BRANCH   1  15
ATOM     15  O   UNL     1      47.370   6.515  12.376  0.00  0.00    +0.000 OA
BRANCH  15  19
ATOM     16  C   UNL     1      47.505   4.562  15.993  0.00  0.00    +0.000 A 
ATOM     17  C   UNL     1      48.274   5.711  15.877  0.00  0.00    +0.000 A 
ATOM     18  C   UNL     1      48.258   6.407  14.669  0.00  0.00    +0.000 A 
ATOM     19  C   UNL     1      47.477   5.941  13.614  0.00  0.00    +0.000 A 
ATOM     20  C   UNL     1      46.734   4.781  13.831  0.00  0.00    +0.000 A 
ATOM     21  N   UNL     1      46.726   4.072  14.989  0.00  0.00    +0.000 NA
BRANCH  16  23
ATOM     22  N   UNL     1      48.447   4.218  18.204  0.00  0.00    +0.000 N 
ATOM     23  C   UNL     1      47.530   3.798  17.280  0.00  0.00    +0.000 C 
ATOM     24  O   UNL     1      46.775   2.862  17.506  0.00  0.00    +0.000 OA
ATOM     25  H   UNL     1      48.482   3.763  19.105  0.00  0.00    +0.000 HD
ATOM     26  H   UNL     1      49.030   5.024  18.009  0.00  0.00    +0.000 HD
ENDBRANCH  16  23
ENDBRANCH  15  19
ENDBRANCH   1  15
TORSDOF 5
ENDMDL
MODEL 5
REMARK VINA RESULT:    -8.333      3.567      6.751
REMARK INTER + INTRA:         -11.498
REMARK INTER:                 -10.677
REMARK INTRA:                  -0.821
REMARK UNBOUND:                -0.730
REMARK  Name = 
REMARK  5 active torsions:
REMARK  status: ('A' for Active; 'I' for Inactive)
REMARK    1  A    between atoms: C_2  and  C_4
REMARK    2  A    between atoms: C_7  and  O_8
REMARK    3  A    between atoms: O_8  and  C_9
REMARK    4  A    between atoms: C_9  and  C_10
REMARK    5  A    between atoms: C_14  and  C_15
REMARK                            x       y       z     vdW  Elec       q    Type
REMARK                         _______ _______ _______ _____ _____    ______ ____
ROOT
ATOM      1  C   UNL     1      44.213   6.451  11.802  0.00  0.00    +0.000 C 
ENDROOT
BRANCH   1   2
ATOM      2  C   UNL     1      44.082   5.064  11.240  0.00  0.00    +0.000 A 
ATOM      3  C   UNL     1      43.235   4.133  11.825  0.00  0.00    +0.000 A 
ATOM      4  N   UNL     1      43.131   2.852  11.419  0.00  0.00    +0.000 NA
ATOM      5  C   UNL     1      43.910   2.480  10.374  0.00  0.00    +0.000 A 
ATOM      6  C   UNL     1      44.790   3.318   9.683  0.00  0.00    +0.000 A 
ATOM      7  C   UNL     1      44.854   4.640  10.149  0.00  0.00    +0.000 A 
BRANCH   6   8
ATOM      8  C   UNL     1      45.607   2.841   8.545  0.00  0.00    +0.000 A 
ATOM      9  C   UNL     1      46.037   3.717   7.528  0.00  0.00    +0.000 A 
ATOM     10  C   UNL     1      46.808   3.270   6.447  0.00  0.00    +0.000 A 
ATOM     11  C   UNL     1      47.177   1.933   6.366  0.00  0.00    +0.000 A 
ATOM     12  C   UNL     1      46.767   1.057   7.359  0.00  0.00    +0.000 A 
ATOM     13  F   UNL     1      47.122  -0.233   7.291  0.00  0.00    +0.000 F 
ATOM     14  C   UNL     1      45.990   1.493   8.430  0.00  0.00    +0.000 A 
ENDBRANCH   6   8
ENDBRANCH   1   2
BRANCH   1  15
ATOM     15  O   UNL     1      45.061   6.437  12.951  0.00  0.00    +0.000 OA
BRANCH  15  19
ATOM     16  C   UNL     1      49.007   7.500  12.498  0.00  0.00    +0.000 A 
ATOM     17  C   UNL     1      48.063   8.397  12.020  0.00  0.00    +0.000 A 
ATOM     18  C   UNL     1      46.712   8.078  12.153  0.00  0.00    +0.000 A 
ATOM     19  C   UNL     1      46.341   6.881  12.759  0.00  0.00    +0.000 A 
ATOM     20  C   UNL     1      47.364   6.049  13.214  0.00  0.00    +0.000 A 
ATOM     21  N   UNL     1      48.690   6.320  13.099  0.00  0.00    +0.000 NA
BRANCH  16  23
ATOM     22  N   UNL     1      51.197   7.829  13.496  0.00  0.00    +0.000 N 
ATOM     23  C   UNL     1      50.461   7.825  12.343  0.00  0.00    +0.000 C 
ATOM     24  O   UNL     1      50.970   8.064  11.256  0.00  0.00    +0.000 OA
ATOM     25  H   UNL     1      52.190   8.005  13.445  0.00  0.00    +0.000 HD
ATOM     26  H   UNL     1      50.759   7.583  14.376  0.00  0.00    +0.000 HD
ENDBRANCH  16  23
ENDBRANCH  15  19
ENDBRANCH   1  15
TORSDOF 5
ENDMDL
MODEL 6
REMARK VINA RESULT:    -7.993      1.553      2.073
REMARK INTER + INTRA:         -11.059
REMARK INTER:                 -10.367
REMARK INTRA:                  -0.692
REMARK UNBOUND:                -0.730
REMARK  Name = 
REMARK  5 active torsions:
REMARK  status: ('A' for Active; 'I' for Inactive)
REMARK    1  A    between atoms: C_2  and  C_4
REMARK    2  A    between atoms: C_7  and  O_8
REMARK    3  A    between atoms: O_8  and  C_9
REMARK    4  A    between atoms: C_9  and  C_10
REMARK    5  A    between atoms: C_14  and  C_15
REMARK                            x       y       z     vdW  Elec       q    Type
REMARK                         _______ _______ _______ _____ _____    ______ ____
ROOT
ATOM      1  C   UNL     1      44.192   3.424  11.585  0.00  0.00    +0.000 C 
ENDROOT
BRANCH   1   2
ATOM      2  C   UNL     1      44.566   4.874  11.718  0.00  0.00    +0.000 A 
ATOM      3  C   UNL     1      43.666   5.876  11.385  0.00  0.00    +0.000 A 
ATOM      4  N   UNL     1      43.965   7.191  11.407  0.00  0.00    +0.000 NA
ATOM      5  C   UNL     1      45.224   7.523  11.782  0.00  0.00    +0.000 A 
ATOM      6  C   UNL     1      46.220   6.618  12.159  0.00  0.00    +0.000 A 
ATOM      7  C   UNL     1      45.850   5.264  12.119  0.00  0.00    +0.000 A 
BRANCH   6   8
ATOM      8  C   UNL     1      47.575   7.055  12.562  0.00  0.00    +0.000 A 
ATOM      9  C   UNL     1      48.091   6.771  13.843  0.00  0.00    +0.000 A 
ATOM     10  C   UNL     1      49.372   7.185  14.230  0.00  0.00    +0.000 A 
ATOM     11  C   UNL     1      50.173   7.886  13.336  0.00  0.00    +0.000 A 
ATOM     12  C   UNL     1      49.684   8.171  12.071  0.00  0.00    +0.000 A 
ATOM     13  F   UNL     1      50.452   8.843  11.202  0.00  0.00    +0.000 F 
ATOM     14  C   UNL     1      48.407   7.772  11.684  0.00  0.00    +0.000 A 
ENDBRANCH   6   8
ENDBRANCH   1   2
BRANCH   1  15
ATOM     15  O   UNL     1      43.663   3.171  10.282  0.00  0.00    +0.000 OA
BRANCH  15  19
ATOM     16  C   UNL     1      46.384   2.802   7.222  0.00  0.00    +0.000 A 
ATOM     17  C   UNL     1      46.204   1.689   8.031  0.00  0.00    +0.000 A 
ATOM     18  C   UNL     1      45.289   1.769   9.081  0.00  0.00    +0.000 A 
ATOM     19  C   UNL     1      44.582   2.949   9.293  0.00  0.00    +0.000 A 
ATOM     20  C   UNL     1      44.828   4.009   8.421  0.00  0.00    +0.000 A 
ATOM     21  N   UNL     1      45.712   3.974   7.390  0.00  0.00    +0.000 NA
BRANCH  16  23
ATOM     22  N   UNL     1      48.665   2.453   6.467  0.00  0.00    +0.000 N 
ATOM     23  C   UNL     1      47.377   2.731   6.103  0.00  0.00    +0.000 C 
ATOM     24  O   UNL     1      47.064   2.901   4.932  0.00  0.00    +0.000 OA
ATOM     25  H   UNL     1      49.370   2.356   5.749  0.00  0.00    +0.000 HD
ATOM     26  H   UNL     1      48.889   2.272   7.439  0.00  0.00    +0.000 HD
ENDBRANCH  16  23
ENDBRANCH  15  19
ENDBRANCH   1  15
TORSDOF 5
ENDMDL
MODEL 7
REMARK VINA RESULT:    -7.896      2.707      3.518
REMARK INTER + INTRA:         -10.934
REMARK INTER:                 -10.341
REMARK INTRA:                  -0.593
REMARK UNBOUND:                -0.730
REMARK  Name = 
REMARK  5 active torsions:
REMARK  status: ('A' for Active; 'I' for Inactive)
REMARK    1  A    between atoms: C_2  and  C_4
REMARK    2  A    between atoms: C_7  and  O_8
REMARK    3  A    between atoms: O_8  and  C_9
REMARK    4  A    between atoms: C_9  and  C_10
REMARK    5  A    between atoms: C_14  and  C_15
REMARK                            x       y       z     vdW  Elec       q    Type
REMARK                         _______ _______ _______ _____ _____    ______ ____
ROOT
ATOM      1  C   UNL     1      44.053   3.055  11.566  0.00  0.00    +0.000 C 
ENDROOT
BRANCH   1   2
ATOM      2  C   UNL     1      44.668   4.304  12.133  0.00  0.00    +0.000 A 
ATOM      3  C   UNL     1      44.373   5.550  11.599  0.00  0.00    +0.000 A 
ATOM      4  N   UNL     1      44.949   6.698  12.009  0.00  0.00    +0.000 NA
ATOM      5  C   UNL     1      45.864   6.598  13.004  0.00  0.00    +0.000 A 
ATOM      6  C   UNL     1      46.239   5.412  13.641  0.00  0.00    +0.000 A 
ATOM      7  C   UNL     1      45.604   4.251  13.173  0.00  0.00    +0.000 A 
BRANCH   6   8
ATOM      8  C   UNL     1      47.244   5.381  14.726  0.00  0.00    +0.000 A 
ATOM      9  C   UNL     1      48.241   6.372  14.836  0.00  0.00    +0.000 A 
ATOM     10  C   UNL     1      49.197   6.345  15.860  0.00  0.00    +0.000 A 
ATOM     11  C   UNL     1      49.169   5.329  16.807  0.00  0.00    +0.000 A 
ATOM     12  C   UNL     1      48.194   4.348  16.717  0.00  0.00    +0.000 A 
ATOM     13  F   UNL     1      48.158   3.366  17.629  0.00  0.00    +0.000 F 
ATOM     14  C   UNL     1      47.248   4.362  15.695  0.00  0.00    +0.000 A 
ENDBRANCH   6   8
ENDBRANCH   1   2
BRANCH   1  15
ATOM     15  O   UNL     1      43.646   3.278  10.215  0.00  0.00    +0.000 OA
BRANCH  15  19
ATOM     16  C   UNL     1      46.423   2.728   7.232  0.00  0.00    +0.000 A 
ATOM     17  C   UNL     1      46.156   1.634   8.043  0.00  0.00    +0.000 A 
ATOM     18  C   UNL     1      45.220   1.774   9.067  0.00  0.00    +0.000 A 
ATOM     19  C   UNL     1      44.577   2.995   9.252  0.00  0.00    +0.000 A 
ATOM     20  C   UNL     1      44.908   4.032   8.381  0.00  0.00    +0.000 A 
ATOM     21  N   UNL     1      45.817   3.939   7.375  0.00  0.00    +0.000 NA
BRANCH  16  23
ATOM     22  N   UNL     1      48.657   2.095   6.520  0.00  0.00    +0.000 N 
ATOM     23  C   UNL     1      47.440   2.592   6.141  0.00  0.00    +0.000 C 
ATOM     24  O   UNL     1      47.204   2.894   4.979  0.00  0.00    +0.000 OA
ATOM     25  H   UNL     1      49.368   1.947   5.818  0.00  0.00    +0.000 HD
ATOM     26  H   UNL     1      48.811   1.811   7.481  0.00  0.00    +0.000 HD
ENDBRANCH  16  23
ENDBRANCH  15  19
ENDBRANCH   1  15
TORSDOF 5
ENDMDL
MODEL 8
REMARK VINA RESULT:    -7.069      3.429      6.799
REMARK INTER + INTRA:          -9.865
REMARK INTER:                  -9.420
REMARK INTRA:                  -0.445
REMARK UNBOUND:                -0.730
REMARK  Name = 
REMARK  5 active torsions:
REMARK  status: ('A' for Active; 'I' for Inactive)
REMARK    1  A    between atoms: C_2  and  C_4
REMARK    2  A    between atoms: C_7  and  O_8
REMARK    3  A    between atoms: O_8  and  C_9
REMARK    4  A    between atoms: C_9  and  C_10
REMARK    5  A    between atoms: C_14  and  C_15
REMARK                            x       y       z     vdW  Elec       q    Type
REMARK                         _______ _______ _______ _____ _____    ______ ____
ROOT
ATOM      1  C   UNL     1      44.203   3.333  12.951  0.00  0.00    +0.000 C 
ENDROOT
BRANCH   1   2
ATOM      2  C   UNL     1      44.203   3.728  11.501  0.00  0.00    +0.000 A 
ATOM      3  C   UNL     1      43.362   4.728  11.033  0.00  0.00    +0.000 A 
ATOM      4  N   UNL     1      43.256   5.075   9.735  0.00  0.00    +0.000 NA
ATOM      5  C   UNL     1      44.030   4.391   8.857  0.00  0.00    +0.000 A 
ATOM      6  C   UNL     1      44.931   3.376   9.194  0.00  0.00    +0.000 A 
ATOM      7  C   UNL     1      44.999   3.061  10.560  0.00  0.00    +0.000 A 
BRANCH   6   8
ATOM      8  C   UNL     1      45.749   2.675   8.180  0.00  0.00    +0.000 A 
ATOM      9  C   UNL     1      46.143   1.332   8.350  0.00  0.00    +0.000 A 
ATOM     10  C   UNL     1      46.919   0.665   7.394  0.00  0.00    +0.000 A 
ATOM     11  C   UNL     1      47.310   1.326   6.235  0.00  0.00    +0.000 A 
ATOM     12  C   UNL     1      46.928   2.645   6.049  0.00  0.00    +0.000 A 
ATOM     13  F   UNL     1      47.298   3.288   4.932  0.00  0.00    +0.000 F 
ATOM     14  C   UNL     1      46.167   3.318   7.001  0.00  0.00    +0.000 A 
ENDBRANCH   6   8
ENDBRANCH   1   2
BRANCH   1  15
ATOM     15  O   UNL     1      44.340   4.492  13.775  0.00  0.00    +0.000 OA
BRANCH  15  19
ATOM     16  C   UNL     1      47.964   6.412  13.473  0.00  0.00    +0.000 A 
ATOM     17  C   UNL     1      46.889   7.006  12.827  0.00  0.00    +0.000 A 
ATOM     18  C   UNL     1      45.641   6.390  12.903  0.00  0.00    +0.000 A 
ATOM     19  C   UNL     1      45.498   5.206  13.620  0.00  0.00    +0.000 A 
ATOM     20  C   UNL     1      46.635   4.691  14.241  0.00  0.00    +0.000 A 
ATOM     21  N   UNL     1      47.869   5.256  14.186  0.00  0.00    +0.000 NA
BRANCH  16  23
ATOM     22  N   UNL     1      49.620   7.624  12.175  0.00  0.00    +0.000 N 
ATOM     23  C   UNL     1      49.313   7.056  13.381  0.00  0.00    +0.000 C 
ATOM     24  O   UNL     1      50.094   7.087  14.322  0.00  0.00    +0.000 OA
ATOM     25  H   UNL     1      50.502   8.105  12.069  0.00  0.00    +0.000 HD
ATOM     26  H   UNL     1      48.938   7.623  11.426  0.00  0.00    +0.000 HD
ENDBRANCH  16  23
ENDBRANCH  15  19
ENDBRANCH   1  15
TORSDOF 5
ENDMDL
MODEL 9
REMARK VINA RESULT:    -6.790      4.658      8.519
REMARK INTER + INTRA:          -9.505
REMARK INTER:                  -8.827
REMARK INTRA:                  -0.678
REMARK UNBOUND:                -0.730
REMARK  Name = 
REMARK  5 active torsions:
REMARK  status: ('A' for Active; 'I' for Inactive)
REMARK    1  A    between atoms: C_2  and  C_4
REMARK    2  A    between atoms: C_7  and  O_8
REMARK    3  A    between atoms: O_8  and  C_9
REMARK    4  A    between atoms: C_9  and  C_10
REMARK    5  A    between atoms: C_14  and  C_15
REMARK                            x       y       z     vdW  Elec       q    Type
REMARK                         _______ _______ _______ _____ _____    ______ ____
ROOT
ATOM      1  C   UNL     1      48.305   7.275  14.141  0.00  0.00    +0.000 C 
ENDROOT
BRANCH   1   2
ATOM      2  C   UNL     1      47.157   7.352  13.175  0.00  0.00    +0.000 A 
ATOM      3  C   UNL     1      46.360   8.485  13.102  0.00  0.00    +0.000 A 
ATOM      4  N   UNL     1      45.269   8.587  12.316  0.00  0.00    +0.000 NA
ATOM      5  C   UNL     1      44.960   7.504  11.561  0.00  0.00    +0.000 A 
ATOM      6  C   UNL     1      45.685   6.310  11.525  0.00  0.00    +0.000 A 
ATOM      7  C   UNL     1      46.811   6.264  12.363  0.00  0.00    +0.000 A 
BRANCH   6   8
ATOM      8  C   UNL     1      45.288   5.169  10.671  0.00  0.00    +0.000 A 
ATOM      9  C   UNL     1      45.626   5.120   9.303  0.00  0.00    +0.000 A 
ATOM     10  C   UNL     1      45.249   4.043   8.490  0.00  0.00    +0.000 A 
ATOM     11  C   UNL     1      44.535   2.981   9.032  0.00  0.00    +0.000 A 
ATOM     12  C   UNL     1      44.198   3.011  10.376  0.00  0.00    +0.000 A 
ATOM     13  F   UNL     1      43.512   1.989  10.908  0.00  0.00    +0.000 F 
ATOM     14  C   UNL     1      44.559   4.084  11.188  0.00  0.00    +0.000 A 
ENDBRANCH   6   8
ENDBRANCH   1   2
BRANCH   1  15
ATOM     15  O   UNL     1      48.544   5.917  14.515  0.00  0.00    +0.000 OA
BRANCH  15  19
ATOM     16  C   UNL     1      48.159   5.249  18.554  0.00  0.00    +0.000 A 
ATOM     17  C   UNL     1      47.424   4.424  17.714  0.00  0.00    +0.000 A 
ATOM     18  C   UNL     1      47.525   4.614  16.336  0.00  0.00    +0.000 A 
ATOM     19  C   UNL     1      48.353   5.615  15.836  0.00  0.00    +0.000 A 
ATOM     20  C   UNL     1      49.056   6.386  16.760  0.00  0.00    +0.000 A 
ATOM     21  N   UNL     1      48.983   6.238  18.108  0.00  0.00    +0.000 NA
BRANCH  16  23
ATOM     22  N   UNL     1      48.658   3.954  20.547  0.00  0.00    +0.000 N 
ATOM     23  C   UNL     1      48.044   5.065  20.035  0.00  0.00    +0.000 C 
ATOM     24  O   UNL     1      47.448   5.856  20.753  0.00  0.00    +0.000 OA
ATOM     25  H   UNL     1      48.643   3.800  21.545  0.00  0.00    +0.000 HD
ATOM     26  H   UNL     1      49.182   3.339  19.936  0.00  0.00    +0.000 HD
ENDBRANCH  16  23
ENDBRANCH  15  19
ENDBRANCH   1  15
TORSDOF 5
ENDMDL
