MODEL 1
REMARK VINA RESULT:    -8.034      0.000      0.000
REMARK INTER + INTRA:          -8.673
REMARK INTER:                  -9.444
REMARK INTRA:                   0.771
REMARK UNBOUND:                 0.771
REMARK  Name = 
REMARK  5 active torsions:
REMARK  status: ('A' for Active; 'I' for Inactive)
REMARK    1  A    between atoms: C_1  and  N_2
REMARK    2  A    between atoms: C_3  and  C_5
REMARK    3  A    between atoms: N_9  and  C_10
REMARK    4  A    between atoms: C_10  and  C_11
REMARK    5  A    between atoms: C_10  and  C_12
REMARK                            x       y       z     vdW  Elec       q    Type
REMARK                         _______ _______ _______ _____ _____    ______ ____
ROOT
ATOM      1  C   UNL     1      46.920   5.387  13.481  0.00  0.00    +0.000 A 
ATOM      2  C   UNL     1      47.068   6.269  12.438  0.00  0.00    +0.000 A 
ATOM      3  N   UNL     1      46.374   6.188  11.279  0.00  0.00    +0.000 NA
ATOM      4  C   UNL     1      45.506   5.173  11.154  0.00  0.00    +0.000 A 
ATOM      5  N   UNL     1      44.740   5.180  10.011  0.00  0.00    +0.000 N 
ATOM      6  N   UNL     1      45.338   4.227  12.091  0.00  0.00    +0.000 NA
ATOM      7  C   UNL     1      46.051   4.352  13.236  0.00  0.00    +0.000 A 
ATOM      8  H   UNL     1      45.143   5.816   9.338  0.00  0.00    +0.000 HD
ENDROOT
BRANCH   1  11
ATOM      9  C   UNL     1      47.790   4.763  17.104  0.00  0.00    +0.000 C 
ATOM     10  N   UNL     1      47.131   4.760  15.820  0.00  0.00    +0.000 N 
ATOM     11  C   UNL     1      47.634   5.496  14.765  0.00  0.00    +0.000 C 
ATOM     12  O   UNL     1      48.642   6.189  14.842  0.00  0.00    +0.000 OA
ATOM     13  H   UNL     1      46.418   4.061  15.664  0.00  0.00    +0.000 HD
ENDBRANCH   1  11
BRANCH   5  14
ATOM     14  C   UNL     1      44.230   3.920   9.497  0.00  0.00    +0.000 C 
ATOM     15  C   UNL     1      43.775   3.012  10.644  0.00  0.00    +0.000 C 
BRANCH  14  16
ATOM     16  C   UNL     1      45.308   3.267   8.639  0.00  0.00    +0.000 A 
ATOM     17  C   UNL     1      45.532   1.883   8.757  0.00  0.00    +0.000 A 
ATOM     18  C   UNL     1      46.488   1.240   7.968  0.00  0.00    +0.000 A 
ATOM     19  C   UNL     1      47.231   1.966   7.043  0.00  0.00    +0.000 A 
ATOM     20  C   UNL     1      47.025   3.337   6.913  0.00  0.00    +0.000 A 
ATOM     21  C   UNL     1      46.072   3.985   7.705  0.00  0.00    +0.000 A 
ENDBRANCH  14  16
ENDBRANCH   5  14
TORSDOF 3
ENDMDL
MODEL 2
REMARK VINA RESULT:    -7.805      1.525      2.205
REMARK INTER + INTRA:          -8.403
REMARK INTER:                  -7.976
REMARK INTRA:                  -0.426
REMARK UNBOUND:                 0.771
REMARK  Name = 
REMARK  5 active torsions:
REMARK  status: ('A' for Active; 'I' for Inactive)
REMARK    1  A    between atoms: C_1  and  N_2
REMARK    2  A    between atoms: C_3  and  C_5
REMARK    3  A    between atoms: N_9  and  C_10
REMARK    4  A    between atoms: C_10  and  C_11
REMARK    5  A    between atoms: C_10  and  C_12
REMARK                            x       y       z     vdW  Elec       q    Type
REMARK                         _______ _______ _______ _____ _____    ______ ____
ROOT
ATOM      1  C   UNL     1      47.853   5.886  14.707  0.00  0.00    +0.000 A 
ATOM      2  C   UNL     1      47.224   4.742  15.136  0.00  0.00    +0.000 A 
ATOM      3  N   UNL     1      46.374   4.017  14.372  0.00  0.00    +0.000 NA
ATOM      4  C   UNL     1      46.132   4.465  13.131  0.00  0.00    +0.000 A 
ATOM      5  N   UNL     1      45.348   3.651  12.345  0.00  0.00    +0.000 N 
ATOM      6  N   UNL     1      46.648   5.604  12.644  0.00  0.00    +0.000 NA
ATOM      7  C   UNL     1      47.497   6.294  13.444  0.00  0.00    +0.000 A 
ATOM      8  H   UNL     1      44.881   2.970  12.926  0.00  0.00    +0.000 HD
ENDROOT
BRANCH   1  11
ATOM      9  C   UNL     1      49.216   7.979  17.540  0.00  0.00    +0.000 C 
ATOM     10  N   UNL     1      48.336   7.248  16.660  0.00  0.00    +0.000 N 
ATOM     11  C   UNL     1      48.819   6.653  15.512  0.00  0.00    +0.000 C 
ATOM     12  O   UNL     1      49.993   6.705  15.164  0.00  0.00    +0.000 OA
ATOM     13  H   UNL     1      47.413   7.023  17.007  0.00  0.00    +0.000 HD
ENDBRANCH   1  11
BRANCH   5  14
ATOM     14  C   UNL     1      44.569   4.246  11.273  0.00  0.00    +0.000 C 
ATOM     15  C   UNL     1      43.087   3.887  11.417  0.00  0.00    +0.000 C 
BRANCH  14  16
ATOM     16  C   UNL     1      45.145   3.789   9.936  0.00  0.00    +0.000 A 
ATOM     17  C   UNL     1      45.161   2.416   9.631  0.00  0.00    +0.000 A 
ATOM     18  C   UNL     1      45.649   1.958   8.406  0.00  0.00    +0.000 A 
ATOM     19  C   UNL     1      46.126   2.863   7.463  0.00  0.00    +0.000 A 
ATOM     20  C   UNL     1      46.121   4.227   7.748  0.00  0.00    +0.000 A 
ATOM     21  C   UNL     1      45.635   4.688   8.976  0.00  0.00    +0.000 A 
ENDBRANCH  14  16
ENDBRANCH   5  14
TORSDOF 3
ENDMDL
MODEL 3
REMARK VINA RESULT:    -7.325      2.617      7.490
REMARK INTER + INTRA:          -7.839
REMARK INTER:                  -7.389
REMARK INTRA:                  -0.450
REMARK UNBOUND:                 0.771
REMARK  Name = 
REMARK  5 active torsions:
REMARK  status: ('A' for Active; 'I' for Inactive)
REMARK    1  A    between atoms: C_1  and  N_2
REMARK    2  A    between atoms: C_3  and  C_5
REMARK    3  A    between atoms: N_9  and  C_10
REMARK    4  A    between atoms: C_10  and  C_11
REMARK    5  A    between atoms: C_10  and  C_12
REMARK                            x       y       z     vdW  Elec       q    Type
REMARK                         _______ _______ _______ _____ _____    ______ ____
ROOT
ATOM      1  C   UNL     1      45.772   4.449  12.318  0.00  0.00    +0.000 A 
ATOM      2  C   UNL     1      46.071   5.710  12.776  0.00  0.00    +0.000 A 
ATOM      3  N   UNL     1      46.721   5.956  13.937  0.00  0.00    +0.000 NA
ATOM      4  C   UNL     1      47.075   4.896  14.678  0.00  0.00    +0.000 A 
ATOM      5  N   UNL     1      47.826   5.174  15.797  0.00  0.00    +0.000 N 
ATOM      6  N   UNL     1      46.773   3.631  14.347  0.00  0.00    +0.000 NA
ATOM      7  C   UNL     1      46.124   3.433  13.174  0.00  0.00    +0.000 A 
ATOM      8  H   UNL     1      47.771   6.160  16.005  0.00  0.00    +0.000 HD
ENDROOT
BRANCH   1  11
ATOM      9  C   UNL     1      44.443   2.475   9.385  0.00  0.00    +0.000 C 
ATOM     10  N   UNL     1      45.110   2.855  10.607  0.00  0.00    +0.000 N 
ATOM     11  C   UNL     1      45.110   4.169  11.033  0.00  0.00    +0.000 C 
ATOM     12  O   UNL     1      44.566   5.080  10.420  0.00  0.00    +0.000 OA
ATOM     13  H   UNL     1      45.401   2.114  11.230  0.00  0.00    +0.000 HD
ENDBRANCH   1  11
BRANCH   5  14
ATOM     14  C   UNL     1      47.772   4.261  16.926  0.00  0.00    +0.000 C 
ATOM     15  C   UNL     1      47.257   4.977  18.178  0.00  0.00    +0.000 C 
BRANCH  14  16
ATOM     16  C   UNL     1      49.158   3.659  17.137  0.00  0.00    +0.000 A 
ATOM     17  C   UNL     1      50.206   4.490  17.572  0.00  0.00    +0.000 A 
ATOM     18  C   UNL     1      51.482   3.974  17.808  0.00  0.00    +0.000 A 
ATOM     19  C   UNL     1      51.731   2.618  17.619  0.00  0.00    +0.000 A 
ATOM     20  C   UNL     1      50.706   1.780  17.187  0.00  0.00    +0.000 A 
ATOM     21  C   UNL     1      49.429   2.295  16.946  0.00  0.00    +0.000 A 
ENDBRANCH  14  16
ENDBRANCH   5  14
TORSDOF 3
ENDMDL
MODEL 4
REMARK VINA RESULT:    -7.162      2.258      2.933
REMARK INTER + INTRA:          -7.647
REMARK INTER:                  -7.238
REMARK INTRA:                  -0.409
REMARK UNBOUND:                 0.771
REMARK  Name = 
REMARK  5 active torsions:
REMARK  status: ('A' for Active; 'I' for Inactive)
REMARK    1  A    between atoms: C_1  and  N_2
REMARK    2  A    between atoms: C_3  and  C_5
REMARK    3  A    between atoms: N_9  and  C_10
REMARK    4  A    between atoms: C_10  and  C_11
REMARK    5  A    between atoms: C_10  and  C_12
REMARK                            x       y       z     vdW  Elec       q    Type
REMARK                         _______ _______ _______ _____ _____    ______ ____
ROOT
ATOM      1  C   UNL     1      48.575   7.018  13.515  0.00  0.00    +0.000 A 
ATOM      2  C   UNL     1      47.832   6.226  14.357  0.00  0.00    +0.000 A 
ATOM      3  N   UNL     1      46.781   5.476  13.954  0.00  0.00    +0.000 NA
ATOM      4  C   UNL     1      46.450   5.531  12.656  0.00  0.00    +0.000 A 
ATOM      5  N   UNL     1      45.447   4.677  12.258  0.00  0.00    +0.000 N 
ATOM      6  N   UNL     1      47.074   6.321  11.769  0.00  0.00    +0.000 NA
ATOM      7  C   UNL     1      48.124   7.052  12.217  0.00  0.00    +0.000 A 
ATOM      8  H   UNL     1      44.957   4.331  13.070  0.00  0.00    +0.000 HD
ENDROOT
BRANCH   1  11
ATOM      9  C   UNL     1      52.014   8.575  13.377  0.00  0.00    +0.000 C 
ATOM     10  N   UNL     1      50.834   7.800  13.077  0.00  0.00    +0.000 N 
ATOM     11  C   UNL     1      49.752   7.799  13.934  0.00  0.00    +0.000 C 
ATOM     12  O   UNL     1      49.716   8.433  14.982  0.00  0.00    +0.000 OA
ATOM     13  H   UNL     1      50.750   7.423  12.142  0.00  0.00    +0.000 HD
ENDBRANCH   1  11
BRANCH   5  14
ATOM     14  C   UNL     1      44.638   5.030  11.104  0.00  0.00    +0.000 C 
ATOM     15  C   UNL     1      43.147   4.864  11.416  0.00  0.00    +0.000 C 
BRANCH  14  16
ATOM     16  C   UNL     1      45.076   4.176   9.918  0.00  0.00    +0.000 A 
ATOM     17  C   UNL     1      44.832   2.791   9.944  0.00  0.00    +0.000 A 
ATOM     18  C   UNL     1      45.188   1.978   8.867  0.00  0.00    +0.000 A 
ATOM     19  C   UNL     1      45.789   2.535   7.742  0.00  0.00    +0.000 A 
ATOM     20  C   UNL     1      46.040   3.904   7.698  0.00  0.00    +0.000 A 
ATOM     21  C   UNL     1      45.688   4.721   8.778  0.00  0.00    +0.000 A 
ENDBRANCH  14  16
ENDBRANCH   5  14
TORSDOF 3
ENDMDL
MODEL 5
REMARK VINA RESULT:    -6.412      2.701      8.694
REMARK INTER + INTRA:          -6.765
REMARK INTER:                  -6.318
REMARK INTRA:                  -0.447
REMARK UNBOUND:                 0.771
REMARK  Name = 
REMARK  5 active torsions:
REMARK  status: ('A' for Active; 'I' for Inactive)
REMARK    1  A    between atoms: C_1  and  N_2
REMARK    2  A    between atoms: C_3  and  C_5
REMARK    3  A    between atoms: N_9  and  C_10
REMARK    4  A    between atoms: C_10  and  C_11
REMARK    5  A    between atoms: C_10  and  C_12
REMARK                            x       y       z     vdW  Elec       q    Type
REMARK                         _______ _______ _______ _____ _____    ______ ____
ROOT
ATOM      1  C   UNL     1      46.652   4.854  13.198  0.00  0.00    +0.000 A 
ATOM      2  C   UNL     1      46.785   3.549  13.608  0.00  0.00    +0.000 A 
ATOM      3  N   UNL     1      47.366   3.181  14.774  0.00  0.00    +0.000 NA
ATOM      4  C   UNL     1      47.847   4.159  15.555  0.00  0.00    +0.000 A 
ATOM      5  N   UNL     1      48.334   3.761  16.779  0.00  0.00    +0.000 N 
ATOM      6  N   UNL     1      47.821   5.457  15.212  0.00  0.00    +0.000 NA
ATOM      7  C   UNL     1      47.226   5.778  14.038  0.00  0.00    +0.000 A 
ATOM      8  H   UNL     1      48.476   2.761  16.776  0.00  0.00    +0.000 HD
ENDROOT
BRANCH   1  11
ATOM      9  C   UNL     1      44.263   4.757  10.274  0.00  0.00    +0.000 C 
ATOM     10  N   UNL     1      45.013   4.415  11.458  0.00  0.00    +0.000 N 
ATOM     11  C   UNL     1      45.977   5.268  11.956  0.00  0.00    +0.000 C 
ATOM     12  O   UNL     1      46.262   6.344  11.441  0.00  0.00    +0.000 OA
ATOM     13  H   UNL     1      44.679   3.638  12.013  0.00  0.00    +0.000 HD
ENDBRANCH   1  11
BRANCH   5  14
ATOM     14  C   UNL     1      49.354   4.566  17.427  0.00  0.00    +0.000 C 
ATOM     15  C   UNL     1      50.640   3.758  17.624  0.00  0.00    +0.000 C 
BRANCH  14  16
ATOM     16  C   UNL     1      48.799   5.094  18.746  0.00  0.00    +0.000 A 
ATOM     17  C   UNL     1      48.085   6.306  18.752  0.00  0.00    +0.000 A 
ATOM     18  C   UNL     1      47.532   6.809  19.931  0.00  0.00    +0.000 A 
ATOM     19  C   UNL     1      47.680   6.109  21.124  0.00  0.00    +0.000 A 
ATOM     20  C   UNL     1      48.386   4.908  21.139  0.00  0.00    +0.000 A 
ATOM     21  C   UNL     1      48.943   4.403  19.960  0.00  0.00    +0.000 A 
ENDBRANCH  14  16
ENDBRANCH   5  14
TORSDOF 3
ENDMDL
MODEL 6
REMARK VINA RESULT:    -6.106      2.771      8.436
REMARK INTER + INTRA:          -6.406
REMARK INTER:                  -5.985
REMARK INTRA:                  -0.421
REMARK UNBOUND:                 0.771
REMARK  Name = 
REMARK  5 active torsions:
REMARK  status: ('A' for Active; 'I' for Inactive)
REMARK    1  A    between atoms: C_1  and  N_2
REMARK    2  A    between atoms: C_3  and  C_5
REMARK    3  A    between atoms: N_9  and  C_10
REMARK    4  A    between atoms: C_10  and  C_11
REMARK    5  A    between atoms: C_10  and  C_12
REMARK                            x       y       z     vdW  Elec       q    Type
REMARK                         _______ _______ _______ _____ _____    ______ ____
ROOT
ATOM      1  C   UNL     1      46.059   4.464  12.751  0.00  0.00    +0.000 A 
ATOM      2  C   UNL     1      46.440   3.466  13.615  0.00  0.00    +0.000 A 
ATOM      3  N   UNL     1      47.126   3.682  14.761  0.00  0.00    +0.000 NA
ATOM      4  C   UNL     1      47.457   4.950  15.047  0.00  0.00    +0.000 A 
ATOM      5  N   UNL     1      48.059   5.148  16.268  0.00  0.00    +0.000 N 
ATOM      6  N   UNL     1      47.186   5.984  14.236  0.00  0.00    +0.000 NA
ATOM      7  C   UNL     1      46.494   5.720  13.101  0.00  0.00    +0.000 A 
ATOM      8  H   UNL     1      48.376   4.263  16.636  0.00  0.00    +0.000 HD
ENDROOT
BRANCH   1  11
ATOM      9  C   UNL     1      44.386   2.625   9.907  0.00  0.00    +0.000 C 
ATOM     10  N   UNL     1      45.179   2.945  11.070  0.00  0.00    +0.000 N 
ATOM     11  C   UNL     1      45.269   4.245  11.527  0.00  0.00    +0.000 C 
ATOM     12  O   UNL     1      44.706   5.193  10.991  0.00  0.00    +0.000 OA
ATOM     13  H   UNL     1      45.497   2.176  11.643  0.00  0.00    +0.000 HD
ENDBRANCH   1  11
BRANCH   5  14
ATOM     14  C   UNL     1      48.946   6.286  16.440  0.00  0.00    +0.000 C 
ATOM     15  C   UNL     1      50.382   5.820  16.702  0.00  0.00    +0.000 C 
BRANCH  14  16
ATOM     16  C   UNL     1      48.410   7.160  17.570  0.00  0.00    +0.000 A 
ATOM     17  C   UNL     1      48.320   8.550  17.375  0.00  0.00    +0.000 A 
ATOM     18  C   UNL     1      47.807   9.384  18.371  0.00  0.00    +0.000 A 
ATOM     19  C   UNL     1      47.369   8.842  19.575  0.00  0.00    +0.000 A 
ATOM     20  C   UNL     1      47.452   7.468  19.788  0.00  0.00    +0.000 A 
ATOM     21  C   UNL     1      47.970   6.632  18.793  0.00  0.00    +0.000 A 
ENDBRANCH  14  16
ENDBRANCH   5  14
TORSDOF 3
ENDMDL
MODEL 7
REMARK VINA RESULT:    -6.085      3.293      5.214
REMARK INTER + INTRA:          -6.381
REMARK INTER:                  -6.864
REMARK INTRA:                   0.483
REMARK UNBOUND:                 0.771
REMARK  Name = 
REMARK  5 active torsions:
REMARK  status: ('A' for Active; 'I' for Inactive)
REMARK    1  A    between atoms: C_1  and  N_2
REMARK    2  A    between atoms: C_3  and  C_5
REMARK    3  A    between atoms: N_9  and  C_10
REMARK    4  A    between atoms: C_10  and  C_11
REMARK    5  A    between atoms: C_10  and  C_12
REMARK                            x       y       z     vdW  Elec       q    Type
REMARK                         _______ _______ _______ _____ _____    ______ ____
ROOT
ATOM      1  C   UNL     1      48.512   4.600  18.186  0.00  0.00    +0.000 A 
ATOM      2  C   UNL     1      47.349   3.885  18.034  0.00  0.00    +0.000 A 
ATOM      3  N   UNL     1      46.759   3.650  16.839  0.00  0.00    +0.000 NA
ATOM      4  C   UNL     1      47.351   4.165  15.751  0.00  0.00    +0.000 A 
ATOM      5  N   UNL     1      46.787   3.821  14.544  0.00  0.00    +0.000 N 
ATOM      6  N   UNL     1      48.453   4.930  15.804  0.00  0.00    +0.000 NA
ATOM      7  C   UNL     1      49.011   5.135  17.022  0.00  0.00    +0.000 A 
ATOM      8  H   UNL     1      45.866   3.437  14.700  0.00  0.00    +0.000 HD
ENDROOT
BRANCH   1  11
ATOM      9  C   UNL     1      51.299   4.762  20.731  0.00  0.00    +0.000 C 
ATOM     10  N   UNL     1      50.539   4.533  19.526  0.00  0.00    +0.000 N 
ATOM     11  C   UNL     1      49.189   4.818  19.476  0.00  0.00    +0.000 C 
ATOM     12  O   UNL     1      48.556   5.267  20.424  0.00  0.00    +0.000 OA
ATOM     13  H   UNL     1      51.057   4.348  18.677  0.00  0.00    +0.000 HD
ENDBRANCH   1  11
BRANCH   5  14
ATOM     14  C   UNL     1      46.942   4.718  13.412  0.00  0.00    +0.000 C 
ATOM     15  C   UNL     1      47.087   6.168  13.885  0.00  0.00    +0.000 C 
BRANCH  14  16
ATOM     16  C   UNL     1      45.753   4.534  12.474  0.00  0.00    +0.000 A 
ATOM     17  C   UNL     1      45.264   5.646  11.765  0.00  0.00    +0.000 A 
ATOM     18  C   UNL     1      44.198   5.516  10.872  0.00  0.00    +0.000 A 
ATOM     19  C   UNL     1      43.606   4.273  10.669  0.00  0.00    +0.000 A 
ATOM     20  C   UNL     1      44.075   3.161  11.364  0.00  0.00    +0.000 A 
ATOM     21  C   UNL     1      45.140   3.289  12.262  0.00  0.00    +0.000 A 
ENDBRANCH  14  16
ENDBRANCH   5  14
TORSDOF 3
ENDMDL
MODEL 8
REMARK VINA RESULT:    -5.960      3.402      4.943
REMARK INTER + INTRA:          -6.235
REMARK INTER:                  -5.921
REMARK INTRA:                  -0.314
REMARK UNBOUND:                 0.771
REMARK  Name = 
REMARK  5 active torsions:
REMARK  status: ('A' for Active; 'I' for Inactive)
REMARK    1  A    between atoms: C_1  and  N_2
REMARK    2  A    between atoms: C_3  and  C_5
REMARK    3  A    between atoms: N_9  and  C_10
REMARK    4  A    between atoms: C_10  and  C_11
REMARK    5  A    between atoms: C_10  and  C_12
REMARK                            x       y       z     vdW  Elec       q    Type
REMARK                         _______ _______ _______ _____ _____    ______ ____
ROOT
ATOM      1  C   UNL     1      50.542   7.858  13.856  0.00  0.00    +0.000 A 
ATOM      2  C   UNL     1      49.849   7.184  14.833  0.00  0.00    +0.000 A 
ATOM      3  N   UNL     1      48.680   6.538  14.618  0.00  0.00    +0.000 NA
ATOM      4  C   UNL     1      48.175   6.579  13.376  0.00  0.00    +0.000 A 
ATOM      5  N   UNL     1      47.044   5.826  13.166  0.00  0.00    +0.000 N 
ATOM      6  N   UNL     1      48.745   7.264  12.372  0.00  0.00    +0.000 NA
ATOM      7  C   UNL     1      49.916   7.892  12.633  0.00  0.00    +0.000 A 
ATOM      8  H   UNL     1      46.641   5.565  14.054  0.00  0.00    +0.000 HD
ENDROOT
BRANCH   1  11
ATOM      9  C   UNL     1      54.284   8.373  13.884  0.00  0.00    +0.000 C 
ATOM     10  N   UNL     1      52.969   7.791  13.757  0.00  0.00    +0.000 N 
ATOM     11  C   UNL     1      51.840   8.522  14.068  0.00  0.00    +0.000 C 
ATOM     12  O   UNL     1      51.870   9.680  14.467  0.00  0.00    +0.000 OA
ATOM     13  H   UNL     1      52.893   6.917  13.254  0.00  0.00    +0.000 HD
ENDBRANCH   1  11
BRANCH   5  14
ATOM     14  C   UNL     1      46.119   6.221  12.117  0.00  0.00    +0.000 C 
ATOM     15  C   UNL     1      45.317   7.456  12.538  0.00  0.00    +0.000 C 
BRANCH  14  16
ATOM     16  C   UNL     1      45.218   5.035  11.785  0.00  0.00    +0.000 A 
ATOM     17  C   UNL     1      44.583   4.344  12.832  0.00  0.00    +0.000 A 
ATOM     18  C   UNL     1      43.725   3.273  12.570  0.00  0.00    +0.000 A 
ATOM     19  C   UNL     1      43.484   2.879  11.258  0.00  0.00    +0.000 A 
ATOM     20  C   UNL     1      44.105   3.550  10.208  0.00  0.00    +0.000 A 
ATOM     21  C   UNL     1      44.967   4.620  10.467  0.00  0.00    +0.000 A 
ENDBRANCH  14  16
ENDBRANCH   5  14
TORSDOF 3
ENDMDL
MODEL 9
REMARK VINA RESULT:    -5.506      2.872      7.147
REMARK INTER + INTRA:          -5.700
REMARK INTER:                  -5.282
REMARK INTRA:                  -0.419
REMARK UNBOUND:                 0.771
REMARK  Name = 
REMARK  5 active torsions:
REMARK  status: ('A' for Active; 'I' for Inactive)
REMARK    1  A    between atoms: C_1  and  N_2
REMARK    2  A    between atoms: C_3  and  C_5
REMARK    3  A    between atoms: N_9  and  C_10
REMARK    4  A    between atoms: C_10  and  C_11
REMARK    5  A    between atoms: C_10  and  C_12
REMARK                            x       y       z     vdW  Elec       q    Type
REMARK                         _______ _______ _______ _____ _____    ______ ____
ROOT
ATOM      1  C   UNL     1      45.231   4.427  11.215  0.00  0.00    +0.000 A 
ATOM      2  C   UNL     1      45.794   5.447  10.487  0.00  0.00    +0.000 A 
ATOM      3  N   UNL     1      46.603   6.394  11.015  0.00  0.00    +0.000 NA
ATOM      4  C   UNL     1      46.850   6.324  12.332  0.00  0.00    +0.000 A 
ATOM      5  N   UNL     1      47.759   7.235  12.818  0.00  0.00    +0.000 N 
ATOM      6  N   UNL     1      46.297   5.404  13.138  0.00  0.00    +0.000 NA
ATOM      7  C   UNL     1      45.496   4.474  12.563  0.00  0.00    +0.000 A 
ATOM      8  H   UNL     1      47.899   7.968  12.139  0.00  0.00    +0.000 HD
ENDROOT
BRANCH   1  11
ATOM      9  C   UNL     1      44.249   1.449   9.110  0.00  0.00    +0.000 C 
ATOM     10  N   UNL     1      44.978   2.549   9.694  0.00  0.00    +0.000 N 
ATOM     11  C   UNL     1      44.390   3.363  10.640  0.00  0.00    +0.000 C 
ATOM     12  O   UNL     1      43.239   3.220  11.037  0.00  0.00    +0.000 OA
ATOM     13  H   UNL     1      45.977   2.581   9.537  0.00  0.00    +0.000 HD
ENDBRANCH   1  11
BRANCH   5  14
ATOM     14  C   UNL     1      47.675   7.638  14.211  0.00  0.00    +0.000 C 
ATOM     15  C   UNL     1      47.341   9.129  14.325  0.00  0.00    +0.000 C 
BRANCH  14  16
ATOM     16  C   UNL     1      48.989   7.289  14.904  0.00  0.00    +0.000 A 
ATOM     17  C   UNL     1      50.182   7.874  14.444  0.00  0.00    +0.000 A 
ATOM     18  C   UNL     1      51.402   7.606  15.068  0.00  0.00    +0.000 A 
ATOM     19  C   UNL     1      51.450   6.753  16.166  0.00  0.00    +0.000 A 
ATOM     20  C   UNL     1      50.279   6.161  16.635  0.00  0.00    +0.000 A 
ATOM     21  C   UNL     1      49.057   6.425  16.009  0.00  0.00    +0.000 A 
ENDBRANCH  14  16
ENDBRANCH   5  14
TORSDOF 3
ENDMDL
