MODEL 1
REMARK VINA RESULT:    -8.462      0.000      0.000
REMARK INTER + INTRA:         -11.156
REMARK INTER:                 -10.441
REMARK INTRA:                  -0.715
REMARK UNBOUND:                -0.715
REMARK  Name = 
REMARK  4 active torsions:
REMARK  status: ('A' for Active; 'I' for Inactive)
REMARK    1  A    between atoms: C_2  and  C_4
REMARK    2  A    between atoms: C_7  and  C_8
REMARK    3  A    between atoms: C_8  and  C_9
REMARK    4  A    between atoms: C_9  and  C_10
REMARK                            x       y       z     vdW  Elec       q    Type
REMARK                         _______ _______ _______ _____ _____    ______ ____
ROOT
ATOM      1  C   UNL     1      46.443   2.457   7.721  0.00  0.00    +0.000 A 
ATOM      2  C   UNL     1      45.658   1.797   8.664  0.00  0.00    +0.000 A 
ATOM      3  C   UNL     1      44.793   2.537   9.473  0.00  0.00    +0.000 A 
ATOM      4  C   UNL     1      44.759   3.926   9.358  0.00  0.00    +0.000 A 
ATOM      5  N   UNL     1      45.533   4.579   8.451  0.00  0.00    +0.000 NA
ATOM      6  C   UNL     1      46.358   3.838   7.666  0.00  0.00    +0.000 A 
ENDROOT
BRANCH   1   8
ATOM      7  N   UNL     1      48.405   2.450   6.286  0.00  0.00    +0.000 N 
ATOM      8  C   UNL     1      47.344   1.747   6.788  0.00  0.00    +0.000 C 
ATOM      9  O   UNL     1      47.180   0.567   6.509  0.00  0.00    +0.000 OA
ATOM     10  H   UNL     1      49.075   1.922   5.741  0.00  0.00    +0.000 HD
ATOM     11  H   UNL     1      48.720   3.321   6.690  0.00  0.00    +0.000 HD
ENDBRANCH   1   8
BRANCH   4  12
ATOM     12  C   UNL     1      43.781   4.784  10.137  0.00  0.00    +0.000 C 
BRANCH  12  13
ATOM     13  C   UNL     1      44.014   4.851  11.646  0.00  0.00    +0.000 C 
ATOM     14  C   UNL     1      43.264   3.857  12.521  0.00  0.00    +0.000 C 
ATOM     15  C   UNL     1      42.826   5.283  12.508  0.00  0.00    +0.000 C 
BRANCH  13  16
ATOM     16  C   UNL     1      45.371   5.389  12.102  0.00  0.00    +0.000 A 
ATOM     17  C   UNL     1      46.072   4.780  13.162  0.00  0.00    +0.000 A 
ATOM     18  C   UNL     1      47.327   5.241  13.568  0.00  0.00    +0.000 A 
ATOM     19  C   UNL     1      47.894   6.332  12.925  0.00  0.00    +0.000 A 
ATOM     20  F   UNL     1      49.094   6.780  13.312  0.00  0.00    +0.000 F 
ATOM     21  C   UNL     1      47.231   6.965  11.883  0.00  0.00    +0.000 A 
ATOM     22  C   UNL     1      45.983   6.489  11.474  0.00  0.00    +0.000 A 
ENDBRANCH  13  16
ENDBRANCH  12  13
ENDBRANCH   4  12
TORSDOF 4
ENDMDL
MODEL 2
REMARK VINA RESULT:    -8.290      0.687      1.544
REMARK INTER + INTRA:         -10.944
REMARK INTER:                 -10.354
REMARK INTRA:                  -0.590
REMARK UNBOUND:                -0.715
REMARK  Name = 
REMARK  4 active torsions:
REMARK  status: ('A' for Active; 'I' for Inactive)
REMARK    1  A    between atoms: C_2  and  C_4
REMARK    2  A    between atoms: C_7  and  C_8
REMARK    3  A    between atoms: C_8  and  C_9
REMARK    4  A    between atoms: C_9  and  C_10
REMARK                            x       y       z     vdW  Elec       q    Type
REMARK                         _______ _______ _______ _____ _____    ______ ____
ROOT
ATOM      1  C   UNL     1      46.367   2.296   7.820  0.00  0.00    +0.000 A 
ATOM      2  C   UNL     1      46.362   3.672   7.612  0.00  0.00    +0.000 A 
ATOM      3  C   UNL     1      45.500   4.475   8.362  0.00  0.00    +0.000 A 
ATOM      4  C   UNL     1      44.626   3.885   9.274  0.00  0.00    +0.000 A 
ATOM      5  N   UNL     1      44.614   2.541   9.473  0.00  0.00    +0.000 NA
ATOM      6  C   UNL     1      45.470   1.780   8.741  0.00  0.00    +0.000 A 
ENDROOT
BRANCH   1   8
ATOM      7  N   UNL     1      48.326   1.942   6.425  0.00  0.00    +0.000 N 
ATOM      8  C   UNL     1      47.284   1.379   7.110  0.00  0.00    +0.000 C 
ATOM      9  O   UNL     1      47.150   0.164   7.166  0.00  0.00    +0.000 OA
ATOM     10  H   UNL     1      49.008   1.301   6.040  0.00  0.00    +0.000 HD
ATOM     11  H   UNL     1      48.619   2.898   6.571  0.00  0.00    +0.000 HD
ENDBRANCH   1   8
BRANCH   4  12
ATOM     12  C   UNL     1      43.730   4.699  10.187  0.00  0.00    +0.000 C 
BRANCH  12  13
ATOM     13  C   UNL     1      44.077   4.646  11.675  0.00  0.00    +0.000 C 
ATOM     14  C   UNL     1      43.466   3.524  12.501  0.00  0.00    +0.000 C 
ATOM     15  C   UNL     1      42.934   4.909  12.658  0.00  0.00    +0.000 C 
BRANCH  13  16
ATOM     16  C   UNL     1      45.426   5.241  12.081  0.00  0.00    +0.000 A 
ATOM     17  C   UNL     1      45.962   6.352  11.398  0.00  0.00    +0.000 A 
ATOM     18  C   UNL     1      47.177   6.925  11.779  0.00  0.00    +0.000 A 
ATOM     19  C   UNL     1      47.883   6.384  12.843  0.00  0.00    +0.000 A 
ATOM     20  F   UNL     1      49.051   6.928  13.209  0.00  0.00    +0.000 F 
ATOM     21  C   UNL     1      47.394   5.285  13.534  0.00  0.00    +0.000 A 
ATOM     22  C   UNL     1      46.171   4.726  13.157  0.00  0.00    +0.000 A 
ENDBRANCH  13  16
ENDBRANCH  12  13
ENDBRANCH   4  12
TORSDOF 4
ENDMDL
MODEL 3
REMARK VINA RESULT:    -7.959      1.243      1.695
REMARK INTER + INTRA:         -10.535
REMARK INTER:                  -9.807
REMARK INTRA:                  -0.728
REMARK UNBOUND:                -0.715
REMARK  Name = 
REMARK  4 active torsions:
REMARK  status: ('A' for Active; 'I' for Inactive)
REMARK    1  A    between atoms: C_2  and  C_4
REMARK    2  A    between atoms: C_7  and  C_8
REMARK    3  A    between atoms: C_8  and  C_9
REMARK    4  A    between atoms: C_9  and  C_10
REMARK                            x       y       z     vdW  Elec       q    Type
REMARK                         _______ _______ _______ _____ _____    ______ ____
ROOT
ATOM      1  C   UNL     1      46.470   2.555   7.669  0.00  0.00    +0.000 A 
ATOM      2  C   UNL     1      46.374   3.944   7.655  0.00  0.00    +0.000 A 
ATOM      3  C   UNL     1      45.469   4.576   8.510  0.00  0.00    +0.000 A 
ATOM      4  C   UNL     1      44.644   3.809   9.332  0.00  0.00    +0.000 A 
ATOM      5  N   UNL     1      44.721   2.452   9.341  0.00  0.00    +0.000 NA
ATOM      6  C   UNL     1      45.617   1.858   8.510  0.00  0.00    +0.000 A 
ENDROOT
BRANCH   1   8
ATOM      7  N   UNL     1      48.530   2.493   6.381  0.00  0.00    +0.000 N 
ATOM      8  C   UNL     1      47.437   1.808   6.837  0.00  0.00    +0.000 C 
ATOM      9  O   UNL     1      47.296   0.615   6.601  0.00  0.00    +0.000 OA
ATOM     10  H   UNL     1      49.239   1.943   5.911  0.00  0.00    +0.000 HD
ATOM     11  H   UNL     1      48.814   3.383   6.765  0.00  0.00    +0.000 HD
ENDBRANCH   1   8
BRANCH   4  12
ATOM     12  C   UNL     1      43.706   4.428  10.350  0.00  0.00    +0.000 C 
BRANCH  12  13
ATOM     13  C   UNL     1      44.306   4.684  11.733  0.00  0.00    +0.000 C 
ATOM     14  C   UNL     1      44.584   3.475  12.615  0.00  0.00    +0.000 C 
ATOM     15  C   UNL     1      43.422   4.354  12.938  0.00  0.00    +0.000 C 
BRANCH  13  16
ATOM     16  C   UNL     1      45.156   5.946  11.884  0.00  0.00    +0.000 A 
ATOM     17  C   UNL     1      46.521   5.861  12.227  0.00  0.00    +0.000 A 
ATOM     18  C   UNL     1      47.318   7.004  12.337  0.00  0.00    +0.000 A 
ATOM     19  C   UNL     1      46.755   8.252  12.117  0.00  0.00    +0.000 A 
ATOM     20  F   UNL     1      47.513   9.350  12.225  0.00  0.00    +0.000 F 
ATOM     21  C   UNL     1      45.413   8.377  11.787  0.00  0.00    +0.000 A 
ATOM     22  C   UNL     1      44.626   7.230  11.665  0.00  0.00    +0.000 A 
ENDBRANCH  13  16
ENDBRANCH  12  13
ENDBRANCH   4  12
TORSDOF 4
ENDMDL
MODEL 4
REMARK VINA RESULT:    -6.715      4.109      6.539
REMARK INTER + INTRA:          -9.000
REMARK INTER:                  -8.652
REMARK INTRA:                  -0.348
REMARK UNBOUND:                -0.715
REMARK  Name = 
REMARK  4 active torsions:
REMARK  status: ('A' for Active; 'I' for Inactive)
REMARK    1  A    between atoms: C_2  and  C_4
REMARK    2  A    between atoms: C_7  and  C_8
REMARK    3  A    between atoms: C_8  and  C_9
REMARK    4  A    between atoms: C_9  and  C_10
REMARK                            x       y       z     vdW  Elec       q    Type
REMARK                         _______ _______ _______ _____ _____    ______ ____
ROOT
ATOM      1  C   UNL     1      47.952   5.941  14.667  0.00  0.00    +0.000 A 
ATOM      2  C   UNL     1      47.668   6.277  13.346  0.00  0.00    +0.000 A 
ATOM      3  C   UNL     1      46.720   5.535  12.639  0.00  0.00    +0.000 A 
ATOM      4  C   UNL     1      46.104   4.443  13.249  0.00  0.00    +0.000 A 
ATOM      5  N   UNL     1      46.385   4.099  14.533  0.00  0.00    +0.000 NA
ATOM      6  C   UNL     1      47.303   4.842  15.206  0.00  0.00    +0.000 A 
ENDROOT
BRANCH   1   8
ATOM      7  N   UNL     1      48.370   7.535  16.454  0.00  0.00    +0.000 N 
ATOM      8  C   UNL     1      48.901   6.705  15.504  0.00  0.00    +0.000 C 
ATOM      9  O   UNL     1      50.112   6.572  15.389  0.00  0.00    +0.000 OA
ATOM     10  H   UNL     1      49.028   7.963  17.094  0.00  0.00    +0.000 HD
ATOM     11  H   UNL     1      47.407   7.472  16.754  0.00  0.00    +0.000 HD
ENDBRANCH   1   8
BRANCH   4  12
ATOM     12  C   UNL     1      45.000   3.651  12.576  0.00  0.00    +0.000 C 
BRANCH  12  13
ATOM     13  C   UNL     1      44.416   4.274  11.307  0.00  0.00    +0.000 C 
ATOM     14  C   UNL     1      43.862   5.688  11.408  0.00  0.00    +0.000 C 
ATOM     15  C   UNL     1      42.910   4.544  11.303  0.00  0.00    +0.000 C 
BRANCH  13  16
ATOM     16  C   UNL     1      44.985   3.773   9.979  0.00  0.00    +0.000 A 
ATOM     17  C   UNL     1      45.515   4.675   9.034  0.00  0.00    +0.000 A 
ATOM     18  C   UNL     1      46.068   4.229   7.830  0.00  0.00    +0.000 A 
ATOM     19  C   UNL     1      46.084   2.872   7.549  0.00  0.00    +0.000 A 
ATOM     20  F   UNL     1      46.609   2.440   6.395  0.00  0.00    +0.000 F 
ATOM     21  C   UNL     1      45.563   1.954   8.449  0.00  0.00    +0.000 A 
ATOM     22  C   UNL     1      45.026   2.405   9.656  0.00  0.00    +0.000 A 
ENDBRANCH  13  16
ENDBRANCH  12  13
ENDBRANCH   4  12
TORSDOF 4
ENDMDL
MODEL 5
REMARK VINA RESULT:    -5.791      3.871      6.333
REMARK INTER + INTRA:          -7.861
REMARK INTER:                  -8.654
REMARK INTRA:                   0.794
REMARK UNBOUND:                -0.715
REMARK  Name = 
REMARK  4 active torsions:
REMARK  status: ('A' for Active; 'I' for Inactive)
REMARK    1  A    between atoms: C_2  and  C_4
REMARK    2  A    between atoms: C_7  and  C_8
REMARK    3  A    between atoms: C_8  and  C_9
REMARK    4  A    between atoms: C_9  and  C_10
REMARK                            x       y       z     vdW  Elec       q    Type
REMARK                         _______ _______ _______ _____ _____    ______ ____
ROOT
ATOM      1  C   UNL     1      46.659   7.845  12.792  0.00  0.00    +0.000 A 
ATOM      2  C   UNL     1      45.504   8.422  12.271  0.00  0.00    +0.000 A 
ATOM      3  C   UNL     1      44.599   7.627  11.565  0.00  0.00    +0.000 A 
ATOM      4  C   UNL     1      44.885   6.279  11.352  0.00  0.00    +0.000 A 
ATOM      5  N   UNL     1      46.017   5.711  11.845  0.00  0.00    +0.000 NA
ATOM      6  C   UNL     1      46.878   6.500  12.539  0.00  0.00    +0.000 A 
ENDROOT
BRANCH   1   8
ATOM      7  N   UNL     1      47.651   8.376  14.947  0.00  0.00    +0.000 N 
ATOM      8  C   UNL     1      47.643   8.600  13.597  0.00  0.00    +0.000 C 
ATOM      9  O   UNL     1      48.449   9.362  13.079  0.00  0.00    +0.000 OA
ATOM     10  H   UNL     1      48.402   8.811  15.468  0.00  0.00    +0.000 HD
ATOM     11  H   UNL     1      47.196   7.579  15.368  0.00  0.00    +0.000 HD
ENDBRANCH   1   8
BRANCH   4  12
ATOM     12  C   UNL     1      43.908   5.336  10.677  0.00  0.00    +0.000 C 
BRANCH  12  13
ATOM     13  C   UNL     1      44.324   3.866  10.641  0.00  0.00    +0.000 C 
ATOM     14  C   UNL     1      43.447   2.867  11.383  0.00  0.00    +0.000 C 
ATOM     15  C   UNL     1      44.768   3.243  11.966  0.00  0.00    +0.000 C 
BRANCH  13  16
ATOM     16  C   UNL     1      45.121   3.414   9.416  0.00  0.00    +0.000 A 
ATOM     17  C   UNL     1      45.675   4.356   8.526  0.00  0.00    +0.000 A 
ATOM     18  C   UNL     1      46.433   3.959   7.422  0.00  0.00    +0.000 A 
ATOM     19  C   UNL     1      46.635   2.607   7.184  0.00  0.00    +0.000 A 
ATOM     20  F   UNL     1      47.356   2.221   6.124  0.00  0.00    +0.000 F 
ATOM     21  C   UNL     1      46.097   1.650   8.030  0.00  0.00    +0.000 A 
ATOM     22  C   UNL     1      45.353   2.054   9.141  0.00  0.00    +0.000 A 
ENDBRANCH  13  16
ENDBRANCH  12  13
ENDBRANCH   4  12
TORSDOF 4
ENDMDL
MODEL 6
REMARK VINA RESULT:    -5.727      4.386      6.798
REMARK INTER + INTRA:          -7.782
REMARK INTER:                  -7.933
REMARK INTRA:                   0.152
REMARK UNBOUND:                -0.715
REMARK  Name = 
REMARK  4 active torsions:
REMARK  status: ('A' for Active; 'I' for Inactive)
REMARK    1  A    between atoms: C_2  and  C_4
REMARK    2  A    between atoms: C_7  and  C_8
REMARK    3  A    between atoms: C_8  and  C_9
REMARK    4  A    between atoms: C_9  and  C_10
REMARK                            x       y       z     vdW  Elec       q    Type
REMARK                         _______ _______ _______ _____ _____    ______ ____
ROOT
ATOM      1  C   UNL     1      47.638   4.217  16.030  0.00  0.00    +0.000 A 
ATOM      2  C   UNL     1      48.079   5.537  15.987  0.00  0.00    +0.000 A 
ATOM      3  C   UNL     1      48.017   6.241  14.783  0.00  0.00    +0.000 A 
ATOM      4  C   UNL     1      47.558   5.602  13.632  0.00  0.00    +0.000 A 
ATOM      5  N   UNL     1      47.139   4.309  13.662  0.00  0.00    +0.000 NA
ATOM      6  C   UNL     1      47.197   3.646  14.847  0.00  0.00    +0.000 A 
ENDROOT
BRANCH   1   8
ATOM      7  N   UNL     1      48.772   3.369  18.006  0.00  0.00    +0.000 N 
ATOM      8  C   UNL     1      47.618   3.417  17.273  0.00  0.00    +0.000 C 
ATOM      9  O   UNL     1      46.601   2.856  17.660  0.00  0.00    +0.000 OA
ATOM     10  H   UNL     1      48.711   2.914  18.908  0.00  0.00    +0.000 HD
ATOM     11  H   UNL     1      49.533   4.018  17.865  0.00  0.00    +0.000 HD
ENDBRANCH   1   8
BRANCH   4  12
ATOM     12  C   UNL     1      47.376   6.328  12.314  0.00  0.00    +0.000 C 
BRANCH  12  13
ATOM     13  C   UNL     1      45.937   6.434  11.809  0.00  0.00    +0.000 C 
ATOM     14  C   UNL     1      45.335   7.826  11.681  0.00  0.00    +0.000 C 
ATOM     15  C   UNL     1      44.894   6.948  12.803  0.00  0.00    +0.000 C 
BRANCH  13  16
ATOM     16  C   UNL     1      45.454   5.311  10.890  0.00  0.00    +0.000 A 
ATOM     17  C   UNL     1      45.745   5.329   9.511  0.00  0.00    +0.000 A 
ATOM     18  C   UNL     1      45.338   4.293   8.666  0.00  0.00    +0.000 A 
ATOM     19  C   UNL     1      44.620   3.228   9.189  0.00  0.00    +0.000 A 
ATOM     20  F   UNL     1      44.224   2.235   8.383  0.00  0.00    +0.000 F 
ATOM     21  C   UNL     1      44.305   3.179  10.539  0.00  0.00    +0.000 A 
ATOM     22  C   UNL     1      44.728   4.211  11.381  0.00  0.00    +0.000 A 
ENDBRANCH  13  16
ENDBRANCH  12  13
ENDBRANCH   4  12
TORSDOF 4
ENDMDL
