MODEL 1
REMARK VINA RESULT:    -8.797      0.000      0.000
REMARK INTER + INTRA:         -13.484
REMARK INTER:                 -12.397
REMARK INTRA:                  -1.087
REMARK UNBOUND:                -1.087
REMARK  Name = 
REMARK  7 active torsions:
REMARK  status: ('A' for Active; 'I' for Inactive)
REMARK    1  A    between atoms: C_2  and  C_4
REMARK    2  A    between atoms: C_7  and  N_8
REMARK    3  A    between atoms: N_8  and  C_9
REMARK    4  A    between atoms: C_9  and  C_10
REMARK    5  A    between atoms: C_10  and  C_13
REMARK    6  A    between atoms: C_17  and  C_18
REMARK    7  A    between atoms: C_18  and  C_19
REMARK                            x       y       z     vdW  Elec       q    Type
REMARK                         _______ _______ _______ _____ _____    ______ ____
ROOT
ATOM      1  C   UNL     1      43.204   4.228  11.263  0.00  0.00    +0.000 C 
ENDROOT
BRANCH   1   2
ATOM      2  C   UNL     1      43.315   5.281  12.391  0.00  0.00    +0.000 C 
ATOM      3  F   UNL     1      42.728   6.446  11.994  0.00  0.00    +0.000 F 
ATOM      4  F   UNL     1      42.589   4.848  13.465  0.00  0.00    +0.000 F 
BRANCH   2   5
ATOM      5  C   UNL     1      44.792   5.454  12.709  0.00  0.00    +0.000 A 
ATOM      6  C   UNL     1      45.498   6.564  12.231  0.00  0.00    +0.000 A 
ATOM      7  C   UNL     1      46.808   6.795  12.646  0.00  0.00    +0.000 A 
ATOM      8  C   UNL     1      47.427   5.919  13.545  0.00  0.00    +0.000 A 
ATOM      9  C   UNL     1      46.752   4.786  14.019  0.00  0.00    +0.000 A 
ATOM     10  C   UNL     1      45.433   4.564  13.589  0.00  0.00    +0.000 A 
BRANCH   9  11
ATOM     11  C   UNL     1      47.429   3.809  14.956  0.00  0.00    +0.000 C 
BRANCH  11  12
ATOM     12  C   UNL     1      47.133   4.120  16.423  0.00  0.00    +0.000 C 
ATOM     13  C   UNL     1      48.148   5.088  17.092  0.00  0.00    +0.000 C 
ATOM     14  C   UNL     1      48.121   4.206  18.350  0.00  0.00    +0.000 C 
ATOM     15  C   UNL     1      47.520   3.073  17.502  0.00  0.00    +0.000 C 
ENDBRANCH  11  12
ENDBRANCH   9  11
ENDBRANCH   2   5
ENDBRANCH   1   2
BRANCH   1  16
ATOM     16  N   UNL     1      43.632   4.671   9.923  0.00  0.00    +0.000 N 
ATOM     17  H   UNL     1      42.872   4.975   9.317  0.00  0.00    +0.000 HD
BRANCH  16  21
ATOM     18  C   UNL     1      46.396   2.269   7.808  0.00  0.00    +0.000 A 
ATOM     19  C   UNL     1      46.385   3.649   7.605  0.00  0.00    +0.000 A 
ATOM     20  C   UNL     1      45.488   4.449   8.310  0.00  0.00    +0.000 A 
ATOM     21  C   UNL     1      44.597   3.909   9.253  0.00  0.00    +0.000 A 
ATOM     22  C   UNL     1      44.604   2.519   9.425  0.00  0.00    +0.000 A 
ATOM     23  C   UNL     1      45.488   1.702   8.707  0.00  0.00    +0.000 A 
BRANCH  18  25
ATOM     24  N   UNL     1      48.428   1.979   6.509  0.00  0.00    +0.000 N 
ATOM     25  C   UNL     1      47.318   1.388   7.049  0.00  0.00    +0.000 C 
ATOM     26  O   UNL     1      47.119   0.190   6.936  0.00  0.00    +0.000 OA
ATOM     27  H   UNL     1      49.098   1.360   6.071  0.00  0.00    +0.000 HD
ATOM     28  H   UNL     1      48.748   2.892   6.791  0.00  0.00    +0.000 HD
ENDBRANCH  18  25
ENDBRANCH  16  21
ENDBRANCH   1  16
TORSDOF 7
ENDMDL
MODEL 2
REMARK VINA RESULT:    -8.490      1.915      4.100
REMARK INTER + INTRA:         -13.051
REMARK INTER:                 -12.193
REMARK INTRA:                  -0.858
REMARK UNBOUND:                -1.087
REMARK  Name = 
REMARK  7 active torsions:
REMARK  status: ('A' for Active; 'I' for Inactive)
REMARK    1  A    between atoms: C_2  and  C_4
REMARK    2  A    between atoms: C_7  and  N_8
REMARK    3  A    between atoms: N_8  and  C_9
REMARK    4  A    between atoms: C_9  and  C_10
REMARK    5  A    between atoms: C_10  and  C_13
REMARK    6  A    between atoms: C_17  and  C_18
REMARK    7  A    between atoms: C_18  and  C_19
REMARK                            x       y       z     vdW  Elec       q    Type
REMARK                         _______ _______ _______ _____ _____    ______ ____
ROOT
ATOM      1  C   UNL     1      43.280   3.994  11.398  0.00  0.00    +0.000 C 
ENDROOT
BRANCH   1   2
ATOM      2  C   UNL     1      43.165   5.023  12.548  0.00  0.00    +0.000 C 
ATOM      3  F   UNL     1      42.233   5.967  12.231  0.00  0.00    +0.000 F 
ATOM      4  F   UNL     1      42.682   4.385  13.657  0.00  0.00    +0.000 F 
BRANCH   2   5
ATOM      5  C   UNL     1      44.546   5.620  12.767  0.00  0.00    +0.000 A 
ATOM      6  C   UNL     1      45.617   4.808  13.162  0.00  0.00    +0.000 A 
ATOM      7  C   UNL     1      46.908   5.329  13.216  0.00  0.00    +0.000 A 
ATOM      8  C   UNL     1      47.144   6.665  12.876  0.00  0.00    +0.000 A 
ATOM      9  C   UNL     1      46.087   7.506  12.502  0.00  0.00    +0.000 A 
ATOM     10  C   UNL     1      44.790   6.968  12.455  0.00  0.00    +0.000 A 
BRANCH   9  11
ATOM     11  C   UNL     1      46.327   8.964  12.176  0.00  0.00    +0.000 C 
BRANCH  11  12
ATOM     12  C   UNL     1      45.024   9.762  12.120  0.00  0.00    +0.000 C 
ATOM     13  C   UNL     1      44.202   9.561  10.817  0.00  0.00    +0.000 C 
ATOM     14  C   UNL     1      43.915  11.069  10.795  0.00  0.00    +0.000 C 
ATOM     15  C   UNL     1      45.087  11.272  11.769  0.00  0.00    +0.000 C 
ENDBRANCH  11  12
ENDBRANCH   9  11
ENDBRANCH   2   5
ENDBRANCH   1   2
BRANCH   1  16
ATOM     16  N   UNL     1      43.627   4.544  10.074  0.00  0.00    +0.000 N 
ATOM     17  H   UNL     1      42.825   4.825   9.512  0.00  0.00    +0.000 HD
BRANCH  16  21
ATOM     18  C   UNL     1      46.479   2.482   7.732  0.00  0.00    +0.000 A 
ATOM     19  C   UNL     1      46.370   3.867   7.624  0.00  0.00    +0.000 A 
ATOM     20  C   UNL     1      45.445   4.557   8.404  0.00  0.00    +0.000 A 
ATOM     21  C   UNL     1      44.620   3.896   9.330  0.00  0.00    +0.000 A 
ATOM     22  C   UNL     1      44.725   2.501   9.408  0.00  0.00    +0.000 A 
ATOM     23  C   UNL     1      45.638   1.796   8.613  0.00  0.00    +0.000 A 
BRANCH  18  25
ATOM     24  N   UNL     1      48.536   2.394   6.442  0.00  0.00    +0.000 N 
ATOM     25  C   UNL     1      47.436   1.717   6.892  0.00  0.00    +0.000 C 
ATOM     26  O   UNL     1      47.270   0.536   6.639  0.00  0.00    +0.000 OA
ATOM     27  H   UNL     1      49.228   1.848   5.947  0.00  0.00    +0.000 HD
ATOM     28  H   UNL     1      48.827   3.277   6.832  0.00  0.00    +0.000 HD
ENDBRANCH  18  25
ENDBRANCH  16  21
ENDBRANCH   1  16
TORSDOF 7
ENDMDL
MODEL 3
REMARK VINA RESULT:    -8.403      1.638      3.454
REMARK INTER + INTRA:         -12.929
REMARK INTER:                 -11.933
REMARK INTRA:                  -0.996
REMARK UNBOUND:                -1.087
REMARK  Name = 
REMARK  7 active torsions:
REMARK  status: ('A' for Active; 'I' for Inactive)
REMARK    1  A    between atoms: C_2  and  C_4
REMARK    2  A    between atoms: C_7  and  N_8
REMARK    3  A    between atoms: N_8  and  C_9
REMARK    4  A    between atoms: C_9  and  C_10
REMARK    5  A    between atoms: C_10  and  C_13
REMARK    6  A    between atoms: C_17  and  C_18
REMARK    7  A    between atoms: C_18  and  C_19
REMARK                            x       y       z     vdW  Elec       q    Type
REMARK                         _______ _______ _______ _____ _____    ______ ____
ROOT
ATOM      1  C   UNL     1      43.285   3.985  11.384  0.00  0.00    +0.000 C 
ENDROOT
BRANCH   1   2
ATOM      2  C   UNL     1      43.268   4.932  12.608  0.00  0.00    +0.000 C 
ATOM      3  F   UNL     1      42.491   6.021  12.337  0.00  0.00    +0.000 F 
ATOM      4  F   UNL     1      42.654   4.291  13.648  0.00  0.00    +0.000 F 
BRANCH   2   5
ATOM      5  C   UNL     1      44.709   5.308  12.915  0.00  0.00    +0.000 A 
ATOM      6  C   UNL     1      45.567   4.389  13.531  0.00  0.00    +0.000 A 
ATOM      7  C   UNL     1      46.922   4.682  13.675  0.00  0.00    +0.000 A 
ATOM      8  C   UNL     1      47.433   5.897  13.205  0.00  0.00    +0.000 A 
ATOM      9  C   UNL     1      46.592   6.845  12.608  0.00  0.00    +0.000 A 
ATOM     10  C   UNL     1      45.228   6.537  12.473  0.00  0.00    +0.000 A 
BRANCH   9  11
ATOM     11  C   UNL     1      47.128   8.180  12.138  0.00  0.00    +0.000 C 
BRANCH  11  12
ATOM     12  C   UNL     1      48.616   8.342  12.447  0.00  0.00    +0.000 C 
ATOM     13  C   UNL     1      49.159   9.785  12.252  0.00  0.00    +0.000 C 
ATOM     14  C   UNL     1      50.419   9.196  11.600  0.00  0.00    +0.000 C 
ATOM     15  C   UNL     1      49.653   7.879  11.389  0.00  0.00    +0.000 C 
ENDBRANCH  11  12
ENDBRANCH   9  11
ENDBRANCH   2   5
ENDBRANCH   1   2
BRANCH   1  16
ATOM     16  N   UNL     1      43.765   4.574  10.120  0.00  0.00    +0.000 N 
ATOM     17  H   UNL     1      43.059   5.097   9.605  0.00  0.00    +0.000 HD
BRANCH  16  21
ATOM     18  C   UNL     1      46.387   2.306   7.699  0.00  0.00    +0.000 A 
ATOM     19  C   UNL     1      45.604   1.664   8.658  0.00  0.00    +0.000 A 
ATOM     20  C   UNL     1      44.725   2.401   9.448  0.00  0.00    +0.000 A 
ATOM     21  C   UNL     1      44.579   3.790   9.294  0.00  0.00    +0.000 A 
ATOM     22  C   UNL     1      45.392   4.423   8.344  0.00  0.00    +0.000 A 
ATOM     23  C   UNL     1      46.293   3.694   7.558  0.00  0.00    +0.000 A 
BRANCH  18  25
ATOM     24  N   UNL     1      48.506   2.203   6.516  0.00  0.00    +0.000 N 
ATOM     25  C   UNL     1      47.354   1.551   6.863  0.00  0.00    +0.000 C 
ATOM     26  O   UNL     1      47.151   0.397   6.526  0.00  0.00    +0.000 OA
ATOM     27  H   UNL     1      49.200   1.656   6.023  0.00  0.00    +0.000 HD
ATOM     28  H   UNL     1      48.813   3.045   6.977  0.00  0.00    +0.000 HD
ENDBRANCH  18  25
ENDBRANCH  16  21
ENDBRANCH   1  16
TORSDOF 7
ENDMDL
MODEL 4
REMARK VINA RESULT:    -8.024      2.649      3.882
REMARK INTER + INTRA:         -12.395
REMARK INTER:                 -11.237
REMARK INTRA:                  -1.158
REMARK UNBOUND:                -1.087
REMARK  Name = 
REMARK  7 active torsions:
REMARK  status: ('A' for Active; 'I' for Inactive)
REMARK    1  A    between atoms: C_2  and  C_4
REMARK    2  A    between atoms: C_7  and  N_8
REMARK    3  A    between atoms: N_8  and  C_9
REMARK    4  A    between atoms: C_9  and  C_10
REMARK    5  A    between atoms: C_10  and  C_13
REMARK    6  A    between atoms: C_17  and  C_18
REMARK    7  A    between atoms: C_18  and  C_19
REMARK                            x       y       z     vdW  Elec       q    Type
REMARK                         _______ _______ _______ _____ _____    ______ ____
ROOT
ATOM      1  C   UNL     1      43.900   5.265  10.827  0.00  0.00    +0.000 C 
ENDROOT
BRANCH   1   2
ATOM      2  C   UNL     1      44.634   5.393  12.183  0.00  0.00    +0.000 C 
ATOM      3  F   UNL     1      43.726   5.579  13.183  0.00  0.00    +0.000 F 
ATOM      4  F   UNL     1      45.250   4.204  12.460  0.00  0.00    +0.000 F 
BRANCH   2   5
ATOM      5  C   UNL     1      45.614   6.550  12.065  0.00  0.00    +0.000 A 
ATOM      6  C   UNL     1      45.150   7.866  11.954  0.00  0.00    +0.000 A 
ATOM      7  C   UNL     1      46.048   8.932  11.995  0.00  0.00    +0.000 A 
ATOM      8  C   UNL     1      47.417   8.694  12.148  0.00  0.00    +0.000 A 
ATOM      9  C   UNL     1      47.911   7.385  12.235  0.00  0.00    +0.000 A 
ATOM     10  C   UNL     1      46.996   6.321  12.188  0.00  0.00    +0.000 A 
BRANCH   9  11
ATOM     11  C   UNL     1      49.395   7.116  12.354  0.00  0.00    +0.000 C 
BRANCH  11  12
ATOM     12  C   UNL     1      50.228   8.130  11.569  0.00  0.00    +0.000 C 
ATOM     13  C   UNL     1      51.281   7.497  10.618  0.00  0.00    +0.000 C 
ATOM     14  C   UNL     1      52.288   8.569  11.059  0.00  0.00    +0.000 C 
ATOM     15  C   UNL     1      51.404   8.846  12.286  0.00  0.00    +0.000 C 
ENDBRANCH  11  12
ENDBRANCH   9  11
ENDBRANCH   2   5
ENDBRANCH   1   2
BRANCH   1  16
ATOM     16  N   UNL     1      43.721   3.892  10.318  0.00  0.00    +0.000 N 
ATOM     17  H   UNL     1      43.515   3.201  11.037  0.00  0.00    +0.000 HD
BRANCH  16  21
ATOM     18  C   UNL     1      46.569   2.592   7.477  0.00  0.00    +0.000 A 
ATOM     19  C   UNL     1      45.942   1.659   8.302  0.00  0.00    +0.000 A 
ATOM     20  C   UNL     1      44.990   2.077   9.229  0.00  0.00    +0.000 A 
ATOM     21  C   UNL     1      44.615   3.426   9.348  0.00  0.00    +0.000 A 
ATOM     22  C   UNL     1      45.273   4.353   8.529  0.00  0.00    +0.000 A 
ATOM     23  C   UNL     1      46.246   3.946   7.607  0.00  0.00    +0.000 A 
BRANCH  18  25
ATOM     24  N   UNL     1      47.836   3.028   5.450  0.00  0.00    +0.000 N 
ATOM     25  C   UNL     1      47.609   2.180   6.500  0.00  0.00    +0.000 C 
ATOM     26  O   UNL     1      48.253   1.154   6.638  0.00  0.00    +0.000 OA
ATOM     27  H   UNL     1      48.605   2.789   4.838  0.00  0.00    +0.000 HD
ATOM     28  H   UNL     1      47.509   3.982   5.443  0.00  0.00    +0.000 HD
ENDBRANCH  18  25
ENDBRANCH  16  21
ENDBRANCH   1  16
TORSDOF 7
ENDMDL
MODEL 5
REMARK VINA RESULT:    -7.863      1.865      2.374
REMARK INTER + INTRA:         -12.167
REMARK INTER:                 -11.017
REMARK INTRA:                  -1.150
REMARK UNBOUND:                -1.087
REMARK  Name = 
REMARK  7 active torsions:
REMARK  status: ('A' for Active; 'I' for Inactive)
REMARK    1  A    between atoms: C_2  and  C_4
REMARK    2  A    between atoms: C_7  and  N_8
REMARK    3  A    between atoms: N_8  and  C_9
REMARK    4  A    between atoms: C_9  and  C_10
REMARK    5  A    between atoms: C_10  and  C_13
REMARK    6  A    between atoms: C_17  and  C_18
REMARK    7  A    between atoms: C_18  and  C_19
REMARK                            x       y       z     vdW  Elec       q    Type
REMARK                         _______ _______ _______ _____ _____    ______ ____
ROOT
ATOM      1  C   UNL     1      44.273   5.747  11.029  0.00  0.00    +0.000 C 
ENDROOT
BRANCH   1   2
ATOM      2  C   UNL     1      44.834   5.249  12.383  0.00  0.00    +0.000 C 
ATOM      3  F   UNL     1      43.982   5.595  13.390  0.00  0.00    +0.000 F 
ATOM      4  F   UNL     1      44.855   3.882  12.370  0.00  0.00    +0.000 F 
BRANCH   2   5
ATOM      5  C   UNL     1      46.217   5.857  12.555  0.00  0.00    +0.000 A 
ATOM      6  C   UNL     1      46.813   6.576  11.512  0.00  0.00    +0.000 A 
ATOM      7  C   UNL     1      48.011   7.256  11.723  0.00  0.00    +0.000 A 
ATOM      8  C   UNL     1      48.626   7.225  12.979  0.00  0.00    +0.000 A 
ATOM      9  C   UNL     1      48.065   6.492  14.033  0.00  0.00    +0.000 A 
ATOM     10  C   UNL     1      46.859   5.809  13.805  0.00  0.00    +0.000 A 
BRANCH   9  11
ATOM     11  C   UNL     1      48.747   6.416  15.382  0.00  0.00    +0.000 C 
BRANCH  11  12
ATOM     12  C   UNL     1      49.861   7.453  15.522  0.00  0.00    +0.000 C 
ATOM     13  C   UNL     1      51.208   6.883  16.048  0.00  0.00    +0.000 C 
ATOM     14  C   UNL     1      51.356   8.124  16.940  0.00  0.00    +0.000 C 
ATOM     15  C   UNL     1      49.854   8.395  16.755  0.00  0.00    +0.000 C 
ENDBRANCH  11  12
ENDBRANCH   9  11
ENDBRANCH   2   5
ENDBRANCH   1   2
BRANCH   1  16
ATOM     16  N   UNL     1      43.801   4.700  10.103  0.00  0.00    +0.000 N 
ATOM     17  H   UNL     1      43.080   4.092  10.488  0.00  0.00    +0.000 HD
BRANCH  16  21
ATOM     18  C   UNL     1      46.530   2.521   7.719  0.00  0.00    +0.000 A 
ATOM     19  C   UNL     1      46.503   3.913   7.640  0.00  0.00    +0.000 A 
ATOM     20  C   UNL     1      45.619   4.639   8.434  0.00  0.00    +0.000 A 
ATOM     21  C   UNL     1      44.755   4.010   9.346  0.00  0.00    +0.000 A 
ATOM     22  C   UNL     1      44.777   2.609   9.395  0.00  0.00    +0.000 A 
ATOM     23  C   UNL     1      45.648   1.868   8.586  0.00  0.00    +0.000 A 
BRANCH  18  25
ATOM     24  N   UNL     1      48.548   2.357   6.377  0.00  0.00    +0.000 N 
ATOM     25  C   UNL     1      47.440   1.718   6.864  0.00  0.00    +0.000 C 
ATOM     26  O   UNL     1      47.232   0.540   6.628  0.00  0.00    +0.000 OA
ATOM     27  H   UNL     1      49.210   1.784   5.871  0.00  0.00    +0.000 HD
ATOM     28  H   UNL     1      48.876   3.234   6.750  0.00  0.00    +0.000 HD
ENDBRANCH  18  25
ENDBRANCH  16  21
ENDBRANCH   1  16
TORSDOF 7
ENDMDL
MODEL 6
REMARK VINA RESULT:    -7.770      3.551      7.840
REMARK INTER + INTRA:         -12.036
REMARK INTER:                 -10.926
REMARK INTRA:                  -1.110
REMARK UNBOUND:                -1.087
REMARK  Name = 
REMARK  7 active torsions:
REMARK  status: ('A' for Active; 'I' for Inactive)
REMARK    1  A    between atoms: C_2  and  C_4
REMARK    2  A    between atoms: C_7  and  N_8
REMARK    3  A    between atoms: N_8  and  C_9
REMARK    4  A    between atoms: C_9  and  C_10
REMARK    5  A    between atoms: C_10  and  C_13
REMARK    6  A    between atoms: C_17  and  C_18
REMARK    7  A    between atoms: C_18  and  C_19
REMARK                            x       y       z     vdW  Elec       q    Type
REMARK                         _______ _______ _______ _____ _____    ______ ____
ROOT
ATOM      1  C   UNL     1      46.993   6.330  12.589  0.00  0.00    +0.000 C 
ENDROOT
BRANCH   1   2
ATOM      2  C   UNL     1      45.524   6.477  12.123  0.00  0.00    +0.000 C 
ATOM      3  F   UNL     1      44.737   6.820  13.183  0.00  0.00    +0.000 F 
ATOM      4  F   UNL     1      45.447   7.527  11.251  0.00  0.00    +0.000 F 
BRANCH   2   5
ATOM      5  C   UNL     1      45.111   5.156  11.494  0.00  0.00    +0.000 A 
ATOM      6  C   UNL     1      44.475   4.172  12.260  0.00  0.00    +0.000 A 
ATOM      7  C   UNL     1      43.966   3.028  11.649  0.00  0.00    +0.000 A 
ATOM      8  C   UNL     1      44.086   2.855  10.266  0.00  0.00    +0.000 A 
ATOM      9  C   UNL     1      44.740   3.813   9.479  0.00  0.00    +0.000 A 
ATOM     10  C   UNL     1      45.252   4.959  10.109  0.00  0.00    +0.000 A 
BRANCH   9  11
ATOM     11  C   UNL     1      44.915   3.613   7.990  0.00  0.00    +0.000 C 
BRANCH  11  12
ATOM     12  C   UNL     1      46.331   3.161   7.632  0.00  0.00    +0.000 C 
ATOM     13  C   UNL     1      46.616   3.088   6.106  0.00  0.00    +0.000 C 
ATOM     14  C   UNL     1      47.368   1.769   6.335  0.00  0.00    +0.000 C 
ATOM     15  C   UNL     1      46.673   1.649   7.702  0.00  0.00    +0.000 C 
ENDBRANCH  11  12
ENDBRANCH   9  11
ENDBRANCH   2   5
ENDBRANCH   1   2
BRANCH   1  16
ATOM     16  N   UNL     1      47.282   6.783  13.963  0.00  0.00    +0.000 N 
ATOM     17  H   UNL     1      47.791   7.663  14.018  0.00  0.00    +0.000 HD
BRANCH  16  21
ATOM     18  C   UNL     1      48.559   4.040  16.916  0.00  0.00    +0.000 A 
ATOM     19  C   UNL     1      47.564   3.667  16.013  0.00  0.00    +0.000 A 
ATOM     20  C   UNL     1      47.149   4.559  15.026  0.00  0.00    +0.000 A 
ATOM     21  C   UNL     1      47.725   5.834  14.891  0.00  0.00    +0.000 A 
ATOM     22  C   UNL     1      48.706   6.201  15.823  0.00  0.00    +0.000 A 
ATOM     23  C   UNL     1      49.116   5.319  16.831  0.00  0.00    +0.000 A 
BRANCH  18  25
ATOM     24  N   UNL     1      48.242   3.102  19.135  0.00  0.00    +0.000 N 
ATOM     25  C   UNL     1      49.001   3.122  17.996  0.00  0.00    +0.000 C 
ATOM     26  O   UNL     1      49.973   2.396  17.869  0.00  0.00    +0.000 OA
ATOM     27  H   UNL     1      48.493   2.413  19.830  0.00  0.00    +0.000 HD
ATOM     28  H   UNL     1      47.312   3.491  19.173  0.00  0.00    +0.000 HD
ENDBRANCH  18  25
ENDBRANCH  16  21
ENDBRANCH   1  16
TORSDOF 7
ENDMDL
MODEL 7
REMARK VINA RESULT:    -7.088      4.367      8.061
REMARK INTER + INTRA:         -11.075
REMARK INTER:                 -10.191
REMARK INTRA:                  -0.884
REMARK UNBOUND:                -1.087
REMARK  Name = 
REMARK  7 active torsions:
REMARK  status: ('A' for Active; 'I' for Inactive)
REMARK    1  A    between atoms: C_2  and  C_4
REMARK    2  A    between atoms: C_7  and  N_8
REMARK    3  A    between atoms: N_8  and  C_9
REMARK    4  A    between atoms: C_9  and  C_10
REMARK    5  A    between atoms: C_10  and  C_13
REMARK    6  A    between atoms: C_17  and  C_18
REMARK    7  A    between atoms: C_18  and  C_19
REMARK                            x       y       z     vdW  Elec       q    Type
REMARK                         _______ _______ _______ _____ _____    ______ ____
ROOT
ATOM      1  C   UNL     1      46.759   4.385  14.763  0.00  0.00    +0.000 C 
ENDROOT
BRANCH   1   2
ATOM      2  C   UNL     1      46.756   5.378  13.575  0.00  0.00    +0.000 C 
ATOM      3  F   UNL     1      46.809   6.658  14.043  0.00  0.00    +0.000 F 
ATOM      4  F   UNL     1      47.905   5.200  12.855  0.00  0.00    +0.000 F 
BRANCH   2   5
ATOM      5  C   UNL     1      45.502   5.108  12.758  0.00  0.00    +0.000 A 
ATOM      6  C   UNL     1      44.451   6.033  12.743  0.00  0.00    +0.000 A 
ATOM      7  C   UNL     1      43.371   5.853  11.880  0.00  0.00    +0.000 A 
ATOM      8  C   UNL     1      43.330   4.748  11.024  0.00  0.00    +0.000 A 
ATOM      9  C   UNL     1      44.356   3.794  11.038  0.00  0.00    +0.000 A 
ATOM     10  C   UNL     1      45.436   3.986  11.915  0.00  0.00    +0.000 A 
BRANCH   9  11
ATOM     11  C   UNL     1      44.298   2.572  10.147  0.00  0.00    +0.000 C 
BRANCH  11  12
ATOM     12  C   UNL     1      44.680   2.894   8.703  0.00  0.00    +0.000 C 
ATOM     13  C   UNL     1      45.945   2.150   8.191  0.00  0.00    +0.000 C 
ATOM     14  C   UNL     1      46.402   3.449   7.509  0.00  0.00    +0.000 C 
ATOM     15  C   UNL     1      45.422   4.224   8.405  0.00  0.00    +0.000 C 
ENDBRANCH  11  12
ENDBRANCH   9  11
ENDBRANCH   2   5
ENDBRANCH   1   2
BRANCH   1  16
ATOM     16  N   UNL     1      47.206   4.932  16.058  0.00  0.00    +0.000 N 
ATOM     17  H   UNL     1      47.148   5.947  16.129  0.00  0.00    +0.000 HD
BRANCH  16  21
ATOM     18  C   UNL     1      50.760   3.247  17.610  0.00  0.00    +0.000 A 
ATOM     19  C   UNL     1      50.655   4.631  17.474  0.00  0.00    +0.000 A 
ATOM     20  C   UNL     1      49.481   5.195  16.979  0.00  0.00    +0.000 A 
ATOM     21  C   UNL     1      48.371   4.408  16.629  0.00  0.00    +0.000 A 
ATOM     22  C   UNL     1      48.503   3.018  16.748  0.00  0.00    +0.000 A 
ATOM     23  C   UNL     1      49.686   2.439  17.226  0.00  0.00    +0.000 A 
BRANCH  18  25
ATOM     24  N   UNL     1      52.048   1.247  18.103  0.00  0.00    +0.000 N 
ATOM     25  C   UNL     1      52.008   2.615  18.106  0.00  0.00    +0.000 C 
ATOM     26  O   UNL     1      52.966   3.277  18.470  0.00  0.00    +0.000 OA
ATOM     27  H   UNL     1      52.930   0.823  18.356  0.00  0.00    +0.000 HD
ATOM     28  H   UNL     1      51.389   0.687  17.585  0.00  0.00    +0.000 HD
ENDBRANCH  18  25
ENDBRANCH  16  21
ENDBRANCH   1  16
TORSDOF 7
ENDMDL
MODEL 8
REMARK VINA RESULT:    -7.063      3.934      6.959
REMARK INTER + INTRA:         -11.039
REMARK INTER:                  -9.984
REMARK INTRA:                  -1.055
REMARK UNBOUND:                -1.087
REMARK  Name = 
REMARK  7 active torsions:
REMARK  status: ('A' for Active; 'I' for Inactive)
REMARK    1  A    between atoms: C_2  and  C_4
REMARK    2  A    between atoms: C_7  and  N_8
REMARK    3  A    between atoms: N_8  and  C_9
REMARK    4  A    between atoms: C_9  and  C_10
REMARK    5  A    between atoms: C_10  and  C_13
REMARK    6  A    between atoms: C_17  and  C_18
REMARK    7  A    between atoms: C_18  and  C_19
REMARK                            x       y       z     vdW  Elec       q    Type
REMARK                         _______ _______ _______ _____ _____    ______ ____
ROOT
ATOM      1  C   UNL     1      45.204   6.865  12.918  0.00  0.00    +0.000 C 
ENDROOT
BRANCH   1   2
ATOM      2  C   UNL     1      44.646   6.565  11.506  0.00  0.00    +0.000 C 
ATOM      3  F   UNL     1      43.512   7.292  11.293  0.00  0.00    +0.000 F 
ATOM      4  F   UNL     1      45.548   7.007  10.578  0.00  0.00    +0.000 F 
BRANCH   2   5
ATOM      5  C   UNL     1      44.401   5.066  11.421  0.00  0.00    +0.000 A 
ATOM      6  C   UNL     1      43.808   4.381  12.488  0.00  0.00    +0.000 A 
ATOM      7  C   UNL     1      43.450   3.042  12.349  0.00  0.00    +0.000 A 
ATOM      8  C   UNL     1      43.681   2.372  11.143  0.00  0.00    +0.000 A 
ATOM      9  C   UNL     1      44.297   3.026  10.068  0.00  0.00    +0.000 A 
ATOM     10  C   UNL     1      44.656   4.376  10.223  0.00  0.00    +0.000 A 
BRANCH   9  11
ATOM     11  C   UNL     1      44.593   2.297   8.775  0.00  0.00    +0.000 C 
BRANCH  11  12
ATOM     12  C   UNL     1      46.026   2.531   8.298  0.00  0.00    +0.000 C 
ATOM     13  C   UNL     1      46.138   3.313   6.960  0.00  0.00    +0.000 C 
ATOM     14  C   UNL     1      47.250   2.350   6.519  0.00  0.00    +0.000 C 
ATOM     15  C   UNL     1      46.782   1.367   7.605  0.00  0.00    +0.000 C 
ENDBRANCH  11  12
ENDBRANCH   9  11
ENDBRANCH   2   5
ENDBRANCH   1   2
BRANCH   1  16
ATOM     16  N   UNL     1      45.897   8.157  13.076  0.00  0.00    +0.000 N 
ATOM     17  H   UNL     1      45.350   8.966  12.786  0.00  0.00    +0.000 HD
BRANCH  16  21
ATOM     18  C   UNL     1      49.923   8.243  11.788  0.00  0.00    +0.000 A 
ATOM     19  C   UNL     1      49.114   9.362  11.596  0.00  0.00    +0.000 A 
ATOM     20  C   UNL     1      47.791   9.348  12.033  0.00  0.00    +0.000 A 
ATOM     21  C   UNL     1      47.241   8.236  12.693  0.00  0.00    +0.000 A 
ATOM     22  C   UNL     1      48.060   7.111  12.855  0.00  0.00    +0.000 A 
ATOM     23  C   UNL     1      49.386   7.107  12.402  0.00  0.00    +0.000 A 
BRANCH  18  25
ATOM     24  N   UNL     1      51.737   7.081  10.665  0.00  0.00    +0.000 N 
ATOM     25  C   UNL     1      51.328   8.217  11.307  0.00  0.00    +0.000 C 
ATOM     26  O   UNL     1      52.075   9.170  11.448  0.00  0.00    +0.000 OA
ATOM     27  H   UNL     1      52.663   7.102  10.261  0.00  0.00    +0.000 HD
ATOM     28  H   UNL     1      51.088   6.392  10.316  0.00  0.00    +0.000 HD
ENDBRANCH  18  25
ENDBRANCH  16  21
ENDBRANCH   1  16
TORSDOF 7
ENDMDL
MODEL 9
REMARK VINA RESULT:    -6.399      3.262      4.906
REMARK INTER + INTRA:         -10.104
REMARK INTER:                  -8.734
REMARK INTRA:                  -1.371
REMARK UNBOUND:                -1.087
REMARK  Name = 
REMARK  7 active torsions:
REMARK  status: ('A' for Active; 'I' for Inactive)
REMARK    1  A    between atoms: C_2  and  C_4
REMARK    2  A    between atoms: C_7  and  N_8
REMARK    3  A    between atoms: N_8  and  C_9
REMARK    4  A    between atoms: C_9  and  C_10
REMARK    5  A    between atoms: C_10  and  C_13
REMARK    6  A    between atoms: C_17  and  C_18
REMARK    7  A    between atoms: C_18  and  C_19
REMARK                            x       y       z     vdW  Elec       q    Type
REMARK                         _______ _______ _______ _____ _____    ______ ____
ROOT
ATOM      1  C   UNL     1      47.297   8.455  12.516  0.00  0.00    +0.000 C 
ENDROOT
BRANCH   1   2
ATOM      2  C   UNL     1      48.708   7.955  12.907  0.00  0.00    +0.000 C 
ATOM      3  F   UNL     1      48.903   6.696  12.420  0.00  0.00    +0.000 F 
ATOM      4  F   UNL     1      49.637   8.740  12.282  0.00  0.00    +0.000 F 
BRANCH   2   5
ATOM      5  C   UNL     1      48.810   8.015  14.423  0.00  0.00    +0.000 A 
ATOM      6  C   UNL     1      48.435   9.172  15.116  0.00  0.00    +0.000 A 
ATOM      7  C   UNL     1      48.389   9.172  16.509  0.00  0.00    +0.000 A 
ATOM      8  C   UNL     1      48.716   8.015  17.224  0.00  0.00    +0.000 A 
ATOM      9  C   UNL     1      49.120   6.851  16.557  0.00  0.00    +0.000 A 
ATOM     10  C   UNL     1      49.165   6.867  15.153  0.00  0.00    +0.000 A 
BRANCH   9  11
ATOM     11  C   UNL     1      49.519   5.610  17.324  0.00  0.00    +0.000 C 
BRANCH  11  12
ATOM     12  C   UNL     1      48.305   4.826  17.821  0.00  0.00    +0.000 C 
ATOM     13  C   UNL     1      48.600   3.343  18.180  0.00  0.00    +0.000 C 
ATOM     14  C   UNL     1      47.281   2.942  17.502  0.00  0.00    +0.000 C 
ATOM     15  C   UNL     1      47.278   4.301  16.782  0.00  0.00    +0.000 C 
ENDBRANCH  11  12
ENDBRANCH   9  11
ENDBRANCH   2   5
ENDBRANCH   1   2
BRANCH   1  16
ATOM     16  N   UNL     1      46.173   7.866  13.269  0.00  0.00    +0.000 N 
ATOM     17  H   UNL     1      46.290   7.882  14.281  0.00  0.00    +0.000 HD
BRANCH  16  21
ATOM     18  C   UNL     1      44.613   4.271  11.682  0.00  0.00    +0.000 A 
ATOM     19  C   UNL     1      45.343   4.241  12.870  0.00  0.00    +0.000 A 
ATOM     20  C   UNL     1      45.846   5.423  13.408  0.00  0.00    +0.000 A 
ATOM     21  C   UNL     1      45.620   6.669  12.800  0.00  0.00    +0.000 A 
ATOM     22  C   UNL     1      44.906   6.678  11.594  0.00  0.00    +0.000 A 
ATOM     23  C   UNL     1      44.412   5.492  11.033  0.00  0.00    +0.000 A 
BRANCH  18  25
ATOM     24  N   UNL     1      44.859   2.448  10.095  0.00  0.00    +0.000 N 
ATOM     25  C   UNL     1      44.089   3.024  11.069  0.00  0.00    +0.000 C 
ATOM     26  O   UNL     1      43.042   2.517  11.432  0.00  0.00    +0.000 OA
ATOM     27  H   UNL     1      44.544   1.553   9.744  0.00  0.00    +0.000 HD
ATOM     28  H   UNL     1      45.827   2.694   9.952  0.00  0.00    +0.000 HD
ENDBRANCH  18  25
ENDBRANCH  16  21
ENDBRANCH   1  16
TORSDOF 7
ENDMDL
