MODEL 1
REMARK VINA RESULT:    -7.391      0.000      0.000
REMARK INTER + INTRA:         -10.738
REMARK INTER:                  -9.984
REMARK INTRA:                  -0.755
REMARK UNBOUND:                -0.755
REMARK  Name = 
REMARK  7 active torsions:
REMARK  status: ('A' for Active; 'I' for Inactive)
REMARK    1  A    between atoms: N_1  and  C_2
REMARK    2  A    between atoms: C_2  and  C_3
REMARK    3  A    between atoms: C_3  and  C_4
REMARK    4  A    between atoms: N_6  and  C_7
REMARK    5  A    between atoms: C_7  and  C_8
REMARK    6  A    between atoms: C_18  and  C_19
REMARK    7  A    between atoms: C_19  and  O_21
REMARK                            x       y       z     vdW  Elec       q    Type
REMARK                         _______ _______ _______ _____ _____    ______ ____
ROOT
ATOM      1  C   UNL     1      46.400   5.777  12.903  0.00  0.00    +0.000 A 
ATOM      2  C   UNL     1      45.758   4.844  12.113  0.00  0.00    +0.000 A 
ATOM      3  N   UNL     1      44.833   5.493  11.332  0.00  0.00    +0.000 N 
ATOM      4  C   UNL     1      44.881   6.852  11.580  0.00  0.00    +0.000 A 
ATOM      5  C   UNL     1      44.141   7.921  11.044  0.00  0.00    +0.000 A 
ATOM      6  C   UNL     1      44.427   9.224  11.488  0.00  0.00    +0.000 A 
ATOM      7  C   UNL     1      45.400   9.444  12.460  0.00  0.00    +0.000 A 
ATOM      8  C   UNL     1      46.122   8.369  12.997  0.00  0.00    +0.000 A 
ATOM      9  C   UNL     1      45.865   7.054  12.553  0.00  0.00    +0.000 A 
ENDROOT
BRANCH   6  10
ATOM     10  C   UNL     1      43.612  10.330  10.910  0.00  0.00    +0.000 C 
ATOM     11  O   UNL     1      43.192  11.256  11.590  0.00  0.00    +0.000 OA
BRANCH  10  12
ATOM     12  O   UNL     1      43.340  10.214   9.597  0.00  0.00    +0.000 OA
ATOM     13  H   UNL     1      44.028  10.532   8.986  0.00  0.00    +0.000 HD
ENDBRANCH  10  12
ENDBRANCH   6  10
BRANCH   1  14
ATOM     14  C   UNL     1      47.445   5.488  13.935  0.00  0.00    +0.000 C 
BRANCH  14  15
ATOM     15  C   UNL     1      46.968   4.446  14.955  0.00  0.00    +0.000 C 
BRANCH  15  16
ATOM     16  N   UNL     1      47.548   3.130  14.691  0.00  0.00    +0.000 NA
ATOM     17  H   UNL     1      46.919   2.410  15.046  0.00  0.00    +0.000 HD
ATOM     18  H   UNL     1      48.420   3.027  15.211  0.00  0.00    +0.000 HD
ENDBRANCH  15  16
ENDBRANCH  14  15
ENDBRANCH   1  14
BRANCH   3  19
ATOM     19  C   UNL     1      43.865   4.812  10.482  0.00  0.00    +0.000 C 
BRANCH  19  20
ATOM     20  C   UNL     1      44.487   3.832   9.515  0.00  0.00    +0.000 A 
ATOM     21  C   UNL     1      44.384   2.449   9.746  0.00  0.00    +0.000 A 
ATOM     22  C   UNL     1      45.112   1.543   8.971  0.00  0.00    +0.000 A 
ATOM     23  C   UNL     1      45.936   2.010   7.952  0.00  0.00    +0.000 A 
ATOM     24  F   UNL     1      46.675   1.127   7.264  0.00  0.00    +0.000 F 
ATOM     25  C   UNL     1      46.010   3.371   7.673  0.00  0.00    +0.000 A 
ATOM     26 CL   UNL     1      47.032   3.957   6.417  0.00  0.00    +0.000 Cl
ATOM     27  C   UNL     1      45.285   4.280   8.447  0.00  0.00    +0.000 A 
ENDBRANCH  19  20
ENDBRANCH   3  19
TORSDOF 7
ENDMDL
MODEL 2
REMARK VINA RESULT:    -6.989      3.266      4.779
REMARK INTER + INTRA:         -10.195
REMARK INTER:                  -9.302
REMARK INTRA:                  -0.893
REMARK UNBOUND:                -0.755
REMARK  Name = 
REMARK  7 active torsions:
REMARK  status: ('A' for Active; 'I' for Inactive)
REMARK    1  A    between atoms: N_1  and  C_2
REMARK    2  A    between atoms: C_2  and  C_3
REMARK    3  A    between atoms: C_3  and  C_4
REMARK    4  A    between atoms: N_6  and  C_7
REMARK    5  A    between atoms: C_7  and  C_8
REMARK    6  A    between atoms: C_18  and  C_19
REMARK    7  A    between atoms: C_19  and  O_21
REMARK                            x       y       z     vdW  Elec       q    Type
REMARK                         _______ _______ _______ _____ _____    ______ ____
ROOT
ATOM      1  C   UNL     1      46.011   8.492  12.043  0.00  0.00    +0.000 A 
ATOM      2  C   UNL     1      44.812   8.052  11.516  0.00  0.00    +0.000 A 
ATOM      3  N   UNL     1      44.573   6.779  11.973  0.00  0.00    +0.000 N 
ATOM      4  C   UNL     1      45.592   6.386  12.821  0.00  0.00    +0.000 A 
ATOM      5  C   UNL     1      45.803   5.188  13.526  0.00  0.00    +0.000 A 
ATOM      6  C   UNL     1      46.947   5.081  14.338  0.00  0.00    +0.000 A 
ATOM      7  C   UNL     1      47.863   6.127  14.413  0.00  0.00    +0.000 A 
ATOM      8  C   UNL     1      47.649   7.311  13.694  0.00  0.00    +0.000 A 
ATOM      9  C   UNL     1      46.498   7.449  12.888  0.00  0.00    +0.000 A 
ENDROOT
BRANCH   6  10
ATOM     10  C   UNL     1      47.147   3.791  15.058  0.00  0.00    +0.000 C 
ATOM     11  O   UNL     1      47.016   3.693  16.270  0.00  0.00    +0.000 OA
BRANCH  10  12
ATOM     12  O   UNL     1      47.519   2.756  14.283  0.00  0.00    +0.000 OA
ATOM     13  H   UNL     1      46.815   2.131  14.033  0.00  0.00    +0.000 HD
ENDBRANCH  10  12
ENDBRANCH   6  10
BRANCH   1  14
ATOM     14  C   UNL     1      46.669   9.806  11.759  0.00  0.00    +0.000 C 
BRANCH  14  15
ATOM     15  C   UNL     1      45.694  10.807  11.124  0.00  0.00    +0.000 C 
BRANCH  15  16
ATOM     16  N   UNL     1      44.915  11.516  12.139  0.00  0.00    +0.000 NA
ATOM     17  H   UNL     1      44.062  11.876  11.713  0.00  0.00    +0.000 HD
ATOM     18  H   UNL     1      45.435  12.330  12.467  0.00  0.00    +0.000 HD
ENDBRANCH  15  16
ENDBRANCH  14  15
ENDBRANCH   1  14
BRANCH   3  19
ATOM     19  C   UNL     1      43.475   5.941  11.509  0.00  0.00    +0.000 C 
BRANCH  19  20
ATOM     20  C   UNL     1      43.919   4.765  10.671  0.00  0.00    +0.000 A 
ATOM     21  C   UNL     1      43.591   3.455  11.062  0.00  0.00    +0.000 A 
ATOM     22  C   UNL     1      44.154   2.356  10.406  0.00  0.00    +0.000 A 
ATOM     23  C   UNL     1      45.034   2.558   9.349  0.00  0.00    +0.000 A 
ATOM     24  F   UNL     1      45.611   1.490   8.777  0.00  0.00    +0.000 F 
ATOM     25  C   UNL     1      45.328   3.846   8.912  0.00  0.00    +0.000 A 
ATOM     26 CL   UNL     1      46.421   4.104   7.607  0.00  0.00    +0.000 Cl
ATOM     27  C   UNL     1      44.770   4.946   9.565  0.00  0.00    +0.000 A 
ENDBRANCH  19  20
ENDBRANCH   3  19
TORSDOF 7
ENDMDL
MODEL 3
REMARK VINA RESULT:    -6.594      2.294      2.867
REMARK INTER + INTRA:          -9.662
REMARK INTER:                  -9.007
REMARK INTRA:                  -0.655
REMARK UNBOUND:                -0.755
REMARK  Name = 
REMARK  7 active torsions:
REMARK  status: ('A' for Active; 'I' for Inactive)
REMARK    1  A    between atoms: N_1  and  C_2
REMARK    2  A    between atoms: C_2  and  C_3
REMARK    3  A    between atoms: C_3  and  C_4
REMARK    4  A    between atoms: N_6  and  C_7
REMARK    5  A    between atoms: C_7  and  C_8
REMARK    6  A    between atoms: C_18  and  C_19
REMARK    7  A    between atoms: C_19  and  O_21
REMARK                            x       y       z     vdW  Elec       q    Type
REMARK                         _______ _______ _______ _____ _____    ______ ____
ROOT
ATOM      1  C   UNL     1      47.021   4.685  14.361  0.00  0.00    +0.000 A 
ATOM      2  C   UNL     1      46.006   4.427  13.459  0.00  0.00    +0.000 A 
ATOM      3  N   UNL     1      45.831   5.536  12.669  0.00  0.00    +0.000 N 
ATOM      4  C   UNL     1      46.741   6.514  13.022  0.00  0.00    +0.000 A 
ATOM      5  C   UNL     1      46.955   7.810  12.520  0.00  0.00    +0.000 A 
ATOM      6  C   UNL     1      47.986   8.585  13.081  0.00  0.00    +0.000 A 
ATOM      7  C   UNL     1      48.754   8.089  14.132  0.00  0.00    +0.000 A 
ATOM      8  C   UNL     1      48.522   6.801  14.634  0.00  0.00    +0.000 A 
ATOM      9  C   UNL     1      47.506   5.997  14.074  0.00  0.00    +0.000 A 
ENDROOT
BRANCH   6  10
ATOM     10  C   UNL     1      48.173   9.959  12.535  0.00  0.00    +0.000 C 
ATOM     11  O   UNL     1      48.577  10.160  11.399  0.00  0.00    +0.000 OA
BRANCH  10  12
ATOM     12  O   UNL     1      47.904  10.958  13.396  0.00  0.00    +0.000 OA
ATOM     13  H   UNL     1      48.121  11.858  13.092  0.00  0.00    +0.000 HD
ENDBRANCH  10  12
ENDBRANCH   6  10
BRANCH   1  14
ATOM     14  C   UNL     1      47.499   3.762  15.437  0.00  0.00    +0.000 C 
BRANCH  14  15
ATOM     15  C   UNL     1      46.990   4.186  16.822  0.00  0.00    +0.000 C 
BRANCH  15  16
ATOM     16  N   UNL     1      46.593   3.031  17.626  0.00  0.00    +0.000 NA
ATOM     17  H   UNL     1      45.753   3.265  18.155  0.00  0.00    +0.000 HD
ATOM     18  H   UNL     1      47.316   2.826  18.316  0.00  0.00    +0.000 HD
ENDBRANCH  15  16
ENDBRANCH  14  15
ENDBRANCH   1  14
BRANCH   3  19
ATOM     19  C   UNL     1      44.748   5.684  11.704  0.00  0.00    +0.000 C 
BRANCH  19  20
ATOM     20  C   UNL     1      44.773   4.654  10.599  0.00  0.00    +0.000 A 
ATOM     21  C   UNL     1      44.093   3.434  10.755  0.00  0.00    +0.000 A 
ATOM     22  C   UNL     1      44.265   2.402   9.828  0.00  0.00    +0.000 A 
ATOM     23  C   UNL     1      45.103   2.587   8.734  0.00  0.00    +0.000 A 
ATOM     24  F   UNL     1      45.302   1.560   7.894  0.00  0.00    +0.000 F 
ATOM     25  C   UNL     1      45.742   3.806   8.533  0.00  0.00    +0.000 A 
ATOM     26 CL   UNL     1      46.785   4.041   7.184  0.00  0.00    +0.000 Cl
ATOM     27  C   UNL     1      45.574   4.839   9.458  0.00  0.00    +0.000 A 
ENDBRANCH  19  20
ENDBRANCH   3  19
TORSDOF 7
ENDMDL
MODEL 4
REMARK VINA RESULT:    -6.225      4.277      6.932
REMARK INTER + INTRA:          -9.163
REMARK INTER:                  -8.323
REMARK INTRA:                  -0.839
REMARK UNBOUND:                -0.755
REMARK  Name = 
REMARK  7 active torsions:
REMARK  status: ('A' for Active; 'I' for Inactive)
REMARK    1  A    between atoms: N_1  and  C_2
REMARK    2  A    between atoms: C_2  and  C_3
REMARK    3  A    between atoms: C_3  and  C_4
REMARK    4  A    between atoms: N_6  and  C_7
REMARK    5  A    between atoms: C_7  and  C_8
REMARK    6  A    between atoms: C_18  and  C_19
REMARK    7  A    between atoms: C_19  and  O_21
REMARK                            x       y       z     vdW  Elec       q    Type
REMARK                         _______ _______ _______ _____ _____    ______ ____
ROOT
ATOM      1  C   UNL     1      44.669   5.462  10.986  0.00  0.00    +0.000 A 
ATOM      2  C   UNL     1      44.757   6.830  11.156  0.00  0.00    +0.000 A 
ATOM      3  N   UNL     1      45.462   7.083  12.307  0.00  0.00    +0.000 N 
ATOM      4  C   UNL     1      45.865   5.893  12.883  0.00  0.00    +0.000 A 
ATOM      5  C   UNL     1      46.596   5.629  14.054  0.00  0.00    +0.000 A 
ATOM      6  C   UNL     1      46.871   4.289  14.385  0.00  0.00    +0.000 A 
ATOM      7  C   UNL     1      46.401   3.251  13.585  0.00  0.00    +0.000 A 
ATOM      8  C   UNL     1      45.661   3.527  12.426  0.00  0.00    +0.000 A 
ATOM      9  C   UNL     1      45.389   4.864  12.064  0.00  0.00    +0.000 A 
ENDROOT
BRANCH   6  10
ATOM     10  C   UNL     1      47.634   4.046  15.642  0.00  0.00    +0.000 C 
ATOM     11  O   UNL     1      48.269   3.018  15.831  0.00  0.00    +0.000 OA
BRANCH  10  12
ATOM     12  O   UNL     1      47.541   5.020  16.565  0.00  0.00    +0.000 OA
ATOM     13  H   UNL     1      46.792   4.954  17.186  0.00  0.00    +0.000 HD
ENDBRANCH  10  12
ENDBRANCH   6  10
BRANCH   1  14
ATOM     14  C   UNL     1      43.942   4.756   9.884  0.00  0.00    +0.000 C 
BRANCH  14  15
ATOM     15  C   UNL     1      44.909   4.127   8.872  0.00  0.00    +0.000 C 
BRANCH  15  16
ATOM     16  N   UNL     1      45.887   5.099   8.387  0.00  0.00    +0.000 NA
ATOM     17  H   UNL     1      46.774   4.948   8.865  0.00  0.00    +0.000 HD
ATOM     18  H   UNL     1      45.588   6.042   8.634  0.00  0.00    +0.000 HD
ENDBRANCH  15  16
ENDBRANCH  14  15
ENDBRANCH   1  14
BRANCH   3  19
ATOM     19  C   UNL     1      45.625   8.412  12.885  0.00  0.00    +0.000 C 
BRANCH  19  20
ATOM     20  C   UNL     1      46.837   9.154  12.372  0.00  0.00    +0.000 A 
ATOM     21  C   UNL     1      46.716  10.480  11.922  0.00  0.00    +0.000 A 
ATOM     22  C   UNL     1      47.780  11.110  11.272  0.00  0.00    +0.000 A 
ATOM     23  C   UNL     1      48.975  10.425  11.079  0.00  0.00    +0.000 A 
ATOM     24  F   UNL     1      49.960  11.027  10.395  0.00  0.00    +0.000 F 
ATOM     25  C   UNL     1      49.134   9.132  11.565  0.00  0.00    +0.000 A 
ATOM     26 CL   UNL     1      50.608   8.276  11.326  0.00  0.00    +0.000 Cl
ATOM     27  C   UNL     1      48.072   8.498  12.214  0.00  0.00    +0.000 A 
ENDBRANCH  19  20
ENDBRANCH   3  19
TORSDOF 7
ENDMDL
MODEL 5
REMARK VINA RESULT:    -6.196      5.230      7.706
REMARK INTER + INTRA:          -9.124
REMARK INTER:                  -8.592
REMARK INTRA:                  -0.532
REMARK UNBOUND:                -0.755
REMARK  Name = 
REMARK  7 active torsions:
REMARK  status: ('A' for Active; 'I' for Inactive)
REMARK    1  A    between atoms: N_1  and  C_2
REMARK    2  A    between atoms: C_2  and  C_3
REMARK    3  A    between atoms: C_3  and  C_4
REMARK    4  A    between atoms: N_6  and  C_7
REMARK    5  A    between atoms: C_7  and  C_8
REMARK    6  A    between atoms: C_18  and  C_19
REMARK    7  A    between atoms: C_19  and  O_21
REMARK                            x       y       z     vdW  Elec       q    Type
REMARK                         _______ _______ _______ _____ _____    ______ ____
ROOT
ATOM      1  C   UNL     1      47.582   6.733  13.416  0.00  0.00    +0.000 A 
ATOM      2  C   UNL     1      47.868   5.973  14.533  0.00  0.00    +0.000 A 
ATOM      3  N   UNL     1      47.163   4.796  14.454  0.00  0.00    +0.000 N 
ATOM      4  C   UNL     1      46.438   4.762  13.278  0.00  0.00    +0.000 A 
ATOM      5  C   UNL     1      45.571   3.789  12.750  0.00  0.00    +0.000 A 
ATOM      6  C   UNL     1      44.974   4.030  11.499  0.00  0.00    +0.000 A 
ATOM      7  C   UNL     1      45.214   5.221  10.818  0.00  0.00    +0.000 A 
ATOM      8  C   UNL     1      46.069   6.190  11.361  0.00  0.00    +0.000 A 
ATOM      9  C   UNL     1      46.694   5.961  12.606  0.00  0.00    +0.000 A 
ENDROOT
BRANCH   6  10
ATOM     10  C   UNL     1      44.048   2.985  10.978  0.00  0.00    +0.000 C 
ATOM     11  O   UNL     1      42.931   2.811  11.444  0.00  0.00    +0.000 OA
BRANCH  10  12
ATOM     12  O   UNL     1      44.546   2.224   9.986  0.00  0.00    +0.000 OA
ATOM     13  H   UNL     1      45.346   2.562   9.545  0.00  0.00    +0.000 HD
ENDBRANCH  10  12
ENDBRANCH   6  10
BRANCH   1  14
ATOM     14  C   UNL     1      48.099   8.109  13.130  0.00  0.00    +0.000 C 
BRANCH  14  15
ATOM     15  C   UNL     1      49.075   8.117  11.946  0.00  0.00    +0.000 C 
BRANCH  15  16
ATOM     16  N   UNL     1      50.209   7.223  12.176  0.00  0.00    +0.000 NA
ATOM     17  H   UNL     1      50.824   7.637  12.875  0.00  0.00    +0.000 HD
ATOM     18  H   UNL     1      50.762   7.141  11.323  0.00  0.00    +0.000 HD
ENDBRANCH  15  16
ENDBRANCH  14  15
ENDBRANCH   1  14
BRANCH   3  19
ATOM     19  C   UNL     1      47.102   3.812  15.527  0.00  0.00    +0.000 C 
BRANCH  19  20
ATOM     20  C   UNL     1      47.895   4.198  16.753  0.00  0.00    +0.000 A 
ATOM     21  C   UNL     1      49.185   3.675  16.953  0.00  0.00    +0.000 A 
ATOM     22  C   UNL     1      49.850   3.870  18.167  0.00  0.00    +0.000 A 
ATOM     23  C   UNL     1      49.238   4.600  19.181  0.00  0.00    +0.000 A 
ATOM     24  F   UNL     1      49.869   4.719  20.360  0.00  0.00    +0.000 F 
ATOM     25  C   UNL     1      47.986   5.171  18.982  0.00  0.00    +0.000 A 
ATOM     26 CL   UNL     1      47.221   6.071  20.235  0.00  0.00    +0.000 Cl
ATOM     27  C   UNL     1      47.317   4.977  17.772  0.00  0.00    +0.000 A 
ENDBRANCH  19  20
ENDBRANCH   3  19
TORSDOF 7
ENDMDL
MODEL 6
REMARK VINA RESULT:    -6.084      4.148      6.227
REMARK INTER + INTRA:          -8.973
REMARK INTER:                  -8.141
REMARK INTRA:                  -0.832
REMARK UNBOUND:                -0.755
REMARK  Name = 
REMARK  7 active torsions:
REMARK  status: ('A' for Active; 'I' for Inactive)
REMARK    1  A    between atoms: N_1  and  C_2
REMARK    2  A    between atoms: C_2  and  C_3
REMARK    3  A    between atoms: C_3  and  C_4
REMARK    4  A    between atoms: N_6  and  C_7
REMARK    5  A    between atoms: C_7  and  C_8
REMARK    6  A    between atoms: C_18  and  C_19
REMARK    7  A    between atoms: C_19  and  O_21
REMARK                            x       y       z     vdW  Elec       q    Type
REMARK                         _______ _______ _______ _____ _____    ______ ____
ROOT
ATOM      1  C   UNL     1      47.148   4.857  14.600  0.00  0.00    +0.000 A 
ATOM      2  C   UNL     1      47.591   6.163  14.523  0.00  0.00    +0.000 A 
ATOM      3  N   UNL     1      47.256   6.667  13.290  0.00  0.00    +0.000 N 
ATOM      4  C   UNL     1      46.568   5.714  12.564  0.00  0.00    +0.000 A 
ATOM      5  C   UNL     1      46.026   5.746  11.267  0.00  0.00    +0.000 A 
ATOM      6  C   UNL     1      45.355   4.605  10.791  0.00  0.00    +0.000 A 
ATOM      7  C   UNL     1      45.260   3.459  11.578  0.00  0.00    +0.000 A 
ATOM      8  C   UNL     1      45.817   3.434  12.865  0.00  0.00    +0.000 A 
ATOM      9  C   UNL     1      46.478   4.574  13.370  0.00  0.00    +0.000 A 
ENDROOT
BRANCH   6  10
ATOM     10  C   UNL     1      44.808   4.669   9.407  0.00  0.00    +0.000 C 
ATOM     11  O   UNL     1      45.529   4.703   8.420  0.00  0.00    +0.000 OA
BRANCH  10  12
ATOM     12  O   UNL     1      43.466   4.726   9.325  0.00  0.00    +0.000 OA
ATOM     13  H   UNL     1      43.071   4.396   8.498  0.00  0.00    +0.000 HD
ENDBRANCH  10  12
ENDBRANCH   6  10
BRANCH   1  14
ATOM     14  C   UNL     1      47.351   3.924  15.752  0.00  0.00    +0.000 C 
BRANCH  14  15
ATOM     15  C   UNL     1      47.802   4.668  17.017  0.00  0.00    +0.000 C 
BRANCH  15  16
ATOM     16  N   UNL     1      46.704   4.827  17.969  0.00  0.00    +0.000 NA
ATOM     17  H   UNL     1      46.099   5.585  17.657  0.00  0.00    +0.000 HD
ATOM     18  H   UNL     1      47.073   5.112  18.876  0.00  0.00    +0.000 HD
ENDBRANCH  15  16
ENDBRANCH  14  15
ENDBRANCH   1  14
BRANCH   3  19
ATOM     19  C   UNL     1      47.694   7.967  12.797  0.00  0.00    +0.000 C 
BRANCH  19  20
ATOM     20  C   UNL     1      49.191   8.086  12.640  0.00  0.00    +0.000 A 
ATOM     21  C   UNL     1      49.942   8.835  13.563  0.00  0.00    +0.000 A 
ATOM     22  C   UNL     1      51.291   9.110  13.325  0.00  0.00    +0.000 A 
ATOM     23  C   UNL     1      51.902   8.628  12.172  0.00  0.00    +0.000 A 
ATOM     24  F   UNL     1      53.180   8.959  11.933  0.00  0.00    +0.000 F 
ATOM     25  C   UNL     1      51.191   7.839  11.274  0.00  0.00    +0.000 A 
ATOM     26 CL   UNL     1      51.939   7.243   9.843  0.00  0.00    +0.000 Cl
ATOM     27  C   UNL     1      49.842   7.563  11.507  0.00  0.00    +0.000 A 
ENDBRANCH  19  20
ENDBRANCH   3  19
TORSDOF 7
ENDMDL
MODEL 7
REMARK VINA RESULT:    -5.954      4.014      5.604
REMARK INTER + INTRA:          -8.797
REMARK INTER:                  -8.063
REMARK INTRA:                  -0.734
REMARK UNBOUND:                -0.755
REMARK  Name = 
REMARK  7 active torsions:
REMARK  status: ('A' for Active; 'I' for Inactive)
REMARK    1  A    between atoms: N_1  and  C_2
REMARK    2  A    between atoms: C_2  and  C_3
REMARK    3  A    between atoms: C_3  and  C_4
REMARK    4  A    between atoms: N_6  and  C_7
REMARK    5  A    between atoms: C_7  and  C_8
REMARK    6  A    between atoms: C_18  and  C_19
REMARK    7  A    between atoms: C_19  and  O_21
REMARK                            x       y       z     vdW  Elec       q    Type
REMARK                         _______ _______ _______ _____ _____    ______ ____
ROOT
ATOM      1  C   UNL     1      45.992   9.943  12.088  0.00  0.00    +0.000 A 
ATOM      2  C   UNL     1      45.554   8.765  12.659  0.00  0.00    +0.000 A 
ATOM      3  N   UNL     1      46.616   7.897  12.741  0.00  0.00    +0.000 N 
ATOM      4  C   UNL     1      47.758   8.505  12.254  0.00  0.00    +0.000 A 
ATOM      5  C   UNL     1      49.076   8.035  12.123  0.00  0.00    +0.000 A 
ATOM      6  C   UNL     1      50.048   8.904  11.595  0.00  0.00    +0.000 A 
ATOM      7  C   UNL     1      49.702  10.188  11.182  0.00  0.00    +0.000 A 
ATOM      8  C   UNL     1      48.381  10.641  11.305  0.00  0.00    +0.000 A 
ATOM      9  C   UNL     1      47.392   9.793  11.850  0.00  0.00    +0.000 A 
ENDROOT
BRANCH   6  10
ATOM     10  C   UNL     1      51.432   8.367  11.455  0.00  0.00    +0.000 C 
ATOM     11  O   UNL     1      52.422   9.052  11.668  0.00  0.00    +0.000 OA
BRANCH  10  12
ATOM     12  O   UNL     1      51.510   7.089  11.041  0.00  0.00    +0.000 OA
ATOM     13  H   UNL     1      51.015   6.869  10.231  0.00  0.00    +0.000 HD
ENDBRANCH  10  12
ENDBRANCH   6  10
BRANCH   1  14
ATOM     14  C   UNL     1      45.145  11.136  11.770  0.00  0.00    +0.000 C 
BRANCH  14  15
ATOM     15  C   UNL     1      43.787  10.732  11.180  0.00  0.00    +0.000 C 
BRANCH  15  16
ATOM     16  N   UNL     1      42.694  10.994  12.117  0.00  0.00    +0.000 NA
ATOM     17  H   UNL     1      42.149  10.141  12.241  0.00  0.00    +0.000 HD
ATOM     18  H   UNL     1      42.057  11.683  11.719  0.00  0.00    +0.000 HD
ENDBRANCH  15  16
ENDBRANCH  14  15
ENDBRANCH   1  14
BRANCH   3  19
ATOM     19  C   UNL     1      46.498   6.504  13.154  0.00  0.00    +0.000 C 
BRANCH  19  20
ATOM     20  C   UNL     1      45.933   5.598  12.085  0.00  0.00    +0.000 A 
ATOM     21  C   UNL     1      46.136   5.897  10.726  0.00  0.00    +0.000 A 
ATOM     22  C   UNL     1      45.463   5.179   9.734  0.00  0.00    +0.000 A 
ATOM     23  C   UNL     1      44.596   4.152  10.090  0.00  0.00    +0.000 A 
ATOM     24  F   UNL     1      43.913   3.520   9.123  0.00  0.00    +0.000 F 
ATOM     25  C   UNL     1      44.424   3.805  11.426  0.00  0.00    +0.000 A 
ATOM     26 CL   UNL     1      43.349   2.538  11.875  0.00  0.00    +0.000 Cl
ATOM     27  C   UNL     1      45.094   4.521  12.421  0.00  0.00    +0.000 A 
ENDBRANCH  19  20
ENDBRANCH   3  19
TORSDOF 7
ENDMDL
MODEL 8
REMARK VINA RESULT:    -5.836      4.994      6.975
REMARK INTER + INTRA:          -8.638
REMARK INTER:                  -7.827
REMARK INTRA:                  -0.811
REMARK UNBOUND:                -0.755
REMARK  Name = 
REMARK  7 active torsions:
REMARK  status: ('A' for Active; 'I' for Inactive)
REMARK    1  A    between atoms: N_1  and  C_2
REMARK    2  A    between atoms: C_2  and  C_3
REMARK    3  A    between atoms: C_3  and  C_4
REMARK    4  A    between atoms: N_6  and  C_7
REMARK    5  A    between atoms: C_7  and  C_8
REMARK    6  A    between atoms: C_18  and  C_19
REMARK    7  A    between atoms: C_19  and  O_21
REMARK                            x       y       z     vdW  Elec       q    Type
REMARK                         _______ _______ _______ _____ _____    ______ ____
ROOT
ATOM      1  C   UNL     1      44.538   5.503  12.978  0.00  0.00    +0.000 A 
ATOM      2  C   UNL     1      44.976   4.356  13.611  0.00  0.00    +0.000 A 
ATOM      3  N   UNL     1      46.340   4.429  13.753  0.00  0.00    +0.000 N 
ATOM      4  C   UNL     1      46.803   5.628  13.245  0.00  0.00    +0.000 A 
ATOM      5  C   UNL     1      48.101   6.160  13.155  0.00  0.00    +0.000 A 
ATOM      6  C   UNL     1      48.265   7.437  12.589  0.00  0.00    +0.000 A 
ATOM      7  C   UNL     1      47.167   8.142  12.100  0.00  0.00    +0.000 A 
ATOM      8  C   UNL     1      45.879   7.595  12.182  0.00  0.00    +0.000 A 
ATOM      9  C   UNL     1      45.688   6.323  12.764  0.00  0.00    +0.000 A 
ENDROOT
BRANCH   6  10
ATOM     10  C   UNL     1      49.656   7.962  12.496  0.00  0.00    +0.000 C 
ATOM     11  O   UNL     1      49.998   9.006  13.034  0.00  0.00    +0.000 OA
BRANCH  10  12
ATOM     12  O   UNL     1      50.496   7.226  11.745  0.00  0.00    +0.000 OA
ATOM     13  H   UNL     1      51.421   7.531  11.710  0.00  0.00    +0.000 HD
ENDBRANCH  10  12
ENDBRANCH   6  10
BRANCH   1  14
ATOM     14  C   UNL     1      43.127   5.807  12.583  0.00  0.00    +0.000 C 
BRANCH  14  15
ATOM     15  C   UNL     1      42.654   4.921  11.423  0.00  0.00    +0.000 C 
BRANCH  15  16
ATOM     16  N   UNL     1      43.437   5.159  10.210  0.00  0.00    +0.000 NA
ATOM     17  H   UNL     1      43.248   4.415   9.539  0.00  0.00    +0.000 HD
ATOM     18  H   UNL     1      44.432   5.102  10.426  0.00  0.00    +0.000 HD
ENDBRANCH  15  16
ENDBRANCH  14  15
ENDBRANCH   1  14
BRANCH   3  19
ATOM     19  C   UNL     1      47.166   3.332  14.244  0.00  0.00    +0.000 C 
BRANCH  19  20
ATOM     20  C   UNL     1      47.663   3.529  15.657  0.00  0.00    +0.000 A 
ATOM     21  C   UNL     1      48.589   2.630  16.212  0.00  0.00    +0.000 A 
ATOM     22  C   UNL     1      48.910   2.689  17.571  0.00  0.00    +0.000 A 
ATOM     23  C   UNL     1      48.319   3.654  18.380  0.00  0.00    +0.000 A 
ATOM     24  F   UNL     1      48.593   3.650  19.694  0.00  0.00    +0.000 F 
ATOM     25  C   UNL     1      47.441   4.587  17.838  0.00  0.00    +0.000 A 
ATOM     26 CL   UNL     1      46.702   5.781  18.834  0.00  0.00    +0.000 Cl
ATOM     27  C   UNL     1      47.117   4.531  16.481  0.00  0.00    +0.000 A 
ENDBRANCH  19  20
ENDBRANCH   3  19
TORSDOF 7
ENDMDL
MODEL 9
REMARK VINA RESULT:    -5.826      3.021      4.702
REMARK INTER + INTRA:          -8.624
REMARK INTER:                  -7.970
REMARK INTRA:                  -0.654
REMARK UNBOUND:                -0.755
REMARK  Name = 
REMARK  7 active torsions:
REMARK  status: ('A' for Active; 'I' for Inactive)
REMARK    1  A    between atoms: N_1  and  C_2
REMARK    2  A    between atoms: C_2  and  C_3
REMARK    3  A    between atoms: C_3  and  C_4
REMARK    4  A    between atoms: N_6  and  C_7
REMARK    5  A    between atoms: C_7  and  C_8
REMARK    6  A    between atoms: C_18  and  C_19
REMARK    7  A    between atoms: C_19  and  O_21
REMARK                            x       y       z     vdW  Elec       q    Type
REMARK                         _______ _______ _______ _____ _____    ______ ____
ROOT
ATOM      1  C   UNL     1      44.200   8.945  11.135  0.00  0.00    +0.000 A 
ATOM      2  C   UNL     1      43.633   7.687  11.072  0.00  0.00    +0.000 A 
ATOM      3  N   UNL     1      44.494   6.789  11.653  0.00  0.00    +0.000 N 
ATOM      4  C   UNL     1      45.612   7.448  12.126  0.00  0.00    +0.000 A 
ATOM      5  C   UNL     1      46.762   6.975  12.783  0.00  0.00    +0.000 A 
ATOM      6  C   UNL     1      47.748   7.904  13.163  0.00  0.00    +0.000 A 
ATOM      7  C   UNL     1      47.599   9.256  12.864  0.00  0.00    +0.000 A 
ATOM      8  C   UNL     1      46.456   9.714  12.196  0.00  0.00    +0.000 A 
ATOM      9  C   UNL     1      45.444   8.803  11.822  0.00  0.00    +0.000 A 
ENDROOT
BRANCH   6  10
ATOM     10  C   UNL     1      48.959   7.365  13.843  0.00  0.00    +0.000 C 
ATOM     11  O   UNL     1      50.053   7.903  13.751  0.00  0.00    +0.000 OA
BRANCH  10  12
ATOM     12  O   UNL     1      48.768   6.224  14.532  0.00  0.00    +0.000 OA
ATOM     13  H   UNL     1      47.977   5.707  14.295  0.00  0.00    +0.000 HD
ENDBRANCH  10  12
ENDBRANCH   6  10
BRANCH   1  14
ATOM     14  C   UNL     1      43.618  10.203  10.572  0.00  0.00    +0.000 C 
BRANCH  14  15
ATOM     15  C   UNL     1      42.160  10.403  11.008  0.00  0.00    +0.000 C 
BRANCH  15  16
ATOM     16  N   UNL     1      42.073  11.074  12.304  0.00  0.00    +0.000 NA
ATOM     17  H   UNL     1      42.363  10.426  13.036  0.00  0.00    +0.000 HD
ATOM     18  H   UNL     1      41.102  11.312  12.504  0.00  0.00    +0.000 HD
ENDBRANCH  15  16
ENDBRANCH  14  15
ENDBRANCH   1  14
BRANCH   3  19
ATOM     19  C   UNL     1      44.295   5.344  11.637  0.00  0.00    +0.000 C 
BRANCH  19  20
ATOM     20  C   UNL     1      44.922   4.658  10.446  0.00  0.00    +0.000 A 
ATOM     21  C   UNL     1      45.633   5.406   9.492  0.00  0.00    +0.000 A 
ATOM     22  C   UNL     1      46.051   4.817   8.295  0.00  0.00    +0.000 A 
ATOM     23  C   UNL     1      45.775   3.477   8.050  0.00  0.00    +0.000 A 
ATOM     24  F   UNL     1      46.129   2.951   6.868  0.00  0.00    +0.000 F 
ATOM     25  C   UNL     1      45.120   2.706   9.005  0.00  0.00    +0.000 A 
ATOM     26 CL   UNL     1      44.770   1.047   8.707  0.00  0.00    +0.000 Cl
ATOM     27  C   UNL     1      44.699   3.290  10.201  0.00  0.00    +0.000 A 
ENDBRANCH  19  20
ENDBRANCH   3  19
TORSDOF 7
ENDMDL
