MODEL 1
REMARK VINA RESULT:    -7.633      0.000      0.000
REMARK INTER + INTRA:          -9.085
REMARK INTER:                  -8.972
REMARK INTRA:                  -0.113
REMARK UNBOUND:                -0.113
REMARK  Name = 
REMARK  3 active torsions:
REMARK  status: ('A' for Active; 'I' for Inactive)
REMARK    1  A    between atoms: C_2  and  C_4
REMARK    2  A    between atoms: C_7  and  C_8
REMARK    3  A    between atoms: C_8  and  C_9
REMARK                            x       y       z     vdW  Elec       q    Type
REMARK                         _______ _______ _______ _____ _____    ______ ____
ROOT
ATOM      1  C   UNL     1      46.300   2.781   7.630  0.00  0.00    +0.000 A 
ATOM      2  C   UNL     1      45.689   2.042   8.612  0.00  0.00    +0.000 A 
ATOM      3  N   UNL     1      45.030   2.587   9.650  0.00  0.00    +0.000 NA
ATOM      4  C   UNL     1      45.008   3.938   9.741  0.00  0.00    +0.000 A 
ATOM      5  N   UNL     1      45.599   4.743   8.828  0.00  0.00    +0.000 NA
ATOM      6  C   UNL     1      46.242   4.145   7.797  0.00  0.00    +0.000 A 
ENDROOT
BRANCH   1   8
ATOM      7  N   UNL     1      47.173   2.975   5.382  0.00  0.00    +0.000 N 
ATOM      8  C   UNL     1      46.983   2.184   6.479  0.00  0.00    +0.000 C 
ATOM      9  O   UNL     1      47.398   1.031   6.515  0.00  0.00    +0.000 OA
ATOM     10  H   UNL     1      47.733   2.580   4.633  0.00  0.00    +0.000 HD
ATOM     11  H   UNL     1      47.075   3.980   5.396  0.00  0.00    +0.000 HD
ENDBRANCH   1   8
BRANCH   4  12
ATOM     12  C   UNL     1      44.367   4.558  10.982  0.00  0.00    +0.000 C 
ATOM     13  C   UNL     1      43.059   3.945  11.475  0.00  0.00    +0.000 C 
ATOM     14  C   UNL     1      43.041   5.297  10.838  0.00  0.00    +0.000 C 
BRANCH  12  15
ATOM     15  C   UNL     1      45.388   5.026  12.010  0.00  0.00    +0.000 A 
ATOM     16  C   UNL     1      45.804   6.368  12.082  0.00  0.00    +0.000 A 
ATOM     17  C   UNL     1      46.868   6.756  12.903  0.00  0.00    +0.000 A 
ATOM     18  C   UNL     1      47.542   5.807  13.672  0.00  0.00    +0.000 A 
ATOM     19  C   UNL     1      47.128   4.480  13.644  0.00  0.00    +0.000 A 
ATOM     20  C   UNL     1      46.062   4.106  12.829  0.00  0.00    +0.000 A 
ATOM     21  F   UNL     1      45.706   2.812  12.807  0.00  0.00    +0.000 F 
ENDBRANCH  12  15
ENDBRANCH   4  12
TORSDOF 3
ENDMDL
MODEL 2
REMARK VINA RESULT:    -7.580      1.091      1.543
REMARK INTER + INTRA:          -9.023
REMARK INTER:                  -9.023
REMARK INTRA:                   0.000
REMARK UNBOUND:                -0.113
REMARK  Name = 
REMARK  3 active torsions:
REMARK  status: ('A' for Active; 'I' for Inactive)
REMARK    1  A    between atoms: C_2  and  C_4
REMARK    2  A    between atoms: C_7  and  C_8
REMARK    3  A    between atoms: C_8  and  C_9
REMARK                            x       y       z     vdW  Elec       q    Type
REMARK                         _______ _______ _______ _____ _____    ______ ____
ROOT
ATOM      1  C   UNL     1      46.503   2.804   7.450  0.00  0.00    +0.000 A 
ATOM      2  C   UNL     1      45.983   2.006   8.438  0.00  0.00    +0.000 A 
ATOM      3  N   UNL     1      45.327   2.485   9.510  0.00  0.00    +0.000 NA
ATOM      4  C   UNL     1      45.213   3.828   9.629  0.00  0.00    +0.000 A 
ATOM      5  N   UNL     1      45.710   4.690   8.711  0.00  0.00    +0.000 NA
ATOM      6  C   UNL     1      46.354   4.157   7.646  0.00  0.00    +0.000 A 
ENDROOT
BRANCH   1   8
ATOM      7  N   UNL     1      47.059   2.987   5.102  0.00  0.00    +0.000 N 
ATOM      8  C   UNL     1      47.182   2.277   6.262  0.00  0.00    +0.000 C 
ATOM      9  O   UNL     1      47.863   1.260   6.319  0.00  0.00    +0.000 OA
ATOM     10  H   UNL     1      47.614   2.665   4.315  0.00  0.00    +0.000 HD
ATOM     11  H   UNL     1      46.724   3.940   5.064  0.00  0.00    +0.000 HD
ENDBRANCH   1   8
BRANCH   4  12
ATOM     12  C   UNL     1      44.577   4.379  10.905  0.00  0.00    +0.000 C 
ATOM     13  C   UNL     1      43.265   3.747  11.363  0.00  0.00    +0.000 C 
ATOM     14  C   UNL     1      43.255   5.134  10.806  0.00  0.00    +0.000 C 
BRANCH  12  15
ATOM     15  C   UNL     1      45.602   4.780  11.957  0.00  0.00    +0.000 A 
ATOM     16  C   UNL     1      45.970   3.912  13.000  0.00  0.00    +0.000 A 
ATOM     17  C   UNL     1      46.772   4.348  14.060  0.00  0.00    +0.000 A 
ATOM     18  C   UNL     1      47.224   5.667  14.100  0.00  0.00    +0.000 A 
ATOM     19  C   UNL     1      46.901   6.536  13.064  0.00  0.00    +0.000 A 
ATOM     20  C   UNL     1      46.109   6.089  12.009  0.00  0.00    +0.000 A 
ATOM     21  F   UNL     1      45.796   6.962  11.039  0.00  0.00    +0.000 F 
ENDBRANCH  12  15
ENDBRANCH   4  12
TORSDOF 3
ENDMDL
MODEL 3
REMARK VINA RESULT:    -7.212      3.366      5.921
REMARK INTER + INTRA:          -8.591
REMARK INTER:                  -8.440
REMARK INTRA:                  -0.151
REMARK UNBOUND:                -0.113
REMARK  Name = 
REMARK  3 active torsions:
REMARK  status: ('A' for Active; 'I' for Inactive)
REMARK    1  A    between atoms: C_2  and  C_4
REMARK    2  A    between atoms: C_7  and  C_8
REMARK    3  A    between atoms: C_8  and  C_9
REMARK                            x       y       z     vdW  Elec       q    Type
REMARK                         _______ _______ _______ _____ _____    ______ ____
ROOT
ATOM      1  C   UNL     1      47.163   5.259  14.047  0.00  0.00    +0.000 A 
ATOM      2  C   UNL     1      46.778   3.954  13.867  0.00  0.00    +0.000 A 
ATOM      3  N   UNL     1      45.943   3.555  12.891  0.00  0.00    +0.000 NA
ATOM      4  C   UNL     1      45.433   4.504  12.073  0.00  0.00    +0.000 A 
ATOM      5  N   UNL     1      45.745   5.816  12.189  0.00  0.00    +0.000 NA
ATOM      6  C   UNL     1      46.596   6.165  13.182  0.00  0.00    +0.000 A 
ENDROOT
BRANCH   1   8
ATOM      7  N   UNL     1      47.830   5.316  16.372  0.00  0.00    +0.000 N 
ATOM      8  C   UNL     1      48.105   5.685  15.087  0.00  0.00    +0.000 C 
ATOM      9  O   UNL     1      49.117   6.317  14.805  0.00  0.00    +0.000 OA
ATOM     10  H   UNL     1      48.540   5.533  17.065  0.00  0.00    +0.000 HD
ATOM     11  H   UNL     1      47.158   4.602  16.615  0.00  0.00    +0.000 HD
ENDBRANCH   1   8
BRANCH   4  12
ATOM     12  C   UNL     1      44.390   4.072  11.042  0.00  0.00    +0.000 C 
ATOM     13  C   UNL     1      43.099   4.882  10.969  0.00  0.00    +0.000 C 
ATOM     14  C   UNL     1      43.064   3.496  11.528  0.00  0.00    +0.000 C 
BRANCH  12  15
ATOM     15  C   UNL     1      45.008   3.563   9.746  0.00  0.00    +0.000 A 
ATOM     16  C   UNL     1      45.092   2.189   9.455  0.00  0.00    +0.000 A 
ATOM     17  C   UNL     1      45.817   1.723   8.354  0.00  0.00    +0.000 A 
ATOM     18  C   UNL     1      46.477   2.622   7.518  0.00  0.00    +0.000 A 
ATOM     19  C   UNL     1      46.383   3.987   7.764  0.00  0.00    +0.000 A 
ATOM     20  C   UNL     1      45.651   4.442   8.859  0.00  0.00    +0.000 A 
ATOM     21  F   UNL     1      45.602   5.764   9.082  0.00  0.00    +0.000 F 
ENDBRANCH  12  15
ENDBRANCH   4  12
TORSDOF 3
ENDMDL
MODEL 4
REMARK VINA RESULT:    -6.793      3.451      5.983
REMARK INTER + INTRA:          -8.098
REMARK INTER:                  -8.112
REMARK INTRA:                   0.014
REMARK UNBOUND:                -0.113
REMARK  Name = 
REMARK  3 active torsions:
REMARK  status: ('A' for Active; 'I' for Inactive)
REMARK    1  A    between atoms: C_2  and  C_4
REMARK    2  A    between atoms: C_7  and  C_8
REMARK    3  A    between atoms: C_8  and  C_9
REMARK                            x       y       z     vdW  Elec       q    Type
REMARK                         _______ _______ _______ _____ _____    ______ ____
ROOT
ATOM      1  C   UNL     1      47.310   5.766  14.310  0.00  0.00    +0.000 A 
ATOM      2  C   UNL     1      47.041   6.632  13.279  0.00  0.00    +0.000 A 
ATOM      3  N   UNL     1      46.043   6.447  12.396  0.00  0.00    +0.000 NA
ATOM      4  C   UNL     1      45.295   5.326  12.518  0.00  0.00    +0.000 A 
ATOM      5  N   UNL     1      45.500   4.411  13.494  0.00  0.00    +0.000 NA
ATOM      6  C   UNL     1      46.512   4.647  14.362  0.00  0.00    +0.000 A 
ENDROOT
BRANCH   1   8
ATOM      7  N   UNL     1      48.137   5.581  16.576  0.00  0.00    +0.000 N 
ATOM      8  C   UNL     1      48.373   5.990  15.294  0.00  0.00    +0.000 C 
ATOM      9  O   UNL     1      49.443   6.491  14.969  0.00  0.00    +0.000 OA
ATOM     10  H   UNL     1      48.917   5.652  17.222  0.00  0.00    +0.000 HD
ATOM     11  H   UNL     1      47.389   4.953  16.832  0.00  0.00    +0.000 HD
ENDBRANCH   1   8
BRANCH   4  12
ATOM     12  C   UNL     1      44.240   5.053  11.446  0.00  0.00    +0.000 C 
ATOM     13  C   UNL     1      43.185   6.131  11.210  0.00  0.00    +0.000 C 
ATOM     14  C   UNL     1      42.790   4.849  11.870  0.00  0.00    +0.000 C 
BRANCH  12  15
ATOM     15  C   UNL     1      44.793   4.296  10.246  0.00  0.00    +0.000 A 
ATOM     16  C   UNL     1      45.513   4.946   9.228  0.00  0.00    +0.000 A 
ATOM     17  C   UNL     1      45.861   4.283   8.046  0.00  0.00    +0.000 A 
ATOM     18  C   UNL     1      45.495   2.952   7.856  0.00  0.00    +0.000 A 
ATOM     19  C   UNL     1      44.811   2.276   8.861  0.00  0.00    +0.000 A 
ATOM     20  C   UNL     1      44.476   2.943  10.037  0.00  0.00    +0.000 A 
ATOM     21  F   UNL     1      43.795   2.268  10.975  0.00  0.00    +0.000 F 
ENDBRANCH  12  15
ENDBRANCH   4  12
TORSDOF 3
ENDMDL
MODEL 5
REMARK VINA RESULT:    -5.582      3.283      4.699
REMARK INTER + INTRA:          -6.675
REMARK INTER:                  -6.516
REMARK INTRA:                  -0.159
REMARK UNBOUND:                -0.113
REMARK  Name = 
REMARK  3 active torsions:
REMARK  status: ('A' for Active; 'I' for Inactive)
REMARK    1  A    between atoms: C_2  and  C_4
REMARK    2  A    between atoms: C_7  and  C_8
REMARK    3  A    between atoms: C_8  and  C_9
REMARK                            x       y       z     vdW  Elec       q    Type
REMARK                         _______ _______ _______ _____ _____    ______ ____
ROOT
ATOM      1  C   UNL     1      44.626   4.138  11.397  0.00  0.00    +0.000 A 
ATOM      2  C   UNL     1      45.094   5.056  10.490  0.00  0.00    +0.000 A 
ATOM      3  N   UNL     1      45.732   6.187  10.840  0.00  0.00    +0.000 NA
ATOM      4  C   UNL     1      45.882   6.440  12.161  0.00  0.00    +0.000 A 
ATOM      5  N   UNL     1      45.437   5.599  13.124  0.00  0.00    +0.000 NA
ATOM      6  C   UNL     1      44.809   4.471  12.719  0.00  0.00    +0.000 A 
ENDROOT
BRANCH   1   8
ATOM      7  N   UNL     1      44.504   2.190   9.967  0.00  0.00    +0.000 N 
ATOM      8  C   UNL     1      43.966   2.887  11.011  0.00  0.00    +0.000 C 
ATOM      9  O   UNL     1      42.992   2.468  11.625  0.00  0.00    +0.000 OA
ATOM     10  H   UNL     1      44.097   1.280   9.776  0.00  0.00    +0.000 HD
ATOM     11  H   UNL     1      45.429   2.363   9.600  0.00  0.00    +0.000 HD
ENDBRANCH   1   8
BRANCH   4  12
ATOM     12  C   UNL     1      46.497   7.780  12.565  0.00  0.00    +0.000 C 
ATOM     13  C   UNL     1      45.561   8.831  13.156  0.00  0.00    +0.000 C 
ATOM     14  C   UNL     1      46.117   9.033  11.783  0.00  0.00    +0.000 C 
BRANCH  12  15
ATOM     15  C   UNL     1      47.899   7.643  13.141  0.00  0.00    +0.000 A 
ATOM     16  C   UNL     1      48.130   7.614  14.529  0.00  0.00    +0.000 A 
ATOM     17  C   UNL     1      49.426   7.669  15.052  0.00  0.00    +0.000 A 
ATOM     18  C   UNL     1      50.523   7.755  14.196  0.00  0.00    +0.000 A 
ATOM     19  C   UNL     1      50.325   7.752  12.820  0.00  0.00    +0.000 A 
ATOM     20  C   UNL     1      49.030   7.689  12.309  0.00  0.00    +0.000 A 
ATOM     21  F   UNL     1      48.874   7.713  10.977  0.00  0.00    +0.000 F 
ENDBRANCH  12  15
ENDBRANCH   4  12
TORSDOF 3
ENDMDL
MODEL 6
REMARK VINA RESULT:    -5.495      4.715      6.826
REMARK INTER + INTRA:          -6.573
REMARK INTER:                  -6.498
REMARK INTRA:                  -0.074
REMARK UNBOUND:                -0.113
REMARK  Name = 
REMARK  3 active torsions:
REMARK  status: ('A' for Active; 'I' for Inactive)
REMARK    1  A    between atoms: C_2  and  C_4
REMARK    2  A    between atoms: C_7  and  C_8
REMARK    3  A    between atoms: C_8  and  C_9
REMARK                            x       y       z     vdW  Elec       q    Type
REMARK                         _______ _______ _______ _____ _____    ______ ____
ROOT
ATOM      1  C   UNL     1      46.579   5.762  13.144  0.00  0.00    +0.000 A 
ATOM      2  C   UNL     1      47.667   6.250  13.824  0.00  0.00    +0.000 A 
ATOM      3  N   UNL     1      48.141   5.701  14.957  0.00  0.00    +0.000 NA
ATOM      4  C   UNL     1      47.479   4.635  15.464  0.00  0.00    +0.000 A 
ATOM      5  N   UNL     1      46.388   4.100  14.870  0.00  0.00    +0.000 NA
ATOM      6  C   UNL     1      45.956   4.683  13.727  0.00  0.00    +0.000 A 
ENDROOT
BRANCH   1   8
ATOM      7  N   UNL     1      45.669   5.468  10.921  0.00  0.00    +0.000 N 
ATOM      8  C   UNL     1      46.089   6.337  11.888  0.00  0.00    +0.000 C 
ATOM      9  O   UNL     1      46.026   7.550  11.728  0.00  0.00    +0.000 OA
ATOM     10  H   UNL     1      45.242   5.881  10.099  0.00  0.00    +0.000 HD
ATOM     11  H   UNL     1      45.473   4.493  11.096  0.00  0.00    +0.000 HD
ENDBRANCH   1   8
BRANCH   4  12
ATOM     12  C   UNL     1      47.941   4.086  16.814  0.00  0.00    +0.000 C 
ATOM     13  C   UNL     1      48.615   2.717  16.820  0.00  0.00    +0.000 C 
ATOM     14  C   UNL     1      47.241   2.861  17.393  0.00  0.00    +0.000 C 
BRANCH  12  15
ATOM     15  C   UNL     1      48.472   5.166  17.747  0.00  0.00    +0.000 A 
ATOM     16  C   UNL     1      49.845   5.458  17.836  0.00  0.00    +0.000 A 
ATOM     17  C   UNL     1      50.343   6.320  18.818  0.00  0.00    +0.000 A 
ATOM     18  C   UNL     1      49.476   6.911  19.737  0.00  0.00    +0.000 A 
ATOM     19  C   UNL     1      48.110   6.665  19.650  0.00  0.00    +0.000 A 
ATOM     20  C   UNL     1      47.624   5.811  18.662  0.00  0.00    +0.000 A 
ATOM     21  F   UNL     1      46.303   5.577  18.623  0.00  0.00    +0.000 F 
ENDBRANCH  12  15
ENDBRANCH   4  12
TORSDOF 3
ENDMDL
MODEL 7
REMARK VINA RESULT:    -5.494      4.768      7.047
REMARK INTER + INTRA:          -6.571
REMARK INTER:                  -6.493
REMARK INTRA:                  -0.078
REMARK UNBOUND:                -0.113
REMARK  Name = 
REMARK  3 active torsions:
REMARK  status: ('A' for Active; 'I' for Inactive)
REMARK    1  A    between atoms: C_2  and  C_4
REMARK    2  A    between atoms: C_7  and  C_8
REMARK    3  A    between atoms: C_8  and  C_9
REMARK                            x       y       z     vdW  Elec       q    Type
REMARK                         _______ _______ _______ _____ _____    ______ ____
ROOT
ATOM      1  C   UNL     1      46.926   5.482  13.454  0.00  0.00    +0.000 A 
ATOM      2  C   UNL     1      47.920   6.277  13.968  0.00  0.00    +0.000 A 
ATOM      3  N   UNL     1      48.444   6.110  15.196  0.00  0.00    +0.000 NA
ATOM      4  C   UNL     1      47.930   5.126  15.970  0.00  0.00    +0.000 A 
ATOM      5  N   UNL     1      46.938   4.306  15.551  0.00  0.00    +0.000 NA
ATOM      6  C   UNL     1      46.451   4.510  14.304  0.00  0.00    +0.000 A 
ENDROOT
BRANCH   1   8
ATOM      7  N   UNL     1      46.872   6.670  11.347  0.00  0.00    +0.000 N 
ATOM      8  C   UNL     1      46.385   5.640  12.101  0.00  0.00    +0.000 C 
ATOM      9  O   UNL     1      45.556   4.857  11.653  0.00  0.00    +0.000 OA
ATOM     10  H   UNL     1      46.562   6.707  10.381  0.00  0.00    +0.000 HD
ATOM     11  H   UNL     1      47.715   7.178  11.576  0.00  0.00    +0.000 HD
ENDBRANCH   1   8
BRANCH   4  12
ATOM     12  C   UNL     1      48.437   5.013  17.408  0.00  0.00    +0.000 C 
ATOM     13  C   UNL     1      47.397   5.067  18.524  0.00  0.00    +0.000 C 
ATOM     14  C   UNL     1      48.325   6.222  18.329  0.00  0.00    +0.000 C 
BRANCH  12  15
ATOM     15  C   UNL     1      49.613   4.057  17.551  0.00  0.00    +0.000 A 
ATOM     16  C   UNL     1      50.921   4.522  17.779  0.00  0.00    +0.000 A 
ATOM     17  C   UNL     1      52.019   3.655  17.731  0.00  0.00    +0.000 A 
ATOM     18  C   UNL     1      51.833   2.303  17.452  0.00  0.00    +0.000 A 
ATOM     19  C   UNL     1      50.546   1.812  17.255  0.00  0.00    +0.000 A 
ATOM     20  C   UNL     1      49.459   2.681  17.313  0.00  0.00    +0.000 A 
ATOM     21  F   UNL     1      48.235   2.178  17.094  0.00  0.00    +0.000 F 
ENDBRANCH  12  15
ENDBRANCH   4  12
TORSDOF 3
ENDMDL
MODEL 8
REMARK VINA RESULT:    -5.345      4.986      7.362
REMARK INTER + INTRA:          -6.396
REMARK INTER:                  -6.939
REMARK INTRA:                   0.544
REMARK UNBOUND:                -0.113
REMARK  Name = 
REMARK  3 active torsions:
REMARK  status: ('A' for Active; 'I' for Inactive)
REMARK    1  A    between atoms: C_2  and  C_4
REMARK    2  A    between atoms: C_7  and  C_8
REMARK    3  A    between atoms: C_8  and  C_9
REMARK                            x       y       z     vdW  Elec       q    Type
REMARK                         _______ _______ _______ _____ _____    ______ ____
ROOT
ATOM      1  C   UNL     1      48.413   4.348  17.074  0.00  0.00    +0.000 A 
ATOM      2  C   UNL     1      47.404   3.696  16.410  0.00  0.00    +0.000 A 
ATOM      3  N   UNL     1      46.907   4.106  15.229  0.00  0.00    +0.000 NA
ATOM      4  C   UNL     1      47.410   5.244  14.696  0.00  0.00    +0.000 A 
ATOM      5  N   UNL     1      48.393   5.959  15.291  0.00  0.00    +0.000 NA
ATOM      6  C   UNL     1      48.865   5.500  16.473  0.00  0.00    +0.000 A 
ENDROOT
BRANCH   1   8
ATOM      7  N   UNL     1      48.205   3.056  19.109  0.00  0.00    +0.000 N 
ATOM      8  C   UNL     1      48.980   3.877  18.342  0.00  0.00    +0.000 C 
ATOM      9  O   UNL     1      50.119   4.180  18.678  0.00  0.00    +0.000 OA
ATOM     10  H   UNL     1      48.646   2.660  19.933  0.00  0.00    +0.000 HD
ATOM     11  H   UNL     1      47.378   2.589  18.766  0.00  0.00    +0.000 HD
ENDBRANCH   1   8
BRANCH   4  12
ATOM     12  C   UNL     1      46.765   5.778  13.418  0.00  0.00    +0.000 C 
ATOM     13  C   UNL     1      47.694   6.347  12.349  0.00  0.00    +0.000 C 
ATOM     14  C   UNL     1      46.820   7.275  13.131  0.00  0.00    +0.000 C 
BRANCH  12  15
ATOM     15  C   UNL     1      45.554   4.966  12.977  0.00  0.00    +0.000 A 
ATOM     16  C   UNL     1      45.681   3.650  12.496  0.00  0.00    +0.000 A 
ATOM     17  C   UNL     1      44.594   2.977  11.927  0.00  0.00    +0.000 A 
ATOM     18  C   UNL     1      43.354   3.607  11.826  0.00  0.00    +0.000 A 
ATOM     19  C   UNL     1      43.195   4.895  12.324  0.00  0.00    +0.000 A 
ATOM     20  C   UNL     1      44.281   5.554  12.896  0.00  0.00    +0.000 A 
ATOM     21  F   UNL     1      44.097   6.805  13.344  0.00  0.00    +0.000 F 
ENDBRANCH  12  15
ENDBRANCH   4  12
TORSDOF 3
ENDMDL
MODEL 9
REMARK VINA RESULT:    -5.312      3.422      5.148
REMARK INTER + INTRA:          -6.357
REMARK INTER:                  -7.144
REMARK INTRA:                   0.788
REMARK UNBOUND:                -0.113
REMARK  Name = 
REMARK  3 active torsions:
REMARK  status: ('A' for Active; 'I' for Inactive)
REMARK    1  A    between atoms: C_2  and  C_4
REMARK    2  A    between atoms: C_7  and  C_8
REMARK    3  A    between atoms: C_8  and  C_9
REMARK                            x       y       z     vdW  Elec       q    Type
REMARK                         _______ _______ _______ _____ _____    ______ ____
ROOT
ATOM      1  C   UNL     1      44.881   4.049  11.254  0.00  0.00    +0.000 A 
ATOM      2  C   UNL     1      45.301   4.258  12.544  0.00  0.00    +0.000 A 
ATOM      3  N   UNL     1      46.029   5.323  12.924  0.00  0.00    +0.000 NA
ATOM      4  C   UNL     1      46.393   6.209  11.968  0.00  0.00    +0.000 A 
ATOM      5  N   UNL     1      46.038   6.073  10.669  0.00  0.00    +0.000 NA
ATOM      6  C   UNL     1      45.298   4.988  10.340  0.00  0.00    +0.000 A 
ENDROOT
BRANCH   1   8
ATOM      7  N   UNL     1      44.518   2.126   9.832  0.00  0.00    +0.000 N 
ATOM      8  C   UNL     1      44.054   2.908  10.850  0.00  0.00    +0.000 C 
ATOM      9  O   UNL     1      43.006   2.648  11.430  0.00  0.00    +0.000 OA
ATOM     10  H   UNL     1      43.985   1.286   9.630  0.00  0.00    +0.000 HD
ATOM     11  H   UNL     1      45.471   2.152   9.498  0.00  0.00    +0.000 HD
ENDBRANCH   1   8
BRANCH   4  12
ATOM     12  C   UNL     1      47.322   7.354  12.373  0.00  0.00    +0.000 C 
ATOM     13  C   UNL     1      48.801   7.212  12.026  0.00  0.00    +0.000 C 
ATOM     14  C   UNL     1      48.370   7.108  13.453  0.00  0.00    +0.000 C 
BRANCH  12  15
ATOM     15  C   UNL     1      46.669   8.724  12.248  0.00  0.00    +0.000 A 
ATOM     16  C   UNL     1      45.276   8.891  12.338  0.00  0.00    +0.000 A 
ATOM     17  C   UNL     1      44.671  10.118  12.044  0.00  0.00    +0.000 A 
ATOM     18  C   UNL     1      45.448  11.207  11.653  0.00  0.00    +0.000 A 
ATOM     19  C   UNL     1      46.831  11.077  11.589  0.00  0.00    +0.000 A 
ATOM     20  C   UNL     1      47.424   9.853  11.891  0.00  0.00    +0.000 A 
ATOM     21  F   UNL     1      48.759   9.757  11.795  0.00  0.00    +0.000 F 
ENDBRANCH  12  15
ENDBRANCH   4  12
TORSDOF 3
ENDMDL
