MODEL 1
REMARK VINA RESULT:    -8.243      0.000      0.000
REMARK INTER + INTRA:         -12.017
REMARK INTER:                 -11.134
REMARK INTRA:                  -0.883
REMARK UNBOUND:                -0.883
REMARK  Name = 
REMARK  7 active torsions:
REMARK  status: ('A' for Active; 'I' for Inactive)
REMARK    1  A    between atoms: C_1  and  C_2
REMARK    2  A    between atoms: C_2  and  N_3
REMARK    3  A    between atoms: C_2  and  C_11
REMARK    4  A    between atoms: C_4  and  C_6
REMARK    5  A    between atoms: C_14  and  C_15
REMARK    6  A    between atoms: C_15  and  N_16
REMARK    7  A    between atoms: C_17  and  C_19
REMARK                            x       y       z     vdW  Elec       q    Type
REMARK                         _______ _______ _______ _____ _____    ______ ____
ROOT
ATOM      1  C   UNL     1      45.198   4.667  11.754  0.00  0.00    +0.000 A 
ATOM      2  C   UNL     1      45.389   5.984  11.303  0.00  0.00    +0.000 A 
ATOM      3  C   UNL     1      46.322   6.831  11.913  0.00  0.00    +0.000 A 
ATOM      4  C   UNL     1      47.104   6.376  12.980  0.00  0.00    +0.000 A 
ATOM      5  C   UNL     1      46.897   5.074  13.453  0.00  0.00    +0.000 A 
ATOM      6  C   UNL     1      45.968   4.226  12.839  0.00  0.00    +0.000 A 
ENDROOT
BRANCH   1   8
ATOM      7  C   UNL     1      43.447   2.794  11.923  0.00  0.00    +0.000 C 
ATOM      8  C   UNL     1      44.207   3.773  11.021  0.00  0.00    +0.000 C 
BRANCH   8   9
ATOM      9  N   UNL     1      44.880   3.063   9.951  0.00  0.00    +0.000 N 
ATOM     10  C   UNL     1      45.040   3.581   8.687  0.00  0.00    +0.000 C 
ATOM     11  O   UNL     1      44.631   4.692   8.354  0.00  0.00    +0.000 OA
ATOM     12  H   UNL     1      45.260   2.130  10.102  0.00  0.00    +0.000 HD
BRANCH  10  13
ATOM     13  C   UNL     1      45.724   2.634   7.692  0.00  0.00    +0.000 C 
ATOM     14  C   UNL     1      46.082   1.301   8.318  0.00  0.00    +0.000 C 
ATOM     15  C   UNL     1      47.130   0.758   7.366  0.00  0.00    +0.000 C 
ATOM     16  C   UNL     1      47.821   1.994   6.806  0.00  0.00    +0.000 C 
ATOM     17  N   UNL     1      47.051   3.152   7.269  0.00  0.00    +0.000 NA
ATOM     18  H   UNL     1      46.925   3.825   6.512  0.00  0.00    +0.000 HD
ENDBRANCH  10  13
ENDBRANCH   8   9
ENDBRANCH   1   8
BRANCH   4  19
ATOM     19  C   UNL     1      48.134   7.266  13.624  0.00  0.00    +0.000 C 
BRANCH  19  20
ATOM     20  N   UNL     1      48.026   7.248  15.060  0.00  0.00    +0.000 N 
ATOM     21  C   UNL     1      49.084   6.876  15.849  0.00  0.00    +0.000 C 
ATOM     22  O   UNL     1      50.179   6.584  15.375  0.00  0.00    +0.000 OA
ATOM     23  H   UNL     1      47.089   7.259  15.450  0.00  0.00    +0.000 HD
BRANCH  21  24
ATOM     24  C   UNL     1      48.862   6.906  17.299  0.00  0.00    +0.000 A 
ATOM     25  C   UNL     1      48.590   8.113  17.929  0.00  0.00    +0.000 A 
ATOM     26  S   UNL     1      48.303   7.962  19.604  0.00  0.00    +0.000 S 
ATOM     27  C   UNL     1      48.582   6.286  19.556  0.00  0.00    +0.000 A 
ATOM     28  N   UNL     1      48.515   5.532  20.685  0.00  0.00    +0.000 NA
ATOM     29  C   UNL     1      48.771   4.278  20.509  0.00  0.00    +0.000 A 
ATOM     30  N   UNL     1      49.085   3.708  19.303  0.00  0.00    +0.000 N 
ATOM     31  C   UNL     1      49.149   4.427  18.132  0.00  0.00    +0.000 A 
ATOM     32  O   UNL     1      49.408   3.880  17.065  0.00  0.00    +0.000 OA
ATOM     33  C   UNL     1      48.872   5.844  18.274  0.00  0.00    +0.000 A 
ATOM     34  H   UNL     1      49.273   2.720  19.229  0.00  0.00    +0.000 HD
ENDBRANCH  21  24
ENDBRANCH  19  20
ENDBRANCH   4  19
TORSDOF 6
ENDMDL
MODEL 2
REMARK VINA RESULT:    -8.169      1.338      2.173
REMARK INTER + INTRA:         -11.917
REMARK INTER:                 -10.896
REMARK INTRA:                  -1.021
REMARK UNBOUND:                -0.883
REMARK  Name = 
REMARK  7 active torsions:
REMARK  status: ('A' for Active; 'I' for Inactive)
REMARK    1  A    between atoms: C_1  and  C_2
REMARK    2  A    between atoms: C_2  and  N_3
REMARK    3  A    between atoms: C_2  and  C_11
REMARK    4  A    between atoms: C_4  and  C_6
REMARK    5  A    between atoms: C_14  and  C_15
REMARK    6  A    between atoms: C_15  and  N_16
REMARK    7  A    between atoms: C_17  and  C_19
REMARK                            x       y       z     vdW  Elec       q    Type
REMARK                         _______ _______ _______ _____ _____    ______ ____
ROOT
ATOM      1  C   UNL     1      45.272   4.612  11.687  0.00  0.00    +0.000 A 
ATOM      2  C   UNL     1      45.926   4.022  12.781  0.00  0.00    +0.000 A 
ATOM      3  C   UNL     1      46.851   4.741  13.547  0.00  0.00    +0.000 A 
ATOM      4  C   UNL     1      47.131   6.079  13.251  0.00  0.00    +0.000 A 
ATOM      5  C   UNL     1      46.504   6.664  12.145  0.00  0.00    +0.000 A 
ATOM      6  C   UNL     1      45.576   5.946  11.381  0.00  0.00    +0.000 A 
ENDROOT
BRANCH   1   8
ATOM      7  C   UNL     1      43.384   2.874  11.791  0.00  0.00    +0.000 C 
ATOM      8  C   UNL     1      44.238   3.800  10.919  0.00  0.00    +0.000 C 
BRANCH   8   9
ATOM      9  N   UNL     1      44.885   3.050   9.860  0.00  0.00    +0.000 N 
ATOM     10  C   UNL     1      45.207   3.596   8.639  0.00  0.00    +0.000 C 
ATOM     11  O   UNL     1      44.980   4.766   8.339  0.00  0.00    +0.000 OA
ATOM     12  H   UNL     1      45.122   2.068   9.986  0.00  0.00    +0.000 HD
BRANCH  10  13
ATOM     13  C   UNL     1      45.827   2.607   7.643  0.00  0.00    +0.000 C 
ATOM     14  C   UNL     1      46.079   1.247   8.262  0.00  0.00    +0.000 C 
ATOM     15  C   UNL     1      47.092   0.633   7.315  0.00  0.00    +0.000 C 
ATOM     16  C   UNL     1      47.878   1.818   6.770  0.00  0.00    +0.000 C 
ATOM     17  N   UNL     1      47.193   3.027   7.234  0.00  0.00    +0.000 NA
ATOM     18  H   UNL     1      47.124   3.712   6.481  0.00  0.00    +0.000 HD
ENDBRANCH  10  13
ENDBRANCH   8   9
ENDBRANCH   1   8
BRANCH   4  19
ATOM     19  C   UNL     1      48.098   6.874  14.088  0.00  0.00    +0.000 C 
BRANCH  19  20
ATOM     20  N   UNL     1      47.964   6.565  15.489  0.00  0.00    +0.000 N 
ATOM     21  C   UNL     1      49.056   6.251  16.256  0.00  0.00    +0.000 C 
ATOM     22  O   UNL     1      50.197   6.260  15.800  0.00  0.00    +0.000 OA
ATOM     23  H   UNL     1      47.034   6.330  15.821  0.00  0.00    +0.000 HD
BRANCH  21  24
ATOM     24  C   UNL     1      48.801   5.965  17.673  0.00  0.00    +0.000 A 
ATOM     25  C   UNL     1      49.054   4.695  18.175  0.00  0.00    +0.000 A 
ATOM     26  S   UNL     1      48.759   4.549  19.848  0.00  0.00    +0.000 S 
ATOM     27  C   UNL     1      48.233   6.162  19.952  0.00  0.00    +0.000 A 
ATOM     28  N   UNL     1      47.807   6.684  21.132  0.00  0.00    +0.000 NA
ATOM     29  C   UNL     1      47.415   7.914  21.063  0.00  0.00    +0.000 A 
ATOM     30  N   UNL     1      47.415   8.670  19.920  0.00  0.00    +0.000 N 
ATOM     31  C   UNL     1      47.852   8.189  18.708  0.00  0.00    +0.000 A 
ATOM     32  O   UNL     1      47.862   8.902  17.709  0.00  0.00    +0.000 OA
ATOM     33  C   UNL     1      48.301   6.810  18.728  0.00  0.00    +0.000 A 
ATOM     34  H   UNL     1      47.098   9.627  19.931  0.00  0.00    +0.000 HD
ENDBRANCH  21  24
ENDBRANCH  19  20
ENDBRANCH   4  19
TORSDOF 6
ENDMDL
MODEL 3
REMARK VINA RESULT:    -7.598      4.423      9.576
REMARK INTER + INTRA:         -11.146
REMARK INTER:                 -10.109
REMARK INTRA:                  -1.037
REMARK UNBOUND:                -0.883
REMARK  Name = 
REMARK  7 active torsions:
REMARK  status: ('A' for Active; 'I' for Inactive)
REMARK    1  A    between atoms: C_1  and  C_2
REMARK    2  A    between atoms: C_2  and  N_3
REMARK    3  A    between atoms: C_2  and  C_11
REMARK    4  A    between atoms: C_4  and  C_6
REMARK    5  A    between atoms: C_14  and  C_15
REMARK    6  A    between atoms: C_15  and  N_16
REMARK    7  A    between atoms: C_17  and  C_19
REMARK                            x       y       z     vdW  Elec       q    Type
REMARK                         _______ _______ _______ _____ _____    ______ ____
ROOT
ATOM      1  C   UNL     1      51.356   3.660  17.917  0.00  0.00    +0.000 A 
ATOM      2  C   UNL     1      50.486   4.744  18.124  0.00  0.00    +0.000 A 
ATOM      3  C   UNL     1      49.132   4.663  17.779  0.00  0.00    +0.000 A 
ATOM      4  C   UNL     1      48.606   3.486  17.237  0.00  0.00    +0.000 A 
ATOM      5  C   UNL     1      49.473   2.413  17.001  0.00  0.00    +0.000 A 
ATOM      6  C   UNL     1      50.826   2.493  17.350  0.00  0.00    +0.000 A 
ENDROOT
BRANCH   1   8
ATOM      7  C   UNL     1      53.556   4.975  17.748  0.00  0.00    +0.000 C 
ATOM      8  C   UNL     1      52.808   3.785  18.357  0.00  0.00    +0.000 C 
BRANCH   8   9
ATOM      9  N   UNL     1      53.514   2.547  18.088  0.00  0.00    +0.000 N 
ATOM     10  C   UNL     1      54.220   1.859  19.048  0.00  0.00    +0.000 C 
ATOM     11  O   UNL     1      54.311   2.229  20.216  0.00  0.00    +0.000 OA
ATOM     12  H   UNL     1      53.516   2.140  17.155  0.00  0.00    +0.000 HD
BRANCH  10  13
ATOM     13  C   UNL     1      54.944   0.608  18.531  0.00  0.00    +0.000 C 
ATOM     14  C   UNL     1      54.859   0.474  17.024  0.00  0.00    +0.000 C 
ATOM     15  C   UNL     1      55.178  -0.992  16.802  0.00  0.00    +0.000 C 
ATOM     16  C   UNL     1      54.668  -1.692  18.055  0.00  0.00    +0.000 C 
ATOM     17  N   UNL     1      54.283  -0.638  18.997  0.00  0.00    +0.000 NA
ATOM     18  H   UNL     1      54.609  -0.861  19.938  0.00  0.00    +0.000 HD
ENDBRANCH  10  13
ENDBRANCH   8   9
ENDBRANCH   1   8
BRANCH   4  19
ATOM     19  C   UNL     1      47.144   3.375  16.893  0.00  0.00    +0.000 C 
BRANCH  19  20
ATOM     20  N   UNL     1      46.749   4.372  15.931  0.00  0.00    +0.000 N 
ATOM     21  C   UNL     1      46.862   4.145  14.584  0.00  0.00    +0.000 C 
ATOM     22  O   UNL     1      47.262   3.074  14.135  0.00  0.00    +0.000 OA
ATOM     23  H   UNL     1      46.640   5.322  16.272  0.00  0.00    +0.000 HD
BRANCH  21  24
ATOM     24  C   UNL     1      46.419   5.228  13.698  0.00  0.00    +0.000 A 
ATOM     25  C   UNL     1      47.255   6.312  13.464  0.00  0.00    +0.000 A 
ATOM     26  S   UNL     1      46.612   7.450  12.369  0.00  0.00    +0.000 S 
ATOM     27  C   UNL     1      45.172   6.561  12.206  0.00  0.00    +0.000 A 
ATOM     28  N   UNL     1      44.163   7.003  11.410  0.00  0.00    +0.000 NA
ATOM     29  C   UNL     1      43.119   6.242  11.396  0.00  0.00    +0.000 A 
ATOM     30  N   UNL     1      42.994   5.076  12.105  0.00  0.00    +0.000 N 
ATOM     31  C   UNL     1      43.994   4.582  12.910  0.00  0.00    +0.000 A 
ATOM     32  O   UNL     1      43.858   3.521  13.511  0.00  0.00    +0.000 OA
ATOM     33  C   UNL     1      45.190   5.401  12.964  0.00  0.00    +0.000 A 
ATOM     34  H   UNL     1      42.152   4.524  12.051  0.00  0.00    +0.000 HD
ENDBRANCH  21  24
ENDBRANCH  19  20
ENDBRANCH   4  19
TORSDOF 6
ENDMDL
MODEL 4
REMARK VINA RESULT:    -7.580      1.820      2.303
REMARK INTER + INTRA:         -11.122
REMARK INTER:                  -9.944
REMARK INTRA:                  -1.178
REMARK UNBOUND:                -0.883
REMARK  Name = 
REMARK  7 active torsions:
REMARK  status: ('A' for Active; 'I' for Inactive)
REMARK    1  A    between atoms: C_1  and  C_2
REMARK    2  A    between atoms: C_2  and  N_3
REMARK    3  A    between atoms: C_2  and  C_11
REMARK    4  A    between atoms: C_4  and  C_6
REMARK    5  A    between atoms: C_14  and  C_15
REMARK    6  A    between atoms: C_15  and  N_16
REMARK    7  A    between atoms: C_17  and  C_19
REMARK                            x       y       z     vdW  Elec       q    Type
REMARK                         _______ _______ _______ _____ _____    ______ ____
ROOT
ATOM      1  C   UNL     1      45.166   4.871  11.742  0.00  0.00    +0.000 A 
ATOM      2  C   UNL     1      45.979   4.482  12.820  0.00  0.00    +0.000 A 
ATOM      3  C   UNL     1      46.806   5.403  13.473  0.00  0.00    +0.000 A 
ATOM      4  C   UNL     1      46.826   6.745  13.079  0.00  0.00    +0.000 A 
ATOM      5  C   UNL     1      46.041   7.133  11.987  0.00  0.00    +0.000 A 
ATOM      6  C   UNL     1      45.210   6.212  11.337  0.00  0.00    +0.000 A 
ENDROOT
BRANCH   1   8
ATOM      7  C   UNL     1      43.661   2.817  12.079  0.00  0.00    +0.000 C 
ATOM      8  C   UNL     1      44.248   3.840  11.101  0.00  0.00    +0.000 C 
BRANCH   8   9
ATOM      9  N   UNL     1      44.938   3.170  10.015  0.00  0.00    +0.000 N 
ATOM     10  C   UNL     1      44.881   3.599   8.709  0.00  0.00    +0.000 C 
ATOM     11  O   UNL     1      44.247   4.587   8.348  0.00  0.00    +0.000 OA
ATOM     12  H   UNL     1      45.495   2.336  10.188  0.00  0.00    +0.000 HD
BRANCH  10  13
ATOM     13  C   UNL     1      45.633   2.706   7.713  0.00  0.00    +0.000 C 
ATOM     14  C   UNL     1      46.068   1.392   8.331  0.00  0.00    +0.000 C 
ATOM     15  C   UNL     1      47.157   0.924   7.386  0.00  0.00    +0.000 C 
ATOM     16  C   UNL     1      47.774   2.206   6.843  0.00  0.00    +0.000 C 
ATOM     17  N   UNL     1      46.929   3.309   7.308  0.00  0.00    +0.000 NA
ATOM     18  H   UNL     1      46.768   3.980   6.556  0.00  0.00    +0.000 HD
ENDBRANCH  10  13
ENDBRANCH   8   9
ENDBRANCH   1   8
BRANCH   4  19
ATOM     19  C   UNL     1      47.686   7.753  13.795  0.00  0.00    +0.000 C 
BRANCH  19  20
ATOM     20  N   UNL     1      48.811   7.125  14.440  0.00  0.00    +0.000 N 
ATOM     21  C   UNL     1      49.648   7.837  15.261  0.00  0.00    +0.000 C 
ATOM     22  O   UNL     1      49.457   9.023  15.516  0.00  0.00    +0.000 OA
ATOM     23  H   UNL     1      49.114   6.231  14.068  0.00  0.00    +0.000 HD
BRANCH  21  24
ATOM     24  C   UNL     1      50.755   7.092  15.873  0.00  0.00    +0.000 A 
ATOM     25  C   UNL     1      52.065   7.485  15.634  0.00  0.00    +0.000 A 
ATOM     26  S   UNL     1      53.224   6.549  16.465  0.00  0.00    +0.000 S 
ATOM     27  C   UNL     1      52.019   5.552  17.133  0.00  0.00    +0.000 A 
ATOM     28  N   UNL     1      52.343   4.511  17.944  0.00  0.00    +0.000 NA
ATOM     29  C   UNL     1      51.333   3.823  18.363  0.00  0.00    +0.000 A 
ATOM     30  N   UNL     1      50.025   4.086  18.046  0.00  0.00    +0.000 N 
ATOM     31  C   UNL     1      49.649   5.137  17.243  0.00  0.00    +0.000 A 
ATOM     32  O   UNL     1      48.467   5.358  17.000  0.00  0.00    +0.000 OA
ATOM     33  C   UNL     1      50.748   5.941  16.742  0.00  0.00    +0.000 A 
ATOM     34  H   UNL     1      49.279   3.512  18.407  0.00  0.00    +0.000 HD
ENDBRANCH  21  24
ENDBRANCH  19  20
ENDBRANCH   4  19
TORSDOF 6
ENDMDL
MODEL 5
REMARK VINA RESULT:    -7.486      1.884      2.473
REMARK INTER + INTRA:         -10.994
REMARK INTER:                  -9.824
REMARK INTRA:                  -1.170
REMARK UNBOUND:                -0.883
REMARK  Name = 
REMARK  7 active torsions:
REMARK  status: ('A' for Active; 'I' for Inactive)
REMARK    1  A    between atoms: C_1  and  C_2
REMARK    2  A    between atoms: C_2  and  N_3
REMARK    3  A    between atoms: C_2  and  C_11
REMARK    4  A    between atoms: C_4  and  C_6
REMARK    5  A    between atoms: C_14  and  C_15
REMARK    6  A    between atoms: C_15  and  N_16
REMARK    7  A    between atoms: C_17  and  C_19
REMARK                            x       y       z     vdW  Elec       q    Type
REMARK                         _______ _______ _______ _____ _____    ______ ____
ROOT
ATOM      1  C   UNL     1      45.178   4.931  11.893  0.00  0.00    +0.000 A 
ATOM      2  C   UNL     1      45.746   6.128  12.358  0.00  0.00    +0.000 A 
ATOM      3  C   UNL     1      46.636   6.137  13.440  0.00  0.00    +0.000 A 
ATOM      4  C   UNL     1      46.997   4.943  14.071  0.00  0.00    +0.000 A 
ATOM      5  C   UNL     1      46.412   3.749  13.631  0.00  0.00    +0.000 A 
ATOM      6  C   UNL     1      45.527   3.741  12.547  0.00  0.00    +0.000 A 
ENDROOT
BRANCH   1   8
ATOM      7  C   UNL     1      42.780   4.712  10.997  0.00  0.00    +0.000 C 
ATOM      8  C   UNL     1      44.257   4.973  10.682  0.00  0.00    +0.000 C 
BRANCH   8   9
ATOM      9  N   UNL     1      44.732   4.052   9.667  0.00  0.00    +0.000 N 
ATOM     10  C   UNL     1      45.663   4.395   8.715  0.00  0.00    +0.000 C 
ATOM     11  O   UNL     1      46.179   5.509   8.642  0.00  0.00    +0.000 OA
ATOM     12  H   UNL     1      44.377   3.099   9.621  0.00  0.00    +0.000 HD
BRANCH  10  13
ATOM     13  C   UNL     1      45.974   3.287   7.699  0.00  0.00    +0.000 C 
ATOM     14  C   UNL     1      46.116   1.928   8.355  0.00  0.00    +0.000 C 
ATOM     15  C   UNL     1      46.873   1.132   7.309  0.00  0.00    +0.000 C 
ATOM     16  C   UNL     1      47.732   2.162   6.587  0.00  0.00    +0.000 C 
ATOM     17  N   UNL     1      47.308   3.478   7.074  0.00  0.00    +0.000 NA
ATOM     18  H   UNL     1      47.227   4.138   6.299  0.00  0.00    +0.000 HD
ENDBRANCH  10  13
ENDBRANCH   8   9
ENDBRANCH   1   8
BRANCH   4  19
ATOM     19  C   UNL     1      47.979   4.934  15.214  0.00  0.00    +0.000 C 
BRANCH  19  20
ATOM     20  N   UNL     1      48.000   6.200  15.902  0.00  0.00    +0.000 N 
ATOM     21  C   UNL     1      49.183   6.824  16.205  0.00  0.00    +0.000 C 
ATOM     22  O   UNL     1      50.269   6.361  15.870  0.00  0.00    +0.000 OA
ATOM     23  H   UNL     1      47.150   6.477  16.382  0.00  0.00    +0.000 HD
BRANCH  21  24
ATOM     24  C   UNL     1      49.083   8.114  16.898  0.00  0.00    +0.000 A 
ATOM     25  C   UNL     1      49.649   9.247  16.329  0.00  0.00    +0.000 A 
ATOM     26  S   UNL     1      49.395  10.669  17.236  0.00  0.00    +0.000 S 
ATOM     27  C   UNL     1      48.562   9.814  18.446  0.00  0.00    +0.000 A 
ATOM     28  N   UNL     1      48.082  10.449  19.548  0.00  0.00    +0.000 NA
ATOM     29  C   UNL     1      47.491   9.676  20.397  0.00  0.00    +0.000 A 
ATOM     30  N   UNL     1      47.334   8.323  20.243  0.00  0.00    +0.000 N 
ATOM     31  C   UNL     1      47.788   7.641  19.139  0.00  0.00    +0.000 A 
ATOM     32  O   UNL     1      47.608   6.433  19.021  0.00  0.00    +0.000 OA
ATOM     33  C   UNL     1      48.464   8.463  18.153  0.00  0.00    +0.000 A 
ATOM     34  H   UNL     1      46.860   7.773  20.943  0.00  0.00    +0.000 HD
ENDBRANCH  21  24
ENDBRANCH  19  20
ENDBRANCH   4  19
TORSDOF 6
ENDMDL
MODEL 6
REMARK VINA RESULT:    -7.174      1.912      3.153
REMARK INTER + INTRA:         -10.574
REMARK INTER:                 -10.451
REMARK INTRA:                  -0.123
REMARK UNBOUND:                -0.883
REMARK  Name = 
REMARK  7 active torsions:
REMARK  status: ('A' for Active; 'I' for Inactive)
REMARK    1  A    between atoms: C_1  and  C_2
REMARK    2  A    between atoms: C_2  and  N_3
REMARK    3  A    between atoms: C_2  and  C_11
REMARK    4  A    between atoms: C_4  and  C_6
REMARK    5  A    between atoms: C_14  and  C_15
REMARK    6  A    between atoms: C_15  and  N_16
REMARK    7  A    between atoms: C_17  and  C_19
REMARK                            x       y       z     vdW  Elec       q    Type
REMARK                         _______ _______ _______ _____ _____    ______ ____
ROOT
ATOM      1  C   UNL     1      45.688   5.615  12.047  0.00  0.00    +0.000 A 
ATOM      2  C   UNL     1      45.325   4.411  12.674  0.00  0.00    +0.000 A 
ATOM      3  C   UNL     1      45.973   3.976  13.836  0.00  0.00    +0.000 A 
ATOM      4  C   UNL     1      46.988   4.745  14.414  0.00  0.00    +0.000 A 
ATOM      5  C   UNL     1      47.374   5.931  13.778  0.00  0.00    +0.000 A 
ATOM      6  C   UNL     1      46.723   6.368  12.619  0.00  0.00    +0.000 A 
ENDROOT
BRANCH   1   8
ATOM      7  C   UNL     1      43.392   6.065  10.984  0.00  0.00    +0.000 C 
ATOM      8  C   UNL     1      44.916   6.066  10.815  0.00  0.00    +0.000 C 
BRANCH   8   9
ATOM      9  N   UNL     1      45.302   5.267   9.668  0.00  0.00    +0.000 N 
ATOM     10  C   UNL     1      44.633   4.129   9.283  0.00  0.00    +0.000 C 
ATOM     11  O   UNL     1      43.648   3.691   9.873  0.00  0.00    +0.000 OA
ATOM     12  H   UNL     1      46.106   5.526   9.100  0.00  0.00    +0.000 HD
BRANCH  10  13
ATOM     13  C   UNL     1      45.251   3.403   8.081  0.00  0.00    +0.000 C 
ATOM     14  C   UNL     1      45.867   2.072   8.465  0.00  0.00    +0.000 C 
ATOM     15  C   UNL     1      46.799   1.789   7.303  0.00  0.00    +0.000 C 
ATOM     16  C   UNL     1      47.232   3.165   6.811  0.00  0.00    +0.000 C 
ATOM     17  N   UNL     1      46.416   4.145   7.533  0.00  0.00    +0.000 NA
ATOM     18  H   UNL     1      46.085   4.872   6.899  0.00  0.00    +0.000 HD
ENDBRANCH  10  13
ENDBRANCH   8   9
ENDBRANCH   1   8
BRANCH   4  19
ATOM     19  C   UNL     1      47.670   4.304  15.683  0.00  0.00    +0.000 C 
BRANCH  19  20
ATOM     20  N   UNL     1      47.626   5.332  16.692  0.00  0.00    +0.000 N 
ATOM     21  C   UNL     1      48.737   6.074  17.000  0.00  0.00    +0.000 C 
ATOM     22  O   UNL     1      49.803   5.929  16.406  0.00  0.00    +0.000 OA
ATOM     23  H   UNL     1      46.844   5.309  17.338  0.00  0.00    +0.000 HD
BRANCH  21  24
ATOM     24  C   UNL     1      48.573   7.101  18.036  0.00  0.00    +0.000 A 
ATOM     25  C   UNL     1      48.678   6.750  19.375  0.00  0.00    +0.000 A 
ATOM     26  S   UNL     1      48.518   8.069  20.444  0.00  0.00    +0.000 S 
ATOM     27  C   UNL     1      48.251   9.149  19.158  0.00  0.00    +0.000 A 
ATOM     28  N   UNL     1      48.016  10.467  19.388  0.00  0.00    +0.000 NA
ATOM     29  C   UNL     1      47.808  11.169  18.323  0.00  0.00    +0.000 A 
ATOM     30  N   UNL     1      47.816  10.670  17.047  0.00  0.00    +0.000 N 
ATOM     31  C   UNL     1      48.064   9.347  16.764  0.00  0.00    +0.000 A 
ATOM     32  O   UNL     1      48.089   8.939  15.608  0.00  0.00    +0.000 OA
ATOM     33  C   UNL     1      48.303   8.512  17.927  0.00  0.00    +0.000 A 
ATOM     34  H   UNL     1      47.648  11.270  16.254  0.00  0.00    +0.000 HD
ENDBRANCH  21  24
ENDBRANCH  19  20
ENDBRANCH   4  19
TORSDOF 6
ENDMDL
MODEL 7
REMARK VINA RESULT:    -7.051      3.627      9.115
REMARK INTER + INTRA:         -10.407
REMARK INTER:                  -9.333
REMARK INTRA:                  -1.074
REMARK UNBOUND:                -0.883
REMARK  Name = 
REMARK  7 active torsions:
REMARK  status: ('A' for Active; 'I' for Inactive)
REMARK    1  A    between atoms: C_1  and  C_2
REMARK    2  A    between atoms: C_2  and  N_3
REMARK    3  A    between atoms: C_2  and  C_11
REMARK    4  A    between atoms: C_4  and  C_6
REMARK    5  A    between atoms: C_14  and  C_15
REMARK    6  A    between atoms: C_15  and  N_16
REMARK    7  A    between atoms: C_17  and  C_19
REMARK                            x       y       z     vdW  Elec       q    Type
REMARK                         _______ _______ _______ _____ _____    ______ ____
ROOT
ATOM      1  C   UNL     1      49.079   4.869  17.294  0.00  0.00    +0.000 A 
ATOM      2  C   UNL     1      49.751   6.011  16.827  0.00  0.00    +0.000 A 
ATOM      3  C   UNL     1      49.354   6.654  15.649  0.00  0.00    +0.000 A 
ATOM      4  C   UNL     1      48.259   6.184  14.916  0.00  0.00    +0.000 A 
ATOM      5  C   UNL     1      47.604   5.030  15.361  0.00  0.00    +0.000 A 
ATOM      6  C   UNL     1      47.998   4.389  16.541  0.00  0.00    +0.000 A 
ENDROOT
BRANCH   1   8
ATOM      7  C   UNL     1      49.326   5.132  19.837  0.00  0.00    +0.000 C 
ATOM      8  C   UNL     1      49.521   4.238  18.607  0.00  0.00    +0.000 C 
BRANCH   8   9
ATOM      9  N   UNL     1      50.900   3.801  18.508  0.00  0.00    +0.000 N 
ATOM     10  C   UNL     1      51.286   2.681  17.810  0.00  0.00    +0.000 C 
ATOM     11  O   UNL     1      50.500   1.954  17.207  0.00  0.00    +0.000 OA
ATOM     12  H   UNL     1      51.645   4.320  18.969  0.00  0.00    +0.000 HD
BRANCH  10  13
ATOM     13  C   UNL     1      52.786   2.367  17.889  0.00  0.00    +0.000 C 
ATOM     14  C   UNL     1      53.082   0.901  17.642  0.00  0.00    +0.000 C 
ATOM     15  C   UNL     1      54.469   0.738  18.233  0.00  0.00    +0.000 C 
ATOM     16  C   UNL     1      54.528   1.754  19.366  0.00  0.00    +0.000 C 
ATOM     17  N   UNL     1      53.316   2.570  19.263  0.00  0.00    +0.000 NA
ATOM     18  H   UNL     1      53.535   3.557  19.398  0.00  0.00    +0.000 HD
ENDBRANCH  10  13
ENDBRANCH   8   9
ENDBRANCH   1   8
BRANCH   4  19
ATOM     19  C   UNL     1      47.801   6.887  13.666  0.00  0.00    +0.000 C 
BRANCH  19  20
ATOM     20  N   UNL     1      47.165   5.976  12.749  0.00  0.00    +0.000 N 
ATOM     21  C   UNL     1      46.211   6.408  11.864  0.00  0.00    +0.000 C 
ATOM     22  O   UNL     1      45.886   7.589  11.782  0.00  0.00    +0.000 OA
ATOM     23  H   UNL     1      47.246   4.985  12.956  0.00  0.00    +0.000 HD
BRANCH  21  24
ATOM     24  C   UNL     1      45.638   5.393  10.971  0.00  0.00    +0.000 A 
ATOM     25  C   UNL     1      45.792   5.520   9.597  0.00  0.00    +0.000 A 
ATOM     26  S   UNL     1      45.116   4.230   8.710  0.00  0.00    +0.000 S 
ATOM     27  C   UNL     1      44.550   3.480  10.127  0.00  0.00    +0.000 A 
ATOM     28  N   UNL     1      43.851   2.317  10.072  0.00  0.00    +0.000 NA
ATOM     29  C   UNL     1      43.462   1.869  11.220  0.00  0.00    +0.000 A 
ATOM     30  N   UNL     1      43.713   2.480  12.421  0.00  0.00    +0.000 N 
ATOM     31  C   UNL     1      44.431   3.649  12.527  0.00  0.00    +0.000 A 
ATOM     32  O   UNL     1      44.660   4.156  13.621  0.00  0.00    +0.000 OA
ATOM     33  C   UNL     1      44.890   4.197  11.264  0.00  0.00    +0.000 A 
ATOM     34  H   UNL     1      43.384   2.080  13.286  0.00  0.00    +0.000 HD
ENDBRANCH  21  24
ENDBRANCH  19  20
ENDBRANCH   4  19
TORSDOF 6
ENDMDL
MODEL 8
REMARK VINA RESULT:    -6.899      2.809      9.013
REMARK INTER + INTRA:         -10.203
REMARK INTER:                  -9.045
REMARK INTRA:                  -1.157
REMARK UNBOUND:                -0.883
REMARK  Name = 
REMARK  7 active torsions:
REMARK  status: ('A' for Active; 'I' for Inactive)
REMARK    1  A    between atoms: C_1  and  C_2
REMARK    2  A    between atoms: C_2  and  N_3
REMARK    3  A    between atoms: C_2  and  C_11
REMARK    4  A    between atoms: C_4  and  C_6
REMARK    5  A    between atoms: C_14  and  C_15
REMARK    6  A    between atoms: C_15  and  N_16
REMARK    7  A    between atoms: C_17  and  C_19
REMARK                            x       y       z     vdW  Elec       q    Type
REMARK                         _______ _______ _______ _____ _____    ______ ____
ROOT
ATOM      1  C   UNL     1      49.355   7.929  15.548  0.00  0.00    +0.000 A 
ATOM      2  C   UNL     1      48.277   8.804  15.336  0.00  0.00    +0.000 A 
ATOM      3  C   UNL     1      47.591   8.827  14.116  0.00  0.00    +0.000 A 
ATOM      4  C   UNL     1      47.953   7.959  13.080  0.00  0.00    +0.000 A 
ATOM      5  C   UNL     1      49.045   7.105  13.275  0.00  0.00    +0.000 A 
ATOM      6  C   UNL     1      49.727   7.079  14.497  0.00  0.00    +0.000 A 
ENDROOT
BRANCH   1   8
ATOM      7  C   UNL     1      51.222   8.866  17.043  0.00  0.00    +0.000 C 
ATOM      8  C   UNL     1      50.032   7.909  16.911  0.00  0.00    +0.000 C 
BRANCH   8   9
ATOM      9  N   UNL     1      50.427   6.555  17.248  0.00  0.00    +0.000 N 
ATOM     10  C   UNL     1      49.559   5.626  17.771  0.00  0.00    +0.000 C 
ATOM     11  O   UNL     1      48.373   5.857  17.995  0.00  0.00    +0.000 OA
ATOM     12  H   UNL     1      51.387   6.243  17.110  0.00  0.00    +0.000 HD
BRANCH  10  13
ATOM     13  C   UNL     1      50.203   4.275  18.113  0.00  0.00    +0.000 C 
ATOM     14  C   UNL     1      51.688   4.252  17.812  0.00  0.00    +0.000 C 
ATOM     15  C   UNL     1      51.992   2.767  17.751  0.00  0.00    +0.000 C 
ATOM     16  C   UNL     1      50.701   2.130  17.252  0.00  0.00    +0.000 C 
ATOM     17  N   UNL     1      49.687   3.187  17.244  0.00  0.00    +0.000 NA
ATOM     18  H   UNL     1      48.805   2.841  17.623  0.00  0.00    +0.000 HD
ENDBRANCH  10  13
ENDBRANCH   8   9
ENDBRANCH   1   8
BRANCH   4  19
ATOM     19  C   UNL     1      47.201   7.951  11.775  0.00  0.00    +0.000 C 
BRANCH  19  20
ATOM     20  N   UNL     1      46.598   6.668  11.520  0.00  0.00    +0.000 N 
ATOM     21  C   UNL     1      45.251   6.471  11.683  0.00  0.00    +0.000 C 
ATOM     22  O   UNL     1      44.494   7.381  12.009  0.00  0.00    +0.000 OA
ATOM     23  H   UNL     1      47.220   5.867  11.478  0.00  0.00    +0.000 HD
BRANCH  21  24
ATOM     24  C   UNL     1      44.745   5.126  11.384  0.00  0.00    +0.000 A 
ATOM     25  C   UNL     1      44.007   4.440  12.340  0.00  0.00    +0.000 A 
ATOM     26  S   UNL     1      43.448   2.918  11.811  0.00  0.00    +0.000 S 
ATOM     27  C   UNL     1      44.215   3.098  10.305  0.00  0.00    +0.000 A 
ATOM     28  N   UNL     1      44.149   2.119   9.364  0.00  0.00    +0.000 NA
ATOM     29  C   UNL     1      44.795   2.378   8.275  0.00  0.00    +0.000 A 
ATOM     30  N   UNL     1      45.499   3.530   8.041  0.00  0.00    +0.000 N 
ATOM     31  C   UNL     1      45.579   4.554   8.956  0.00  0.00    +0.000 A 
ATOM     32  O   UNL     1      46.197   5.584   8.703  0.00  0.00    +0.000 OA
ATOM     33  C   UNL     1      44.873   4.314  10.200  0.00  0.00    +0.000 A 
ATOM     34  H   UNL     1      45.982   3.675   7.167  0.00  0.00    +0.000 HD
ENDBRANCH  21  24
ENDBRANCH  19  20
ENDBRANCH   4  19
TORSDOF 6
ENDMDL
MODEL 9
REMARK VINA RESULT:    -6.788      5.025      8.486
REMARK INTER + INTRA:         -10.052
REMARK INTER:                  -9.011
REMARK INTRA:                  -1.041
REMARK UNBOUND:                -0.883
REMARK  Name = 
REMARK  7 active torsions:
REMARK  status: ('A' for Active; 'I' for Inactive)
REMARK    1  A    between atoms: C_1  and  C_2
REMARK    2  A    between atoms: C_2  and  N_3
REMARK    3  A    between atoms: C_2  and  C_11
REMARK    4  A    between atoms: C_4  and  C_6
REMARK    5  A    between atoms: C_14  and  C_15
REMARK    6  A    between atoms: C_15  and  N_16
REMARK    7  A    between atoms: C_17  and  C_19
REMARK                            x       y       z     vdW  Elec       q    Type
REMARK                         _______ _______ _______ _____ _____    ______ ____
ROOT
ATOM      1  C   UNL     1      50.568   8.934  11.221  0.00  0.00    +0.000 A 
ATOM      2  C   UNL     1      49.683   9.998  11.463  0.00  0.00    +0.000 A 
ATOM      3  C   UNL     1      48.372   9.767  11.897  0.00  0.00    +0.000 A 
ATOM      4  C   UNL     1      47.917   8.463  12.119  0.00  0.00    +0.000 A 
ATOM      5  C   UNL     1      48.784   7.397  11.851  0.00  0.00    +0.000 A 
ATOM      6  C   UNL     1      50.096   7.629  11.422  0.00  0.00    +0.000 A 
ENDROOT
BRANCH   1   8
ATOM      7  C   UNL     1      52.230  10.695  10.363  0.00  0.00    +0.000 C 
ATOM      8  C   UNL     1      51.998   9.244  10.800  0.00  0.00    +0.000 C 
BRANCH   8   9
ATOM      9  N   UNL     1      52.419   8.324   9.761  0.00  0.00    +0.000 N 
ATOM     10  C   UNL     1      53.720   7.907   9.608  0.00  0.00    +0.000 C 
ATOM     11  O   UNL     1      54.639   8.271  10.338  0.00  0.00    +0.000 OA
ATOM     12  H   UNL     1      51.749   7.953   9.091  0.00  0.00    +0.000 HD
BRANCH  10  13
ATOM     13  C   UNL     1      53.955   6.983   8.405  0.00  0.00    +0.000 C 
ATOM     14  C   UNL     1      52.658   6.542   7.755  0.00  0.00    +0.000 C 
ATOM     15  C   UNL     1      53.081   5.318   6.966  0.00  0.00    +0.000 C 
ATOM     16  C   UNL     1      54.235   4.724   7.764  0.00  0.00    +0.000 C 
ATOM     17  N   UNL     1      54.558   5.690   8.817  0.00  0.00    +0.000 NA
ATOM     18  H   UNL     1      55.569   5.801   8.904  0.00  0.00    +0.000 HD
ENDBRANCH  10  13
ENDBRANCH   8   9
ENDBRANCH   1   8
BRANCH   4  19
ATOM     19  C   UNL     1      46.520   8.202  12.617  0.00  0.00    +0.000 C 
BRANCH  19  20
ATOM     20  N   UNL     1      46.086   6.866  12.300  0.00  0.00    +0.000 N 
ATOM     21  C   UNL     1      44.888   6.637  11.674  0.00  0.00    +0.000 C 
ATOM     22  O   UNL     1      44.153   7.554  11.319  0.00  0.00    +0.000 OA
ATOM     23  H   UNL     1      46.554   6.104  12.781  0.00  0.00    +0.000 HD
BRANCH  21  24
ATOM     24  C   UNL     1      44.554   5.236  11.391  0.00  0.00    +0.000 A 
ATOM     25  C   UNL     1      43.804   4.508  12.306  0.00  0.00    +0.000 A 
ATOM     26  S   UNL     1      43.458   2.918  11.797  0.00  0.00    +0.000 S 
ATOM     27  C   UNL     1      44.341   3.127  10.359  0.00  0.00    +0.000 A 
ATOM     28  N   UNL     1      44.466   2.115   9.461  0.00  0.00    +0.000 NA
ATOM     29  C   UNL     1      45.181   2.403   8.424  0.00  0.00    +0.000 A 
ATOM     30  N   UNL     1      45.781   3.615   8.204  0.00  0.00    +0.000 N 
ATOM     31  C   UNL     1      45.669   4.673   9.075  0.00  0.00    +0.000 A 
ATOM     32  O   UNL     1      46.198   5.753   8.834  0.00  0.00    +0.000 OA
ATOM     33  C   UNL     1      44.877   4.402  10.260  0.00  0.00    +0.000 A 
ATOM     34  H   UNL     1      46.327   3.780   7.372  0.00  0.00    +0.000 HD
ENDBRANCH  21  24
ENDBRANCH  19  20
ENDBRANCH   4  19
TORSDOF 6
ENDMDL
