MODEL 1
REMARK VINA RESULT:    -8.713      0.000      0.000
REMARK INTER + INTRA:         -11.275
REMARK INTER:                 -11.260
REMARK INTRA:                  -0.016
REMARK UNBOUND:                -0.016
REMARK  Name = 
REMARK  7 active torsions:
REMARK  status: ('A' for Active; 'I' for Inactive)
REMARK    1  A    between atoms: C_1  and  C_2
REMARK    2  A    between atoms: C_2  and  N_3
REMARK    3  A    between atoms: C_2  and  C_17
REMARK    4  A    between atoms: C_4  and  C_6
REMARK    5  A    between atoms: N_12  and  C_13
REMARK    6  A    between atoms: C_20  and  O_21
REMARK    7  A    between atoms: O_21  and  C_22
REMARK                            x       y       z     vdW  Elec       q    Type
REMARK                         _______ _______ _______ _____ _____    ______ ____
ROOT
ATOM      1  C   UNL     1      45.502   8.462  11.937  0.00  0.00    +0.000 C 
ATOM      2  C   UNL     1      45.276   7.175  12.732  0.00  0.00    +0.000 C 
ENDROOT
BRANCH   2   3
ATOM      3  C   UNL     1      45.181   5.918  11.880  0.00  0.00    +0.000 A 
ATOM      4  C   UNL     1      45.501   6.007  10.516  0.00  0.00    +0.000 A 
ATOM      5  C   UNL     1      45.359   4.906   9.669  0.00  0.00    +0.000 A 
ATOM      6  C   UNL     1      44.923   3.681  10.175  0.00  0.00    +0.000 A 
ATOM      7  C   UNL     1      44.565   3.586  11.520  0.00  0.00    +0.000 A 
ATOM      8  C   UNL     1      44.688   4.696  12.365  0.00  0.00    +0.000 A 
BRANCH   6   9
ATOM      9  O   UNL     1      44.728   2.557   9.405  0.00  0.00    +0.000 OA
BRANCH   9  10
ATOM     10  C   UNL     1      45.617   2.300   8.368  0.00  0.00    +0.000 A 
ATOM     11  C   UNL     1      45.707   3.265   7.374  0.00  0.00    +0.000 A 
ATOM     12  C   UNL     1      46.600   3.051   6.326  0.00  0.00    +0.000 A 
ATOM     13  C   UNL     1      47.361   1.887   6.305  0.00  0.00    +0.000 A 
ATOM     14  C   UNL     1      47.183   0.969   7.327  0.00  0.00    +0.000 A 
ATOM     15  N   UNL     1      46.318   1.143   8.346  0.00  0.00    +0.000 NA
ENDBRANCH   9  10
ENDBRANCH   6   9
ENDBRANCH   2   3
BRANCH   2  16
ATOM     16  N   UNL     1      46.330   6.990  13.712  0.00  0.00    +0.000 N 
ATOM     17  C   UNL     1      47.660   6.935  13.392  0.00  0.00    +0.000 C 
ATOM     18  O   UNL     1      48.059   6.978  12.233  0.00  0.00    +0.000 OA
ATOM     19  H   UNL     1      46.056   7.093  14.684  0.00  0.00    +0.000 HD
BRANCH  17  20
ATOM     20  C   UNL     1      48.590   6.777  14.517  0.00  0.00    +0.000 A 
ATOM     21  C   UNL     1      49.659   7.652  14.657  0.00  0.00    +0.000 A 
ATOM     22  S   UNL     1      50.642   7.318  16.011  0.00  0.00    +0.000 S 
ATOM     23  C   UNL     1      49.651   6.017  16.480  0.00  0.00    +0.000 A 
ATOM     24  N   UNL     1      49.921   5.305  17.604  0.00  0.00    +0.000 NA
ATOM     25  C   UNL     1      49.070   4.362  17.859  0.00  0.00    +0.000 A 
ATOM     26  N   UNL     1      47.971   4.048  17.088  0.00  0.00    +0.000 N 
ATOM     27  C   UNL     1      47.090   2.959  17.454  0.00  0.00    +0.000 C 
ATOM     28  C   UNL     1      47.692   4.730  15.909  0.00  0.00    +0.000 A 
ATOM     29  O   UNL     1      46.765   4.413  15.169  0.00  0.00    +0.000 OA
ATOM     30  C   UNL     1      48.602   5.820  15.601  0.00  0.00    +0.000 A 
ENDBRANCH  17  20
ENDBRANCH   2  16
TORSDOF 5
ENDMDL
MODEL 2
REMARK VINA RESULT:    -8.563      1.602      2.426
REMARK INTER + INTRA:         -11.081
REMARK INTER:                 -11.159
REMARK INTRA:                   0.077
REMARK UNBOUND:                -0.016
REMARK  Name = 
REMARK  7 active torsions:
REMARK  status: ('A' for Active; 'I' for Inactive)
REMARK    1  A    between atoms: C_1  and  C_2
REMARK    2  A    between atoms: C_2  and  N_3
REMARK    3  A    between atoms: C_2  and  C_17
REMARK    4  A    between atoms: C_4  and  C_6
REMARK    5  A    between atoms: N_12  and  C_13
REMARK    6  A    between atoms: C_20  and  O_21
REMARK    7  A    between atoms: O_21  and  C_22
REMARK                            x       y       z     vdW  Elec       q    Type
REMARK                         _______ _______ _______ _____ _____    ______ ____
ROOT
ATOM      1  C   UNL     1      46.435   7.706  12.383  0.00  0.00    +0.000 C 
ATOM      2  C   UNL     1      45.501   6.579  12.829  0.00  0.00    +0.000 C 
ENDROOT
BRANCH   2   3
ATOM      3  C   UNL     1      45.205   5.545  11.753  0.00  0.00    +0.000 A 
ATOM      4  C   UNL     1      44.631   4.323  12.139  0.00  0.00    +0.000 A 
ATOM      5  C   UNL     1      44.408   3.306  11.207  0.00  0.00    +0.000 A 
ATOM      6  C   UNL     1      44.725   3.501   9.863  0.00  0.00    +0.000 A 
ATOM      7  C   UNL     1      45.330   4.696   9.471  0.00  0.00    +0.000 A 
ATOM      8  C   UNL     1      45.574   5.707  10.409  0.00  0.00    +0.000 A 
BRANCH   6   9
ATOM      9  O   UNL     1      44.564   2.543   8.888  0.00  0.00    +0.000 OA
BRANCH   9  10
ATOM     10  C   UNL     1      45.619   2.301   8.015  0.00  0.00    +0.000 A 
ATOM     11  C   UNL     1      45.806   3.227   6.998  0.00  0.00    +0.000 A 
ATOM     12  C   UNL     1      46.863   3.028   6.113  0.00  0.00    +0.000 A 
ATOM     13  C   UNL     1      47.684   1.916   6.269  0.00  0.00    +0.000 A 
ATOM     14  C   UNL     1      47.402   1.033   7.297  0.00  0.00    +0.000 A 
ATOM     15  N   UNL     1      46.379   1.192   8.161  0.00  0.00    +0.000 NA
ENDBRANCH   9  10
ENDBRANCH   6   9
ENDBRANCH   2   3
BRANCH   2  16
ATOM     16  N   UNL     1      46.043   5.898  13.990  0.00  0.00    +0.000 N 
ATOM     17  C   UNL     1      47.351   5.510  14.096  0.00  0.00    +0.000 C 
ATOM     18  O   UNL     1      48.158   5.658  13.184  0.00  0.00    +0.000 OA
ATOM     19  H   UNL     1      45.451   5.886  14.813  0.00  0.00    +0.000 HD
BRANCH  17  20
ATOM     20  C   UNL     1      47.733   4.862  15.358  0.00  0.00    +0.000 A 
ATOM     21  C   UNL     1      47.445   3.519  15.559  0.00  0.00    +0.000 A 
ATOM     22  S   UNL     1      47.948   2.933  17.080  0.00  0.00    +0.000 S 
ATOM     23  C   UNL     1      48.603   4.444  17.508  0.00  0.00    +0.000 A 
ATOM     24  N   UNL     1      49.229   4.619  18.700  0.00  0.00    +0.000 NA
ATOM     25  C   UNL     1      49.707   5.809  18.885  0.00  0.00    +0.000 A 
ATOM     26  N   UNL     1      49.609   6.856  17.993  0.00  0.00    +0.000 N 
ATOM     27  C   UNL     1      50.164   8.156  18.306  0.00  0.00    +0.000 C 
ATOM     28  C   UNL     1      48.938   6.720  16.783  0.00  0.00    +0.000 A 
ATOM     29  O   UNL     1      48.773   7.662  16.013  0.00  0.00    +0.000 OA
ATOM     30  C   UNL     1      48.415   5.390  16.518  0.00  0.00    +0.000 A 
ENDBRANCH  17  20
ENDBRANCH   2  16
TORSDOF 5
ENDMDL
MODEL 3
REMARK VINA RESULT:    -8.253      1.693      2.321
REMARK INTER + INTRA:         -10.681
REMARK INTER:                  -9.396
REMARK INTRA:                  -1.285
REMARK UNBOUND:                -0.016
REMARK  Name = 
REMARK  7 active torsions:
REMARK  status: ('A' for Active; 'I' for Inactive)
REMARK    1  A    between atoms: C_1  and  C_2
REMARK    2  A    between atoms: C_2  and  N_3
REMARK    3  A    between atoms: C_2  and  C_17
REMARK    4  A    between atoms: C_4  and  C_6
REMARK    5  A    between atoms: N_12  and  C_13
REMARK    6  A    between atoms: C_20  and  O_21
REMARK    7  A    between atoms: O_21  and  C_22
REMARK                            x       y       z     vdW  Elec       q    Type
REMARK                         _______ _______ _______ _____ _____    ______ ____
ROOT
ATOM      1  C   UNL     1      47.745   9.555  12.696  0.00  0.00    +0.000 C 
ATOM      2  C   UNL     1      47.131   8.429  13.530  0.00  0.00    +0.000 C 
ENDROOT
BRANCH   2   3
ATOM      3  C   UNL     1      46.300   7.436  12.731  0.00  0.00    +0.000 A 
ATOM      4  C   UNL     1      46.649   6.077  12.780  0.00  0.00    +0.000 A 
ATOM      5  C   UNL     1      45.971   5.131  12.008  0.00  0.00    +0.000 A 
ATOM      6  C   UNL     1      44.907   5.519  11.194  0.00  0.00    +0.000 A 
ATOM      7  C   UNL     1      44.572   6.871  11.105  0.00  0.00    +0.000 A 
ATOM      8  C   UNL     1      45.266   7.822  11.863  0.00  0.00    +0.000 A 
BRANCH   6   9
ATOM      9  O   UNL     1      44.207   4.656  10.381  0.00  0.00    +0.000 OA
BRANCH   9  10
ATOM     10  C   UNL     1      44.909   3.916   9.438  0.00  0.00    +0.000 A 
ATOM     11  C   UNL     1      44.909   2.538   9.605  0.00  0.00    +0.000 A 
ATOM     12  C   UNL     1      45.589   1.761   8.670  0.00  0.00    +0.000 A 
ATOM     13  C   UNL     1      46.245   2.383   7.613  0.00  0.00    +0.000 A 
ATOM     14  C   UNL     1      46.213   3.765   7.545  0.00  0.00    +0.000 A 
ATOM     15  N   UNL     1      45.574   4.544   8.441  0.00  0.00    +0.000 NA
ENDBRANCH   9  10
ENDBRANCH   6   9
ENDBRANCH   2   3
BRANCH   2  16
ATOM     16  N   UNL     1      48.165   7.700  14.241  0.00  0.00    +0.000 N 
ATOM     17  C   UNL     1      48.665   8.088  15.454  0.00  0.00    +0.000 C 
ATOM     18  O   UNL     1      48.316   9.125  16.008  0.00  0.00    +0.000 OA
ATOM     19  H   UNL     1      48.374   6.771  13.889  0.00  0.00    +0.000 HD
BRANCH  17  20
ATOM     20  C   UNL     1      49.685   7.210  16.044  0.00  0.00    +0.000 A 
ATOM     21  C   UNL     1      50.990   7.661  16.179  0.00  0.00    +0.000 A 
ATOM     22  S   UNL     1      52.042   6.511  16.872  0.00  0.00    +0.000 S 
ATOM     23  C   UNL     1      50.781   5.384  17.053  0.00  0.00    +0.000 A 
ATOM     24  N   UNL     1      51.005   4.174  17.626  0.00  0.00    +0.000 NA
ATOM     25  C   UNL     1      49.953   3.425  17.728  0.00  0.00    +0.000 A 
ATOM     26  N   UNL     1      48.687   3.764  17.298  0.00  0.00    +0.000 N 
ATOM     27  C   UNL     1      47.578   2.844  17.444  0.00  0.00    +0.000 C 
ATOM     28  C   UNL     1      48.434   4.978  16.669  0.00  0.00    +0.000 A 
ATOM     29  O   UNL     1      47.332   5.264  16.209  0.00  0.00    +0.000 OA
ATOM     30  C   UNL     1      49.581   5.865  16.564  0.00  0.00    +0.000 A 
ENDBRANCH  17  20
ENDBRANCH   2  16
TORSDOF 5
ENDMDL
MODEL 4
REMARK VINA RESULT:    -8.023      2.299      3.222
REMARK INTER + INTRA:         -10.384
REMARK INTER:                  -9.335
REMARK INTRA:                  -1.049
REMARK UNBOUND:                -0.016
REMARK  Name = 
REMARK  7 active torsions:
REMARK  status: ('A' for Active; 'I' for Inactive)
REMARK    1  A    between atoms: C_1  and  C_2
REMARK    2  A    between atoms: C_2  and  N_3
REMARK    3  A    between atoms: C_2  and  C_17
REMARK    4  A    between atoms: C_4  and  C_6
REMARK    5  A    between atoms: N_12  and  C_13
REMARK    6  A    between atoms: C_20  and  O_21
REMARK    7  A    between atoms: O_21  and  C_22
REMARK                            x       y       z     vdW  Elec       q    Type
REMARK                         _______ _______ _______ _____ _____    ______ ____
ROOT
ATOM      1  C   UNL     1      49.714   7.843  13.329  0.00  0.00    +0.000 C 
ATOM      2  C   UNL     1      48.291   8.039  13.855  0.00  0.00    +0.000 C 
ENDROOT
BRANCH   2   3
ATOM      3  C   UNL     1      47.220   7.308  13.059  0.00  0.00    +0.000 A 
ATOM      4  C   UNL     1      47.133   5.912  13.178  0.00  0.00    +0.000 A 
ATOM      5  C   UNL     1      46.221   5.179  12.414  0.00  0.00    +0.000 A 
ATOM      6  C   UNL     1      45.353   5.831  11.539  0.00  0.00    +0.000 A 
ATOM      7  C   UNL     1      45.453   7.214  11.382  0.00  0.00    +0.000 A 
ATOM      8  C   UNL     1      46.382   7.946  12.132  0.00  0.00    +0.000 A 
BRANCH   6   9
ATOM      9  O   UNL     1      44.447   5.183  10.730  0.00  0.00    +0.000 OA
BRANCH   9  10
ATOM     10  C   UNL     1      44.928   4.302   9.768  0.00  0.00    +0.000 A 
ATOM     11  C   UNL     1      44.627   2.959   9.952  0.00  0.00    +0.000 A 
ATOM     12  C   UNL     1      45.077   2.047   9.001  0.00  0.00    +0.000 A 
ATOM     13  C   UNL     1      45.812   2.503   7.911  0.00  0.00    +0.000 A 
ATOM     14  C   UNL     1      46.087   3.858   7.828  0.00  0.00    +0.000 A 
ATOM     15  N   UNL     1      45.675   4.763   8.739  0.00  0.00    +0.000 NA
ENDBRANCH   9  10
ENDBRANCH   6   9
ENDBRANCH   2   3
BRANCH   2  16
ATOM     16  N   UNL     1      48.200   7.624  15.243  0.00  0.00    +0.000 N 
ATOM     17  C   UNL     1      48.625   8.394  16.291  0.00  0.00    +0.000 C 
ATOM     18  O   UNL     1      49.175   9.479  16.131  0.00  0.00    +0.000 OA
ATOM     19  H   UNL     1      47.627   6.807  15.424  0.00  0.00    +0.000 HD
BRANCH  17  20
ATOM     20  C   UNL     1      48.424   7.828  17.632  0.00  0.00    +0.000 A 
ATOM     21  C   UNL     1      47.970   8.640  18.663  0.00  0.00    +0.000 A 
ATOM     22  S   UNL     1      47.803   7.824  20.151  0.00  0.00    +0.000 S 
ATOM     23  C   UNL     1      48.292   6.348  19.461  0.00  0.00    +0.000 A 
ATOM     24  N   UNL     1      48.335   5.212  20.203  0.00  0.00    +0.000 NA
ATOM     25  C   UNL     1      48.695   4.155  19.546  0.00  0.00    +0.000 A 
ATOM     26  N   UNL     1      49.033   4.122  18.209  0.00  0.00    +0.000 N 
ATOM     27  C   UNL     1      49.441   2.887  17.573  0.00  0.00    +0.000 C 
ATOM     28  C   UNL     1      49.039   5.275  17.433  0.00  0.00    +0.000 A 
ATOM     29  O   UNL     1      49.412   5.280  16.263  0.00  0.00    +0.000 OA
ATOM     30  C   UNL     1      48.608   6.480  18.121  0.00  0.00    +0.000 A 
ENDBRANCH  17  20
ENDBRANCH   2  16
TORSDOF 5
ENDMDL
MODEL 5
REMARK VINA RESULT:    -7.839      3.072      3.934
REMARK INTER + INTRA:         -10.146
REMARK INTER:                  -9.097
REMARK INTRA:                  -1.049
REMARK UNBOUND:                -0.016
REMARK  Name = 
REMARK  7 active torsions:
REMARK  status: ('A' for Active; 'I' for Inactive)
REMARK    1  A    between atoms: C_1  and  C_2
REMARK    2  A    between atoms: C_2  and  N_3
REMARK    3  A    between atoms: C_2  and  C_17
REMARK    4  A    between atoms: C_4  and  C_6
REMARK    5  A    between atoms: N_12  and  C_13
REMARK    6  A    between atoms: C_20  and  O_21
REMARK    7  A    between atoms: O_21  and  C_22
REMARK                            x       y       z     vdW  Elec       q    Type
REMARK                         _______ _______ _______ _____ _____    ______ ____
ROOT
ATOM      1  C   UNL     1      47.266   4.278  16.332  0.00  0.00    +0.000 C 
ATOM      2  C   UNL     1      47.766   5.089  15.134  0.00  0.00    +0.000 C 
ENDROOT
BRANCH   2   3
ATOM      3  C   UNL     1      46.898   4.974  13.890  0.00  0.00    +0.000 A 
ATOM      4  C   UNL     1      46.272   3.746  13.622  0.00  0.00    +0.000 A 
ATOM      5  C   UNL     1      45.526   3.558  12.456  0.00  0.00    +0.000 A 
ATOM      6  C   UNL     1      45.363   4.604  11.548  0.00  0.00    +0.000 A 
ATOM      7  C   UNL     1      46.011   5.818  11.781  0.00  0.00    +0.000 A 
ATOM      8  C   UNL     1      46.776   6.000  12.940  0.00  0.00    +0.000 A 
BRANCH   6   9
ATOM      9  O   UNL     1      44.671   4.493  10.363  0.00  0.00    +0.000 OA
BRANCH   9  10
ATOM     10  C   UNL     1      45.282   3.849   9.295  0.00  0.00    +0.000 A 
ATOM     11  C   UNL     1      45.281   2.461   9.324  0.00  0.00    +0.000 A 
ATOM     12  C   UNL     1      45.870   1.779   8.262  0.00  0.00    +0.000 A 
ATOM     13  C   UNL     1      46.441   2.501   7.220  0.00  0.00    +0.000 A 
ATOM     14  C   UNL     1      46.419   3.884   7.291  0.00  0.00    +0.000 A 
ATOM     15  N   UNL     1      45.867   4.571   8.312  0.00  0.00    +0.000 NA
ENDBRANCH   9  10
ENDBRANCH   6   9
ENDBRANCH   2   3
BRANCH   2  16
ATOM     16  N   UNL     1      47.888   6.492  15.485  0.00  0.00    +0.000 N 
ATOM     17  C   UNL     1      49.073   7.176  15.464  0.00  0.00    +0.000 C 
ATOM     18  O   UNL     1      50.142   6.633  15.204  0.00  0.00    +0.000 OA
ATOM     19  H   UNL     1      47.017   7.006  15.566  0.00  0.00    +0.000 HD
BRANCH  17  20
ATOM     20  C   UNL     1      49.003   8.600  15.817  0.00  0.00    +0.000 A 
ATOM     21  C   UNL     1      49.393   9.560  14.892  0.00  0.00    +0.000 A 
ATOM     22  S   UNL     1      49.257  11.159  15.470  0.00  0.00    +0.000 S 
ATOM     23  C   UNL     1      48.635  10.627  16.961  0.00  0.00    +0.000 A 
ATOM     24  N   UNL     1      48.271  11.516  17.921  0.00  0.00    +0.000 NA
ATOM     25  C   UNL     1      47.785  10.977  18.995  0.00  0.00    +0.000 A 
ATOM     26  N   UNL     1      47.638   9.623  19.212  0.00  0.00    +0.000 N 
ATOM     27  C   UNL     1      47.099   9.123  20.460  0.00  0.00    +0.000 C 
ATOM     28  C   UNL     1      48.041   8.687  18.266  0.00  0.00    +0.000 A 
ATOM     29  O   UNL     1      47.991   7.478  18.474  0.00  0.00    +0.000 OA
ATOM     30  C   UNL     1      48.560   9.249  17.031  0.00  0.00    +0.000 A 
ENDBRANCH  17  20
ENDBRANCH   2  16
TORSDOF 5
ENDMDL
MODEL 6
REMARK VINA RESULT:    -7.611      2.781      4.091
REMARK INTER + INTRA:          -9.851
REMARK INTER:                  -8.310
REMARK INTRA:                  -1.541
REMARK UNBOUND:                -0.016
REMARK  Name = 
REMARK  7 active torsions:
REMARK  status: ('A' for Active; 'I' for Inactive)
REMARK    1  A    between atoms: C_1  and  C_2
REMARK    2  A    between atoms: C_2  and  N_3
REMARK    3  A    between atoms: C_2  and  C_17
REMARK    4  A    between atoms: C_4  and  C_6
REMARK    5  A    between atoms: N_12  and  C_13
REMARK    6  A    between atoms: C_20  and  O_21
REMARK    7  A    between atoms: O_21  and  C_22
REMARK                            x       y       z     vdW  Elec       q    Type
REMARK                         _______ _______ _______ _____ _____    ______ ____
ROOT
ATOM      1  C   UNL     1      50.467   8.908  13.131  0.00  0.00    +0.000 C 
ATOM      2  C   UNL     1      49.187   8.904  13.968  0.00  0.00    +0.000 C 
ENDROOT
BRANCH   2   3
ATOM      3  C   UNL     1      47.980   8.298  13.268  0.00  0.00    +0.000 A 
ATOM      4  C   UNL     1      48.174   7.174  12.448  0.00  0.00    +0.000 A 
ATOM      5  C   UNL     1      47.117   6.622  11.720  0.00  0.00    +0.000 A 
ATOM      6  C   UNL     1      45.836   7.162  11.821  0.00  0.00    +0.000 A 
ATOM      7  C   UNL     1      45.634   8.301  12.601  0.00  0.00    +0.000 A 
ATOM      8  C   UNL     1      46.698   8.868  13.315  0.00  0.00    +0.000 A 
BRANCH   6   9
ATOM      9  O   UNL     1      44.748   6.698  11.116  0.00  0.00    +0.000 OA
BRANCH   9  10
ATOM     10  C   UNL     1      44.323   5.393  11.336  0.00  0.00    +0.000 A 
ATOM     11  C   UNL     1      43.878   5.093  12.616  0.00  0.00    +0.000 A 
ATOM     12  C   UNL     1      43.428   3.799  12.871  0.00  0.00    +0.000 A 
ATOM     13  C   UNL     1      43.445   2.857  11.848  0.00  0.00    +0.000 A 
ATOM     14  C   UNL     1      43.933   3.241  10.611  0.00  0.00    +0.000 A 
ATOM     15  N   UNL     1      44.386   4.482  10.338  0.00  0.00    +0.000 NA
ENDBRANCH   9  10
ENDBRANCH   6   9
ENDBRANCH   2   3
BRANCH   2  16
ATOM     16  N   UNL     1      49.398   8.198  15.218  0.00  0.00    +0.000 N 
ATOM     17  C   UNL     1      48.792   8.546  16.395  0.00  0.00    +0.000 C 
ATOM     18  O   UNL     1      48.064   9.528  16.494  0.00  0.00    +0.000 OA
ATOM     19  H   UNL     1      49.875   7.305  15.148  0.00  0.00    +0.000 HD
BRANCH  17  20
ATOM     20  C   UNL     1      49.097   7.698  17.555  0.00  0.00    +0.000 A 
ATOM     21  C   UNL     1      49.550   8.276  18.733  0.00  0.00    +0.000 A 
ATOM     22  S   UNL     1      49.864   7.146  19.971  0.00  0.00    +0.000 S 
ATOM     23  C   UNL     1      49.368   5.848  18.990  0.00  0.00    +0.000 A 
ATOM     24  N   UNL     1      49.359   4.577  19.467  0.00  0.00    +0.000 NA
ATOM     25  C   UNL     1      48.931   3.691  18.625  0.00  0.00    +0.000 A 
ATOM     26  N   UNL     1      48.517   3.949  17.335  0.00  0.00    +0.000 N 
ATOM     27  C   UNL     1      48.071   2.879  16.467  0.00  0.00    +0.000 C 
ATOM     28  C   UNL     1      48.554   5.233  16.803  0.00  0.00    +0.000 A 
ATOM     29  O   UNL     1      48.265   5.469  15.634  0.00  0.00    +0.000 OA
ATOM     30  C   UNL     1      48.996   6.266  17.725  0.00  0.00    +0.000 A 
ENDBRANCH  17  20
ENDBRANCH   2  16
TORSDOF 5
ENDMDL
MODEL 7
REMARK VINA RESULT:    -7.570      2.378      3.627
REMARK INTER + INTRA:          -9.798
REMARK INTER:                  -8.636
REMARK INTRA:                  -1.163
REMARK UNBOUND:                -0.016
REMARK  Name = 
REMARK  7 active torsions:
REMARK  status: ('A' for Active; 'I' for Inactive)
REMARK    1  A    between atoms: C_1  and  C_2
REMARK    2  A    between atoms: C_2  and  N_3
REMARK    3  A    between atoms: C_2  and  C_17
REMARK    4  A    between atoms: C_4  and  C_6
REMARK    5  A    between atoms: N_12  and  C_13
REMARK    6  A    between atoms: C_20  and  O_21
REMARK    7  A    between atoms: O_21  and  C_22
REMARK                            x       y       z     vdW  Elec       q    Type
REMARK                         _______ _______ _______ _____ _____    ______ ____
ROOT
ATOM      1  C   UNL     1      47.529   9.524  12.680  0.00  0.00    +0.000 C 
ATOM      2  C   UNL     1      46.976   8.394  13.550  0.00  0.00    +0.000 C 
ENDROOT
BRANCH   2   3
ATOM      3  C   UNL     1      46.177   7.347  12.789  0.00  0.00    +0.000 A 
ATOM      4  C   UNL     1      46.619   6.015  12.818  0.00  0.00    +0.000 A 
ATOM      5  C   UNL     1      45.971   5.024  12.076  0.00  0.00    +0.000 A 
ATOM      6  C   UNL     1      44.846   5.339  11.315  0.00  0.00    +0.000 A 
ATOM      7  C   UNL     1      44.416   6.664  11.246  0.00  0.00    +0.000 A 
ATOM      8  C   UNL     1      45.079   7.661  11.973  0.00  0.00    +0.000 A 
BRANCH   6   9
ATOM      9  O   UNL     1      44.168   4.430  10.533  0.00  0.00    +0.000 OA
BRANCH   9  10
ATOM     10  C   UNL     1      44.878   3.719   9.574  0.00  0.00    +0.000 A 
ATOM     11  C   UNL     1      45.489   4.465   8.575  0.00  0.00    +0.000 A 
ATOM     12  C   UNL     1      46.224   3.789   7.604  0.00  0.00    +0.000 A 
ATOM     13  C   UNL     1      46.318   2.402   7.661  0.00  0.00    +0.000 A 
ATOM     14  C   UNL     1      45.651   1.742   8.679  0.00  0.00    +0.000 A 
ATOM     15  N   UNL     1      44.922   2.368   9.625  0.00  0.00    +0.000 NA
ENDBRANCH   9  10
ENDBRANCH   6   9
ENDBRANCH   2   3
BRANCH   2  16
ATOM     16  N   UNL     1      48.050   7.728  14.263  0.00  0.00    +0.000 N 
ATOM     17  C   UNL     1      48.452   8.077  15.524  0.00  0.00    +0.000 C 
ATOM     18  O   UNL     1      47.968   9.029  16.128  0.00  0.00    +0.000 OA
ATOM     19  H   UNL     1      48.375   6.855  13.860  0.00  0.00    +0.000 HD
BRANCH  17  20
ATOM     20  C   UNL     1      49.534   7.270  16.104  0.00  0.00    +0.000 A 
ATOM     21  C   UNL     1      49.246   6.339  17.092  0.00  0.00    +0.000 A 
ATOM     22  S   UNL     1      50.618   5.499  17.660  0.00  0.00    +0.000 S 
ATOM     23  C   UNL     1      51.640   6.324  16.577  0.00  0.00    +0.000 A 
ATOM     24  N   UNL     1      52.967   6.046  16.523  0.00  0.00    +0.000 NA
ATOM     25  C   UNL     1      53.622   6.724  15.634  0.00  0.00    +0.000 A 
ATOM     26  N   UNL     1      53.078   7.672  14.793  0.00  0.00    +0.000 N 
ATOM     27  C   UNL     1      53.904   8.389  13.844  0.00  0.00    +0.000 C 
ATOM     28  C   UNL     1      51.730   8.009  14.853  0.00  0.00    +0.000 A 
ATOM     29  O   UNL     1      51.245   8.905  14.169  0.00  0.00    +0.000 OA
ATOM     30  C   UNL     1      50.950   7.247  15.814  0.00  0.00    +0.000 A 
ENDBRANCH  17  20
ENDBRANCH   2  16
TORSDOF 5
ENDMDL
MODEL 8
REMARK VINA RESULT:    -7.521      2.528      4.386
REMARK INTER + INTRA:          -9.735
REMARK INTER:                  -8.696
REMARK INTRA:                  -1.039
REMARK UNBOUND:                -0.016
REMARK  Name = 
REMARK  7 active torsions:
REMARK  status: ('A' for Active; 'I' for Inactive)
REMARK    1  A    between atoms: C_1  and  C_2
REMARK    2  A    between atoms: C_2  and  N_3
REMARK    3  A    between atoms: C_2  and  C_17
REMARK    4  A    between atoms: C_4  and  C_6
REMARK    5  A    between atoms: N_12  and  C_13
REMARK    6  A    between atoms: C_20  and  O_21
REMARK    7  A    between atoms: O_21  and  C_22
REMARK                            x       y       z     vdW  Elec       q    Type
REMARK                         _______ _______ _______ _____ _____    ______ ____
ROOT
ATOM      1  C   UNL     1      47.127   3.877  16.699  0.00  0.00    +0.000 C 
ATOM      2  C   UNL     1      47.688   4.630  15.491  0.00  0.00    +0.000 C 
ENDROOT
BRANCH   2   3
ATOM      3  C   UNL     1      46.797   4.595  14.259  0.00  0.00    +0.000 A 
ATOM      4  C   UNL     1      46.515   3.352  13.670  0.00  0.00    +0.000 A 
ATOM      5  C   UNL     1      45.767   3.266  12.493  0.00  0.00    +0.000 A 
ATOM      6  C   UNL     1      45.255   4.419  11.898  0.00  0.00    +0.000 A 
ATOM      7  C   UNL     1      45.558   5.664  12.450  0.00  0.00    +0.000 A 
ATOM      8  C   UNL     1      46.327   5.752  13.618  0.00  0.00    +0.000 A 
BRANCH   6   9
ATOM      9  O   UNL     1      44.535   4.424  10.725  0.00  0.00    +0.000 OA
BRANCH   9  10
ATOM     10  C   UNL     1      45.118   3.882   9.586  0.00  0.00    +0.000 A 
ATOM     11  C   UNL     1      45.059   2.502   9.455  0.00  0.00    +0.000 A 
ATOM     12  C   UNL     1      45.618   1.923   8.318  0.00  0.00    +0.000 A 
ATOM     13  C   UNL     1      46.218   2.737   7.362  0.00  0.00    +0.000 A 
ATOM     14  C   UNL     1      46.253   4.102   7.594  0.00  0.00    +0.000 A 
ATOM     15  N   UNL     1      45.732   4.689   8.690  0.00  0.00    +0.000 NA
ENDBRANCH   9  10
ENDBRANCH   6   9
ENDBRANCH   2   3
BRANCH   2  16
ATOM     16  N   UNL     1      47.953   6.015  15.832  0.00  0.00    +0.000 N 
ATOM     17  C   UNL     1      49.187   6.481  16.199  0.00  0.00    +0.000 C 
ATOM     18  O   UNL     1      50.157   5.742  16.327  0.00  0.00    +0.000 OA
ATOM     19  H   UNL     1      47.219   6.676  15.602  0.00  0.00    +0.000 HD
BRANCH  17  20
ATOM     20  C   UNL     1      49.277   7.920  16.477  0.00  0.00    +0.000 A 
ATOM     21  C   UNL     1      49.515   8.360  17.772  0.00  0.00    +0.000 A 
ATOM     22  S   UNL     1      49.580  10.058  17.915  0.00  0.00    +0.000 S 
ATOM     23  C   UNL     1      49.332  10.265  16.245  0.00  0.00    +0.000 A 
ATOM     24  N   UNL     1      49.314  11.505  15.691  0.00  0.00    +0.000 NA
ATOM     25  C   UNL     1      49.147  11.516  14.406  0.00  0.00    +0.000 A 
ATOM     26  N   UNL     1      48.982  10.400  13.613  0.00  0.00    +0.000 N 
ATOM     27  C   UNL     1      48.783  10.525  12.184  0.00  0.00    +0.000 C 
ATOM     28  C   UNL     1      48.954   9.120  14.155  0.00  0.00    +0.000 A 
ATOM     29  O   UNL     1      48.730   8.123  13.476  0.00  0.00    +0.000 OA
ATOM     30  C   UNL     1      49.173   9.058  15.590  0.00  0.00    +0.000 A 
ENDBRANCH  17  20
ENDBRANCH   2  16
TORSDOF 5
ENDMDL
MODEL 9
REMARK VINA RESULT:    -7.442      3.680      6.031
REMARK INTER + INTRA:          -9.633
REMARK INTER:                  -8.678
REMARK INTRA:                  -0.955
REMARK UNBOUND:                -0.016
REMARK  Name = 
REMARK  7 active torsions:
REMARK  status: ('A' for Active; 'I' for Inactive)
REMARK    1  A    between atoms: C_1  and  C_2
REMARK    2  A    between atoms: C_2  and  N_3
REMARK    3  A    between atoms: C_2  and  C_17
REMARK    4  A    between atoms: C_4  and  C_6
REMARK    5  A    between atoms: N_12  and  C_13
REMARK    6  A    between atoms: C_20  and  O_21
REMARK    7  A    between atoms: O_21  and  C_22
REMARK                            x       y       z     vdW  Elec       q    Type
REMARK                         _______ _______ _______ _____ _____    ______ ____
ROOT
ATOM      1  C   UNL     1      44.921   4.171  13.047  0.00  0.00    +0.000 C 
ATOM      2  C   UNL     1      46.112   5.127  13.137  0.00  0.00    +0.000 C 
ENDROOT
BRANCH   2   3
ATOM      3  C   UNL     1      45.794   6.565  12.753  0.00  0.00    +0.000 A 
ATOM      4  C   UNL     1      44.767   6.799  11.823  0.00  0.00    +0.000 A 
ATOM      5  C   UNL     1      44.482   8.091  11.376  0.00  0.00    +0.000 A 
ATOM      6  C   UNL     1      45.196   9.181  11.872  0.00  0.00    +0.000 A 
ATOM      7  C   UNL     1      46.243   8.962  12.767  0.00  0.00    +0.000 A 
ATOM      8  C   UNL     1      46.544   7.664  13.200  0.00  0.00    +0.000 A 
BRANCH   6   9
ATOM      9  O   UNL     1      44.998  10.481  11.462  0.00  0.00    +0.000 OA
BRANCH   9  10
ATOM     10  C   UNL     1      43.745  10.841  10.980  0.00  0.00    +0.000 A 
ATOM     11  C   UNL     1      43.598  10.878   9.601  0.00  0.00    +0.000 A 
ATOM     12  C   UNL     1      42.352  11.219   9.080  0.00  0.00    +0.000 A 
ATOM     13  C   UNL     1      41.307  11.516   9.949  0.00  0.00    +0.000 A 
ATOM     14  C   UNL     1      41.557  11.480  11.310  0.00  0.00    +0.000 A 
ATOM     15  N   UNL     1      42.755  11.165  11.843  0.00  0.00    +0.000 NA
ENDBRANCH   9  10
ENDBRANCH   6   9
ENDBRANCH   2   3
BRANCH   2  16
ATOM     16  N   UNL     1      46.671   5.119  14.475  0.00  0.00    +0.000 N 
ATOM     17  C   UNL     1      47.356   4.058  15.002  0.00  0.00    +0.000 C 
ATOM     18  O   UNL     1      47.497   3.000  14.397  0.00  0.00    +0.000 OA
ATOM     19  H   UNL     1      46.701   6.016  14.949  0.00  0.00    +0.000 HD
BRANCH  17  20
ATOM     20  C   UNL     1      47.882   4.239  16.362  0.00  0.00    +0.000 A 
ATOM     21  C   UNL     1      47.489   3.374  17.374  0.00  0.00    +0.000 A 
ATOM     22  S   UNL     1      48.186   3.734  18.889  0.00  0.00    +0.000 S 
ATOM     23  C   UNL     1      49.069   5.035  18.236  0.00  0.00    +0.000 A 
ATOM     24  N   UNL     1      49.911   5.764  19.011  0.00  0.00    +0.000 NA
ATOM     25  C   UNL     1      50.542   6.704  18.381  0.00  0.00    +0.000 A 
ATOM     26  N   UNL     1      50.403   6.999  17.041  0.00  0.00    +0.000 N 
ATOM     27  C   UNL     1      51.144   8.087  16.437  0.00  0.00    +0.000 C 
ATOM     28  C   UNL     1      49.517   6.299  16.231  0.00  0.00    +0.000 A 
ATOM     29  O   UNL     1      49.322   6.599  15.056  0.00  0.00    +0.000 OA
ATOM     30  C   UNL     1      48.813   5.211  16.889  0.00  0.00    +0.000 A 
ENDBRANCH  17  20
ENDBRANCH   2  16
TORSDOF 5
ENDMDL
