MODEL 1
REMARK VINA RESULT:    -6.855      0.000      0.000
REMARK INTER + INTRA:         -10.250
REMARK INTER:                  -9.060
REMARK INTRA:                  -1.191
REMARK UNBOUND:                -1.191
REMARK  Name = 
REMARK  6 active torsions:
REMARK  status: ('A' for Active; 'I' for Inactive)
REMARK    1  A    between atoms: N_1  and  C_2
REMARK    2  A    between atoms: C_2  and  C_3
REMARK    3  A    between atoms: C_2  and  C_18
REMARK    4  A    between atoms: C_3  and  C_4
REMARK    5  A    between atoms: C_7  and  C_8
REMARK    6  A    between atoms: N_10  and  C_11
REMARK                            x       y       z     vdW  Elec       q    Type
REMARK                         _______ _______ _______ _____ _____    ______ ____
ROOT
ATOM      1  C   UNL     1      44.851   7.016  12.634  0.00  0.00    +0.000 C 
ENDROOT
BRANCH   1   2
ATOM      2  C   UNL     1      46.320   7.315  12.447  0.00  0.00    +0.000 A 
ATOM      3  C   UNL     1      47.285   6.311  12.559  0.00  0.00    +0.000 A 
ATOM      4  C   UNL     1      48.627   6.619  12.356  0.00  0.00    +0.000 A 
ATOM      5  C   UNL     1      48.965   7.933  12.058  0.00  0.00    +0.000 A 
ATOM      6  N   UNL     1      48.056   8.941  11.951  0.00  0.00    +0.000 NA
ATOM      7  C   UNL     1      46.761   8.604  12.145  0.00  0.00    +0.000 A 
BRANCH   5   8
ATOM      8  C   UNL     1      50.401   8.283  11.816  0.00  0.00    +0.000 C 
ATOM      9  O   UNL     1      50.895   9.300  12.287  0.00  0.00    +0.000 OA
ATOM     10  N   UNL     1      51.101   7.382  11.047  0.00  0.00    +0.000 N 
ATOM     11  H   UNL     1      50.600   6.605  10.631  0.00  0.00    +0.000 HD
BRANCH  10  12
ATOM     12  C   UNL     1      52.461   7.587  10.707  0.00  0.00    +0.000 C 
ATOM     13  C   UNL     1      53.072   6.482   9.867  0.00  0.00    +0.000 C 
ATOM     14  C   UNL     1      54.554   6.661  10.151  0.00  0.00    +0.000 C 
ATOM     15  C   UNL     1      54.600   7.254  11.556  0.00  0.00    +0.000 C 
ATOM     16  N   UNL     1      53.206   7.490  11.947  0.00  0.00    +0.000 NA
ATOM     17  H   UNL     1      53.118   8.363  12.461  0.00  0.00    +0.000 HD
ENDBRANCH  10  12
ENDBRANCH   5   8
ENDBRANCH   1   2
BRANCH   1  18
ATOM     18  C   UNL     1      44.091   6.532  11.377  0.00  0.00    +0.000 C 
BRANCH  18  19
ATOM     19  C   UNL     1      44.007   5.026  11.243  0.00  0.00    +0.000 A 
ATOM     20  C   UNL     1      43.304   4.166  12.075  0.00  0.00    +0.000 A 
ATOM     21  S   UNL     1      43.363   2.533  11.574  0.00  0.00    +0.000 S 
ATOM     22  C   UNL     1      44.333   2.919  10.230  0.00  0.00    +0.000 A 
ATOM     23  N   UNL     1      44.718   1.969   9.336  0.00  0.00    +0.000 NA
ATOM     24  C   UNL     1      45.435   2.419   8.360  0.00  0.00    +0.000 A 
ATOM     25  N   UNL     1      45.826   3.726   8.211  0.00  0.00    +0.000 N 
ATOM     26  C   UNL     1      45.514   4.709   9.122  0.00  0.00    +0.000 A 
ATOM     27  O   UNL     1      45.972   5.844   9.034  0.00  0.00    +0.000 OA
ATOM     28  C   UNL     1      44.645   4.263  10.194  0.00  0.00    +0.000 A 
ATOM     29  H   UNL     1      46.423   4.002   7.445  0.00  0.00    +0.000 HD
ENDBRANCH  18  19
BRANCH  18  30
ATOM     30  N   UNL     1      42.741   7.097  11.254  0.00  0.00    +0.000 NA
ATOM     31  H   UNL     1      42.360   6.861  10.341  0.00  0.00    +0.000 HD
ATOM     32  H   UNL     1      42.796   8.114  11.283  0.00  0.00    +0.000 HD
ENDBRANCH  18  30
ENDBRANCH   1  18
TORSDOF 6
ENDMDL
MODEL 2
REMARK VINA RESULT:    -6.796      5.795      8.702
REMARK INTER + INTRA:         -10.172
REMARK INTER:                  -9.343
REMARK INTRA:                  -0.829
REMARK UNBOUND:                -1.191
REMARK  Name = 
REMARK  6 active torsions:
REMARK  status: ('A' for Active; 'I' for Inactive)
REMARK    1  A    between atoms: N_1  and  C_2
REMARK    2  A    between atoms: C_2  and  C_3
REMARK    3  A    between atoms: C_2  and  C_18
REMARK    4  A    between atoms: C_3  and  C_4
REMARK    5  A    between atoms: C_7  and  C_8
REMARK    6  A    between atoms: N_10  and  C_11
REMARK                            x       y       z     vdW  Elec       q    Type
REMARK                         _______ _______ _______ _____ _____    ______ ____
ROOT
ATOM      1  C   UNL     1      48.891   5.792  16.796  0.00  0.00    +0.000 C 
ENDROOT
BRANCH   1   2
ATOM      2  C   UNL     1      48.086   5.755  15.517  0.00  0.00    +0.000 A 
ATOM      3  C   UNL     1      48.261   6.719  14.521  0.00  0.00    +0.000 A 
ATOM      4  C   UNL     1      47.519   6.640  13.347  0.00  0.00    +0.000 A 
ATOM      5  C   UNL     1      46.610   5.599  13.210  0.00  0.00    +0.000 A 
ATOM      6  N   UNL     1      46.402   4.647  14.161  0.00  0.00    +0.000 NA
ATOM      7  C   UNL     1      47.147   4.750  15.286  0.00  0.00    +0.000 A 
BRANCH   5   8
ATOM      8  C   UNL     1      45.815   5.481  11.946  0.00  0.00    +0.000 C 
ATOM      9  O   UNL     1      45.439   6.475  11.338  0.00  0.00    +0.000 OA
ATOM     10  N   UNL     1      45.560   4.193  11.533  0.00  0.00    +0.000 N 
ATOM     11  H   UNL     1      45.841   3.426  12.133  0.00  0.00    +0.000 HD
BRANCH  10  12
ATOM     12  C   UNL     1      44.798   3.917  10.372  0.00  0.00    +0.000 C 
ATOM     13  C   UNL     1      44.811   2.463   9.942  0.00  0.00    +0.000 C 
ATOM     14  C   UNL     1      44.450   2.572   8.470  0.00  0.00    +0.000 C 
ATOM     15  C   UNL     1      44.974   3.943   8.053  0.00  0.00    +0.000 C 
ATOM     16  N   UNL     1      45.480   4.577   9.275  0.00  0.00    +0.000 NA
ATOM     17  H   UNL     1      45.254   5.569   9.287  0.00  0.00    +0.000 HD
ENDBRANCH  10  12
ENDBRANCH   5   8
ENDBRANCH   1   2
BRANCH   1  18
ATOM     18  C   UNL     1      49.041   4.445  17.541  0.00  0.00    +0.000 C 
BRANCH  18  19
ATOM     19  C   UNL     1      50.444   4.164  18.040  0.00  0.00    +0.000 A 
ATOM     20  C   UNL     1      51.223   5.008  18.819  0.00  0.00    +0.000 A 
ATOM     21  S   UNL     1      52.726   4.329  19.267  0.00  0.00    +0.000 S 
ATOM     22  C   UNL     1      52.389   2.886  18.431  0.00  0.00    +0.000 A 
ATOM     23  N   UNL     1      53.257   1.839  18.443  0.00  0.00    +0.000 NA
ATOM     24  C   UNL     1      52.853   0.807  17.778  0.00  0.00    +0.000 A 
ATOM     25  N   UNL     1      51.674   0.735  17.080  0.00  0.00    +0.000 N 
ATOM     26  C   UNL     1      50.794   1.789  16.988  0.00  0.00    +0.000 A 
ATOM     27  O   UNL     1      49.805   1.746  16.263  0.00  0.00    +0.000 OA
ATOM     28  C   UNL     1      51.171   2.942  17.783  0.00  0.00    +0.000 A 
ATOM     29  H   UNL     1      51.440  -0.089  16.547  0.00  0.00    +0.000 HD
ENDBRANCH  18  19
BRANCH  18  30
ATOM     30  N   UNL     1      48.099   4.284  18.656  0.00  0.00    +0.000 NA
ATOM     31  H   UNL     1      47.898   5.196  19.061  0.00  0.00    +0.000 HD
ATOM     32  H   UNL     1      48.539   3.738  19.394  0.00  0.00    +0.000 HD
ENDBRANCH  18  30
ENDBRANCH   1  18
TORSDOF 6
ENDMDL
MODEL 3
REMARK VINA RESULT:    -6.559      4.091      5.210
REMARK INTER + INTRA:          -9.859
REMARK INTER:                  -9.151
REMARK INTRA:                  -0.708
REMARK UNBOUND:                -1.191
REMARK  Name = 
REMARK  6 active torsions:
REMARK  status: ('A' for Active; 'I' for Inactive)
REMARK    1  A    between atoms: N_1  and  C_2
REMARK    2  A    between atoms: C_2  and  C_3
REMARK    3  A    between atoms: C_2  and  C_18
REMARK    4  A    between atoms: C_3  and  C_4
REMARK    5  A    between atoms: C_7  and  C_8
REMARK    6  A    between atoms: N_10  and  C_11
REMARK                            x       y       z     vdW  Elec       q    Type
REMARK                         _______ _______ _______ _____ _____    ______ ____
ROOT
ATOM      1  C   UNL     1      46.855   6.926  11.451  0.00  0.00    +0.000 C 
ENDROOT
BRANCH   1   2
ATOM      2  C   UNL     1      47.501   6.920  12.816  0.00  0.00    +0.000 A 
ATOM      3  C   UNL     1      47.991   8.093  13.394  0.00  0.00    +0.000 A 
ATOM      4  C   UNL     1      48.559   8.053  14.663  0.00  0.00    +0.000 A 
ATOM      5  C   UNL     1      48.631   6.828  15.315  0.00  0.00    +0.000 A 
ATOM      6  N   UNL     1      48.176   5.661  14.782  0.00  0.00    +0.000 NA
ATOM      7  C   UNL     1      47.622   5.739  13.550  0.00  0.00    +0.000 A 
BRANCH   5   8
ATOM      8  C   UNL     1      49.220   6.763  16.691  0.00  0.00    +0.000 C 
ATOM      9  O   UNL     1      50.065   7.570  17.059  0.00  0.00    +0.000 OA
ATOM     10  N   UNL     1      48.732   5.753  17.488  0.00  0.00    +0.000 N 
ATOM     11  H   UNL     1      48.091   5.081  17.083  0.00  0.00    +0.000 HD
BRANCH  10  12
ATOM     12  C   UNL     1      49.209   5.544  18.805  0.00  0.00    +0.000 C 
ATOM     13  C   UNL     1      48.679   4.291  19.475  0.00  0.00    +0.000 C 
ATOM     14  C   UNL     1      48.861   4.626  20.946  0.00  0.00    +0.000 C 
ATOM     15  C   UNL     1      48.751   6.147  21.004  0.00  0.00    +0.000 C 
ATOM     16  N   UNL     1      48.637   6.602  19.615  0.00  0.00    +0.000 NA
ATOM     17  H   UNL     1      49.166   7.459  19.471  0.00  0.00    +0.000 HD
ENDBRANCH  10  12
ENDBRANCH   5   8
ENDBRANCH   1   2
BRANCH   1  18
ATOM     18  C   UNL     1      45.312   6.814  11.430  0.00  0.00    +0.000 C 
BRANCH  18  19
ATOM     19  C   UNL     1      44.790   5.395  11.530  0.00  0.00    +0.000 A 
ATOM     20  C   UNL     1      44.176   4.823  12.634  0.00  0.00    +0.000 A 
ATOM     21  S   UNL     1      43.637   3.224  12.363  0.00  0.00    +0.000 S 
ATOM     22  C   UNL     1      44.211   3.241  10.761  0.00  0.00    +0.000 A 
ATOM     23  N   UNL     1      44.032   2.178   9.931  0.00  0.00    +0.000 NA
ATOM     24  C   UNL     1      44.506   2.349   8.741  0.00  0.00    +0.000 A 
ATOM     25  N   UNL     1      45.167   3.473   8.313  0.00  0.00    +0.000 N 
ATOM     26  C   UNL     1      45.427   4.547   9.134  0.00  0.00    +0.000 A 
ATOM     27  O   UNL     1      46.121   5.489   8.768  0.00  0.00    +0.000 OA
ATOM     28  C   UNL     1      44.844   4.429  10.457  0.00  0.00    +0.000 A 
ATOM     29  H   UNL     1      45.549   3.523   7.380  0.00  0.00    +0.000 HD
ENDBRANCH  18  19
BRANCH  18  30
ATOM     30  N   UNL     1      44.651   7.637  12.451  0.00  0.00    +0.000 NA
ATOM     31  H   UNL     1      44.612   7.120  13.326  0.00  0.00    +0.000 HD
ATOM     32  H   UNL     1      43.684   7.804  12.178  0.00  0.00    +0.000 HD
ENDBRANCH  18  30
ENDBRANCH   1  18
TORSDOF 6
ENDMDL
MODEL 4
REMARK VINA RESULT:    -6.320      6.390      9.423
REMARK INTER + INTRA:          -9.542
REMARK INTER:                  -8.802
REMARK INTRA:                  -0.740
REMARK UNBOUND:                -1.191
REMARK  Name = 
REMARK  6 active torsions:
REMARK  status: ('A' for Active; 'I' for Inactive)
REMARK    1  A    between atoms: N_1  and  C_2
REMARK    2  A    between atoms: C_2  and  C_3
REMARK    3  A    between atoms: C_2  and  C_18
REMARK    4  A    between atoms: C_3  and  C_4
REMARK    5  A    between atoms: C_7  and  C_8
REMARK    6  A    between atoms: N_10  and  C_11
REMARK                            x       y       z     vdW  Elec       q    Type
REMARK                         _______ _______ _______ _____ _____    ______ ____
ROOT
ATOM      1  C   UNL     1      49.945   5.613  17.867  0.00  0.00    +0.000 C 
ENDROOT
BRANCH   1   2
ATOM      2  C   UNL     1      48.995   5.454  16.702  0.00  0.00    +0.000 A 
ATOM      3  C   UNL     1      48.054   4.422  16.668  0.00  0.00    +0.000 A 
ATOM      4  C   UNL     1      47.180   4.321  15.590  0.00  0.00    +0.000 A 
ATOM      5  C   UNL     1      47.284   5.255  14.567  0.00  0.00    +0.000 A 
ATOM      6  N   UNL     1      48.194   6.267  14.557  0.00  0.00    +0.000 NA
ATOM      7  C   UNL     1      49.022   6.340  15.625  0.00  0.00    +0.000 A 
BRANCH   5   8
ATOM      8  C   UNL     1      46.341   5.178  13.406  0.00  0.00    +0.000 C 
ATOM      9  O   UNL     1      46.469   5.911  12.433  0.00  0.00    +0.000 OA
ATOM     10  N   UNL     1      45.349   4.230  13.520  0.00  0.00    +0.000 N 
ATOM     11  H   UNL     1      45.266   3.717  14.390  0.00  0.00    +0.000 HD
BRANCH  10  12
ATOM     12  C   UNL     1      44.364   4.055  12.518  0.00  0.00    +0.000 C 
ATOM     13  C   UNL     1      44.918   3.778  11.134  0.00  0.00    +0.000 C 
ATOM     14  C   UNL     1      43.761   4.205  10.246  0.00  0.00    +0.000 C 
ATOM     15  C   UNL     1      43.047   5.288  11.050  0.00  0.00    +0.000 C 
ATOM     16  N   UNL     1      43.724   5.345  12.350  0.00  0.00    +0.000 NA
ATOM     17  H   UNL     1      43.052   5.487  13.101  0.00  0.00    +0.000 HD
ENDBRANCH  10  12
ENDBRANCH   5   8
ENDBRANCH   1   2
BRANCH   1  18
ATOM     18  C   UNL     1      50.251   4.328  18.672  0.00  0.00    +0.000 C 
BRANCH  18  19
ATOM     19  C   UNL     1      51.710   3.918  18.656  0.00  0.00    +0.000 A 
ATOM     20  C   UNL     1      52.773   4.646  19.172  0.00  0.00    +0.000 A 
ATOM     21  S   UNL     1      54.274   3.837  19.054  0.00  0.00    +0.000 S 
ATOM     22  C   UNL     1      53.554   2.488  18.306  0.00  0.00    +0.000 A 
ATOM     23  N   UNL     1      54.282   1.389  17.972  0.00  0.00    +0.000 NA
ATOM     24  C   UNL     1      53.592   0.441  17.430  0.00  0.00    +0.000 A 
ATOM     25  N   UNL     1      52.247   0.501  17.165  0.00  0.00    +0.000 N 
ATOM     26  C   UNL     1      51.482   1.615  17.427  0.00  0.00    +0.000 A 
ATOM     27  O   UNL     1      50.310   1.693  17.075  0.00  0.00    +0.000 OA
ATOM     28  C   UNL     1      52.201   2.675  18.108  0.00  0.00    +0.000 A 
ATOM     29  H   UNL     1      51.779  -0.262  16.699  0.00  0.00    +0.000 HD
ENDBRANCH  18  19
BRANCH  18  30
ATOM     30  N   UNL     1      49.788   4.385  20.065  0.00  0.00    +0.000 NA
ATOM     31  H   UNL     1      49.565   3.445  20.383  0.00  0.00    +0.000 HD
ATOM     32  H   UNL     1      48.919   4.913  20.111  0.00  0.00    +0.000 HD
ENDBRANCH  18  30
ENDBRANCH   1  18
TORSDOF 6
ENDMDL
MODEL 5
REMARK VINA RESULT:    -5.953      5.303      8.406
REMARK INTER + INTRA:          -9.058
REMARK INTER:                  -8.653
REMARK INTRA:                  -0.406
REMARK UNBOUND:                -1.191
REMARK  Name = 
REMARK  6 active torsions:
REMARK  status: ('A' for Active; 'I' for Inactive)
REMARK    1  A    between atoms: N_1  and  C_2
REMARK    2  A    between atoms: C_2  and  C_3
REMARK    3  A    between atoms: C_2  and  C_18
REMARK    4  A    between atoms: C_3  and  C_4
REMARK    5  A    between atoms: C_7  and  C_8
REMARK    6  A    between atoms: N_10  and  C_11
REMARK                            x       y       z     vdW  Elec       q    Type
REMARK                         _______ _______ _______ _____ _____    ______ ____
ROOT
ATOM      1  C   UNL     1      47.564   3.609  15.028  0.00  0.00    +0.000 C 
ENDROOT
BRANCH   1   2
ATOM      2  C   UNL     1      47.130   4.862  14.303  0.00  0.00    +0.000 A 
ATOM      3  C   UNL     1      47.944   5.996  14.262  0.00  0.00    +0.000 A 
ATOM      4  C   UNL     1      47.523   7.123  13.564  0.00  0.00    +0.000 A 
ATOM      5  C   UNL     1      46.285   7.085  12.935  0.00  0.00    +0.000 A 
ATOM      6  N   UNL     1      45.457   6.004  12.961  0.00  0.00    +0.000 NA
ATOM      7  C   UNL     1      45.903   4.923  13.641  0.00  0.00    +0.000 A 
BRANCH   5   8
ATOM      8  C   UNL     1      45.818   8.279  12.161  0.00  0.00    +0.000 C 
ATOM      9  O   UNL     1      46.572   9.215  11.921  0.00  0.00    +0.000 OA
ATOM     10  N   UNL     1      44.508   8.230  11.743  0.00  0.00    +0.000 N 
ATOM     11  H   UNL     1      43.929   7.456  12.049  0.00  0.00    +0.000 HD
BRANCH  10  12
ATOM     12  C   UNL     1      43.912   9.295  11.025  0.00  0.00    +0.000 C 
ATOM     13  C   UNL     1      43.783  10.587  11.808  0.00  0.00    +0.000 C 
ATOM     14  C   UNL     1      42.663  11.292  11.060  0.00  0.00    +0.000 C 
ATOM     15  C   UNL     1      41.821  10.157  10.484  0.00  0.00    +0.000 C 
ATOM     16  N   UNL     1      42.529   8.915  10.811  0.00  0.00    +0.000 NA
ATOM     17  H   UNL     1      42.477   8.256  10.038  0.00  0.00    +0.000 HD
ENDBRANCH  10  12
ENDBRANCH   5   8
ENDBRANCH   1   2
BRANCH   1  18
ATOM     18  C   UNL     1      47.540   3.677  16.573  0.00  0.00    +0.000 C 
BRANCH  18  19
ATOM     19  C   UNL     1      48.801   4.248  17.190  0.00  0.00    +0.000 A 
ATOM     20  C   UNL     1      48.956   5.526  17.708  0.00  0.00    +0.000 A 
ATOM     21  S   UNL     1      50.494   5.800  18.401  0.00  0.00    +0.000 S 
ATOM     22  C   UNL     1      51.007   4.221  18.027  0.00  0.00    +0.000 A 
ATOM     23  N   UNL     1      52.238   3.770  18.389  0.00  0.00    +0.000 NA
ATOM     24  C   UNL     1      52.475   2.545  18.052  0.00  0.00    +0.000 A 
ATOM     25  N   UNL     1      51.605   1.739  17.361  0.00  0.00    +0.000 N 
ATOM     26  C   UNL     1      50.376   2.171  16.919  0.00  0.00    +0.000 A 
ATOM     27  O   UNL     1      49.664   1.475  16.202  0.00  0.00    +0.000 OA
ATOM     28  C   UNL     1      50.037   3.516  17.343  0.00  0.00    +0.000 A 
ATOM     29  H   UNL     1      51.872   0.803  17.093  0.00  0.00    +0.000 HD
ENDBRANCH  18  19
BRANCH  18  30
ATOM     30  N   UNL     1      46.379   4.399  17.111  0.00  0.00    +0.000 NA
ATOM     31  H   UNL     1      46.226   4.117  18.076  0.00  0.00    +0.000 HD
ATOM     32  H   UNL     1      45.543   4.123  16.599  0.00  0.00    +0.000 HD
ENDBRANCH  18  30
ENDBRANCH   1  18
TORSDOF 6
ENDMDL
MODEL 6
REMARK VINA RESULT:    -5.736      5.718      7.308
REMARK INTER + INTRA:          -8.771
REMARK INTER:                  -7.704
REMARK INTRA:                  -1.067
REMARK UNBOUND:                -1.191
REMARK  Name = 
REMARK  6 active torsions:
REMARK  status: ('A' for Active; 'I' for Inactive)
REMARK    1  A    between atoms: N_1  and  C_2
REMARK    2  A    between atoms: C_2  and  C_3
REMARK    3  A    between atoms: C_2  and  C_18
REMARK    4  A    between atoms: C_3  and  C_4
REMARK    5  A    between atoms: C_7  and  C_8
REMARK    6  A    between atoms: N_10  and  C_11
REMARK                            x       y       z     vdW  Elec       q    Type
REMARK                         _______ _______ _______ _____ _____    ______ ____
ROOT
ATOM      1  C   UNL     1      48.433   5.888  17.226  0.00  0.00    +0.000 C 
ENDROOT
BRANCH   1   2
ATOM      2  C   UNL     1      48.852   6.437  15.883  0.00  0.00    +0.000 A 
ATOM      3  C   UNL     1      49.901   7.352  15.767  0.00  0.00    +0.000 A 
ATOM      4  C   UNL     1      50.275   7.818  14.510  0.00  0.00    +0.000 A 
ATOM      5  C   UNL     1      49.574   7.360  13.402  0.00  0.00    +0.000 A 
ATOM      6  N   UNL     1      48.540   6.478  13.474  0.00  0.00    +0.000 NA
ATOM      7  C   UNL     1      48.209   6.039  14.710  0.00  0.00    +0.000 A 
BRANCH   5   8
ATOM      8  C   UNL     1      49.972   7.832  12.037  0.00  0.00    +0.000 C 
ATOM      9  O   UNL     1      49.297   8.652  11.427  0.00  0.00    +0.000 OA
ATOM     10  N   UNL     1      51.136   7.286  11.546  0.00  0.00    +0.000 N 
ATOM     11  H   UNL     1      51.594   6.557  12.081  0.00  0.00    +0.000 HD
BRANCH  10  12
ATOM     12  C   UNL     1      51.629   7.612  10.259  0.00  0.00    +0.000 C 
ATOM     13  C   UNL     1      52.823   6.788   9.817  0.00  0.00    +0.000 C 
ATOM     14  C   UNL     1      53.449   7.690   8.766  0.00  0.00    +0.000 C 
ATOM     15  C   UNL     1      53.071   9.102   9.205  0.00  0.00    +0.000 C 
ATOM     16  N   UNL     1      52.187   8.946  10.365  0.00  0.00    +0.000 NA
ATOM     17  H   UNL     1      51.433   9.628  10.338  0.00  0.00    +0.000 HD
ENDBRANCH  10  12
ENDBRANCH   5   8
ENDBRANCH   1   2
BRANCH   1  18
ATOM     18  C   UNL     1      48.780   4.404  17.491  0.00  0.00    +0.000 C 
BRANCH  18  19
ATOM     19  C   UNL     1      50.188   4.176  18.001  0.00  0.00    +0.000 A 
ATOM     20  C   UNL     1      50.930   5.051  18.782  0.00  0.00    +0.000 A 
ATOM     21  S   UNL     1      52.453   4.429  19.244  0.00  0.00    +0.000 S 
ATOM     22  C   UNL     1      52.175   2.970  18.413  0.00  0.00    +0.000 A 
ATOM     23  N   UNL     1      53.080   1.956  18.436  0.00  0.00    +0.000 NA
ATOM     24  C   UNL     1      52.718   0.907  17.774  0.00  0.00    +0.000 A 
ATOM     25  N   UNL     1      51.547   0.789  17.068  0.00  0.00    +0.000 N 
ATOM     26  C   UNL     1      50.631   1.811  16.964  0.00  0.00    +0.000 A 
ATOM     27  O   UNL     1      49.649   1.728  16.232  0.00  0.00    +0.000 OA
ATOM     28  C   UNL     1      50.961   2.980  17.756  0.00  0.00    +0.000 A 
ATOM     29  H   UNL     1      51.347  -0.045  16.537  0.00  0.00    +0.000 HD
ENDBRANCH  18  19
BRANCH  18  30
ATOM     30  N   UNL     1      47.833   3.733  18.391  0.00  0.00    +0.000 NA
ATOM     31  H   UNL     1      47.989   4.056  19.344  0.00  0.00    +0.000 HD
ATOM     32  H   UNL     1      48.024   2.733  18.398  0.00  0.00    +0.000 HD
ENDBRANCH  18  30
ENDBRANCH   1  18
TORSDOF 6
ENDMDL
MODEL 7
REMARK VINA RESULT:    -5.631      6.439      9.963
REMARK INTER + INTRA:          -8.632
REMARK INTER:                  -7.897
REMARK INTRA:                  -0.735
REMARK UNBOUND:                -1.191
REMARK  Name = 
REMARK  6 active torsions:
REMARK  status: ('A' for Active; 'I' for Inactive)
REMARK    1  A    between atoms: N_1  and  C_2
REMARK    2  A    between atoms: C_2  and  C_3
REMARK    3  A    between atoms: C_2  and  C_18
REMARK    4  A    between atoms: C_3  and  C_4
REMARK    5  A    between atoms: C_7  and  C_8
REMARK    6  A    between atoms: N_10  and  C_11
REMARK                            x       y       z     vdW  Elec       q    Type
REMARK                         _______ _______ _______ _____ _____    ______ ____
ROOT
ATOM      1  C   UNL     1      49.630   4.423  19.242  0.00  0.00    +0.000 C 
ENDROOT
BRANCH   1   2
ATOM      2  C   UNL     1      48.907   4.529  17.920  0.00  0.00    +0.000 A 
ATOM      3  C   UNL     1      47.793   3.735  17.636  0.00  0.00    +0.000 A 
ATOM      4  C   UNL     1      47.137   3.877  16.417  0.00  0.00    +0.000 A 
ATOM      5  C   UNL     1      47.629   4.805  15.508  0.00  0.00    +0.000 A 
ATOM      6  N   UNL     1      48.718   5.588  15.742  0.00  0.00    +0.000 NA
ATOM      7  C   UNL     1      49.324   5.431  16.941  0.00  0.00    +0.000 A 
BRANCH   5   8
ATOM      8  C   UNL     1      46.928   4.990  14.197  0.00  0.00    +0.000 C 
ATOM      9  O   UNL     1      47.293   5.842  13.396  0.00  0.00    +0.000 OA
ATOM     10  N   UNL     1      45.874   4.134  13.972  0.00  0.00    +0.000 N 
ATOM     11  H   UNL     1      45.588   3.510  14.717  0.00  0.00    +0.000 HD
BRANCH  10  12
ATOM     12  C   UNL     1      45.095   4.202  12.791  0.00  0.00    +0.000 C 
ATOM     13  C   UNL     1      43.817   5.007  12.927  0.00  0.00    +0.000 C 
ATOM     14  C   UNL     1      42.975   4.444  11.795  0.00  0.00    +0.000 C 
ATOM     15  C   UNL     1      43.469   3.009  11.635  0.00  0.00    +0.000 C 
ATOM     16  N   UNL     1      44.600   2.860  12.556  0.00  0.00    +0.000 NA
ATOM     17  H   UNL     1      45.336   2.299  12.135  0.00  0.00    +0.000 HD
ENDBRANCH  10  12
ENDBRANCH   5   8
ENDBRANCH   1   2
BRANCH   1  18
ATOM     18  C   UNL     1      49.079   5.303  20.389  0.00  0.00    +0.000 C 
BRANCH  18  19
ATOM     19  C   UNL     1      48.756   6.726  19.980  0.00  0.00    +0.000 A 
ATOM     20  C   UNL     1      47.501   7.221  19.653  0.00  0.00    +0.000 A 
ATOM     21  S   UNL     1      47.495   8.897  19.321  0.00  0.00    +0.000 S 
ATOM     22  C   UNL     1      49.169   9.018  19.599  0.00  0.00    +0.000 A 
ATOM     23  N   UNL     1      49.817  10.212  19.527  0.00  0.00    +0.000 NA
ATOM     24  C   UNL     1      51.082  10.145  19.782  0.00  0.00    +0.000 A 
ATOM     25  N   UNL     1      51.764   8.991  20.075  0.00  0.00    +0.000 N 
ATOM     26  C   UNL     1      51.164   7.753  20.097  0.00  0.00    +0.000 A 
ATOM     27  O   UNL     1      51.812   6.721  20.244  0.00  0.00    +0.000 OA
ATOM     28  C   UNL     1      49.729   7.791  19.893  0.00  0.00    +0.000 A 
ATOM     29  H   UNL     1      52.762   9.005  20.223  0.00  0.00    +0.000 HD
ENDBRANCH  18  19
BRANCH  18  30
ATOM     30  N   UNL     1      47.910   4.724  21.063  0.00  0.00    +0.000 NA
ATOM     31  H   UNL     1      47.643   5.321  21.843  0.00  0.00    +0.000 HD
ATOM     32  H   UNL     1      48.164   3.825  21.468  0.00  0.00    +0.000 HD
ENDBRANCH  18  30
ENDBRANCH   1  18
TORSDOF 6
ENDMDL
MODEL 8
REMARK VINA RESULT:    -5.447      3.769      8.277
REMARK INTER + INTRA:          -8.389
REMARK INTER:                  -7.524
REMARK INTRA:                  -0.865
REMARK UNBOUND:                -1.191
REMARK  Name = 
REMARK  6 active torsions:
REMARK  status: ('A' for Active; 'I' for Inactive)
REMARK    1  A    between atoms: N_1  and  C_2
REMARK    2  A    between atoms: C_2  and  C_3
REMARK    3  A    between atoms: C_2  and  C_18
REMARK    4  A    between atoms: C_3  and  C_4
REMARK    5  A    between atoms: C_7  and  C_8
REMARK    6  A    between atoms: N_10  and  C_11
REMARK                            x       y       z     vdW  Elec       q    Type
REMARK                         _______ _______ _______ _____ _____    ______ ____
ROOT
ATOM      1  C   UNL     1      52.022   9.317  11.639  0.00  0.00    +0.000 C 
ENDROOT
BRANCH   1   2
ATOM      2  C   UNL     1      50.855   8.499  12.140  0.00  0.00    +0.000 A 
ATOM      3  C   UNL     1      49.821   8.110  11.285  0.00  0.00    +0.000 A 
ATOM      4  C   UNL     1      48.773   7.337  11.776  0.00  0.00    +0.000 A 
ATOM      5  C   UNL     1      48.787   6.984  13.120  0.00  0.00    +0.000 A 
ATOM      6  N   UNL     1      49.770   7.352  13.987  0.00  0.00    +0.000 NA
ATOM      7  C   UNL     1      50.777   8.096  13.473  0.00  0.00    +0.000 A 
BRANCH   5   8
ATOM      8  C   UNL     1      47.681   6.135  13.666  0.00  0.00    +0.000 C 
ATOM      9  O   UNL     1      47.825   5.491  14.698  0.00  0.00    +0.000 OA
ATOM     10  N   UNL     1      46.516   6.149  12.933  0.00  0.00    +0.000 N 
ATOM     11  H   UNL     1      46.504   6.646  12.050  0.00  0.00    +0.000 HD
BRANCH  10  12
ATOM     12  C   UNL     1      45.390   5.376  13.306  0.00  0.00    +0.000 C 
ATOM     13  C   UNL     1      45.209   4.102  12.504  0.00  0.00    +0.000 C 
ATOM     14  C   UNL     1      43.727   3.825  12.694  0.00  0.00    +0.000 C 
ATOM     15  C   UNL     1      43.107   5.205  12.895  0.00  0.00    +0.000 C 
ATOM     16  N   UNL     1      44.225   6.154  12.931  0.00  0.00    +0.000 NA
ATOM     17  H   UNL     1      44.063   6.875  13.630  0.00  0.00    +0.000 HD
ENDBRANCH  10  12
ENDBRANCH   5   8
ENDBRANCH   1   2
BRANCH   1  18
ATOM     18  C   UNL     1      53.170   8.523  10.972  0.00  0.00    +0.000 C 
BRANCH  18  19
ATOM     19  C   UNL     1      53.065   8.428   9.463  0.00  0.00    +0.000 A 
ATOM     20  C   UNL     1      52.823   9.478   8.589  0.00  0.00    +0.000 A 
ATOM     21  S   UNL     1      52.854   9.017   6.944  0.00  0.00    +0.000 S 
ATOM     22  C   UNL     1      53.187   7.397   7.344  0.00  0.00    +0.000 A 
ATOM     23  N   UNL     1      53.383   6.454   6.383  0.00  0.00    +0.000 NA
ATOM     24  C   UNL     1      53.645   5.275   6.843  0.00  0.00    +0.000 A 
ATOM     25  N   UNL     1      53.701   4.946   8.174  0.00  0.00    +0.000 N 
ATOM     26  C   UNL     1      53.448   5.851   9.180  0.00  0.00    +0.000 A 
ATOM     27  O   UNL     1      53.386   5.511  10.357  0.00  0.00    +0.000 OA
ATOM     28  C   UNL     1      53.225   7.205   8.711  0.00  0.00    +0.000 A 
ATOM     29  H   UNL     1      53.869   3.994   8.463  0.00  0.00    +0.000 HD
ENDBRANCH  18  19
BRANCH  18  30
ATOM     30  N   UNL     1      54.507   9.018  11.325  0.00  0.00    +0.000 NA
ATOM     31  H   UNL     1      54.771   9.760  10.681  0.00  0.00    +0.000 HD
ATOM     32  H   UNL     1      55.189   8.273  11.194  0.00  0.00    +0.000 HD
ENDBRANCH  18  30
ENDBRANCH   1  18
TORSDOF 6
ENDMDL
MODEL 9
REMARK VINA RESULT:    -5.298      4.597      8.517
REMARK INTER + INTRA:          -8.192
REMARK INTER:                  -7.304
REMARK INTRA:                  -0.888
REMARK UNBOUND:                -1.191
REMARK  Name = 
REMARK  6 active torsions:
REMARK  status: ('A' for Active; 'I' for Inactive)
REMARK    1  A    between atoms: N_1  and  C_2
REMARK    2  A    between atoms: C_2  and  C_3
REMARK    3  A    between atoms: C_2  and  C_18
REMARK    4  A    between atoms: C_3  and  C_4
REMARK    5  A    between atoms: C_7  and  C_8
REMARK    6  A    between atoms: N_10  and  C_11
REMARK                            x       y       z     vdW  Elec       q    Type
REMARK                         _______ _______ _______ _____ _____    ______ ____
ROOT
ATOM      1  C   UNL     1      50.678   9.412  15.083  0.00  0.00    +0.000 C 
ENDROOT
BRANCH   1   2
ATOM      2  C   UNL     1      49.530   8.693  14.413  0.00  0.00    +0.000 A 
ATOM      3  C   UNL     1      49.733   7.514  13.692  0.00  0.00    +0.000 A 
ATOM      4  C   UNL     1      48.649   6.867  13.108  0.00  0.00    +0.000 A 
ATOM      5  C   UNL     1      47.388   7.431  13.253  0.00  0.00    +0.000 A 
ATOM      6  N   UNL     1      47.150   8.584  13.937  0.00  0.00    +0.000 NA
ATOM      7  C   UNL     1      48.226   9.181  14.500  0.00  0.00    +0.000 A 
BRANCH   5   8
ATOM      8  C   UNL     1      46.203   6.741  12.650  0.00  0.00    +0.000 C 
ATOM      9  O   UNL     1      45.813   7.017  11.522  0.00  0.00    +0.000 OA
ATOM     10  N   UNL     1      45.612   5.788  13.449  0.00  0.00    +0.000 N 
ATOM     11  H   UNL     1      45.948   5.674  14.398  0.00  0.00    +0.000 HD
BRANCH  10  12
ATOM     12  C   UNL     1      44.466   5.069  13.031  0.00  0.00    +0.000 C 
ATOM     13  C   UNL     1      44.633   4.329  11.718  0.00  0.00    +0.000 C 
ATOM     14  C   UNL     1      43.191   4.172  11.265  0.00  0.00    +0.000 C 
ATOM     15  C   UNL     1      42.471   5.373  11.875  0.00  0.00    +0.000 C 
ATOM     16  N   UNL     1      43.461   6.063  12.708  0.00  0.00    +0.000 NA
ATOM     17  H   UNL     1      43.035   6.402  13.567  0.00  0.00    +0.000 HD
ENDBRANCH  10  12
ENDBRANCH   5   8
ENDBRANCH   1   2
BRANCH   1  18
ATOM     18  C   UNL     1      50.844   9.157  16.600  0.00  0.00    +0.000 C 
BRANCH  18  19
ATOM     19  C   UNL     1      50.545   7.735  17.028  0.00  0.00    +0.000 A 
ATOM     20  C   UNL     1      51.363   6.631  16.837  0.00  0.00    +0.000 A 
ATOM     21  S   UNL     1      50.743   5.195  17.525  0.00  0.00    +0.000 S 
ATOM     22  C   UNL     1      49.357   5.999  18.098  0.00  0.00    +0.000 A 
ATOM     23  N   UNL     1      48.411   5.351  18.830  0.00  0.00    +0.000 NA
ATOM     24  C   UNL     1      47.428   6.099  19.209  0.00  0.00    +0.000 A 
ATOM     25  N   UNL     1      47.290   7.429  18.900  0.00  0.00    +0.000 N 
ATOM     26  C   UNL     1      48.188   8.112  18.111  0.00  0.00    +0.000 A 
ATOM     27  O   UNL     1      47.986   9.266  17.749  0.00  0.00    +0.000 OA
ATOM     28  C   UNL     1      49.347   7.329  17.728  0.00  0.00    +0.000 A 
ATOM     29  H   UNL     1      46.474   7.945  19.194  0.00  0.00    +0.000 HD
ENDBRANCH  18  19
BRANCH  18  30
ATOM     30  N   UNL     1      52.163   9.542  17.118  0.00  0.00    +0.000 NA
ATOM     31  H   UNL     1      52.740   8.710  17.219  0.00  0.00    +0.000 HD
ATOM     32  H   UNL     1      52.059   9.930  18.053  0.00  0.00    +0.000 HD
ENDBRANCH  18  30
ENDBRANCH   1  18
TORSDOF 6
ENDMDL
