MODEL 1
REMARK VINA RESULT:    -8.435      0.000      0.000
REMARK INTER + INTRA:         -11.490
REMARK INTER:                 -10.900
REMARK INTRA:                  -0.589
REMARK UNBOUND:                -0.589
REMARK  Name = 
REMARK  6 active torsions:
REMARK  status: ('A' for Active; 'I' for Inactive)
REMARK    1  A    between atoms: C_1  and  C_2
REMARK    2  A    between atoms: C_2  and  C_3
REMARK    3  A    between atoms: C_7  and  C_8
REMARK    4  A    between atoms: C_8  and  C_9
REMARK    5  A    between atoms: C_9  and  N_10
REMARK    6  A    between atoms: C_14  and  C_15
REMARK                            x       y       z     vdW  Elec       q    Type
REMARK                         _______ _______ _______ _____ _____    ______ ____
ROOT
ATOM      1  C   UNL     1      43.056   4.451  11.003  0.00  0.00    +0.000 C 
ENDROOT
BRANCH   1   2
ATOM      2  N   UNL     1      43.850   4.998   9.892  0.00  0.00    +0.000 N 
ATOM      3  C   UNL     1      44.649   4.014   9.273  0.00  0.00    +0.000 A 
ATOM      4  C   UNL     1      45.459   4.370   8.197  0.00  0.00    +0.000 A 
ATOM      5  C   UNL     1      46.243   3.391   7.573  0.00  0.00    +0.000 A 
ATOM      6  C   UNL     1      46.206   2.076   8.034  0.00  0.00    +0.000 A 
ATOM      7  C   UNL     1      45.367   1.811   9.100  0.00  0.00    +0.000 A 
ATOM      8  N   UNL     1      44.597   2.743   9.712  0.00  0.00    +0.000 NA
ATOM      9  H   UNL     1      44.453   5.765  10.184  0.00  0.00    +0.000 HD
BRANCH   6  10
ATOM     10  C   UNL     1      47.041   1.036   7.388  0.00  0.00    +0.000 C 
ATOM     11  N   UNL     1      46.769  -0.284   7.633  0.00  0.00    +0.000 N 
ATOM     12  O   UNL     1      47.968   1.344   6.647  0.00  0.00    +0.000 OA
ATOM     13  H   UNL     1      46.038  -0.648   8.223  0.00  0.00    +0.000 HD
ATOM     14  H   UNL     1      47.368  -0.956   7.171  0.00  0.00    +0.000 HD
ENDBRANCH   6  10
ENDBRANCH   1   2
BRANCH   1  15
ATOM     15  C   UNL     1      43.272   5.244  12.298  0.00  0.00    +0.000 C 
BRANCH  15  20
ATOM     16  C   UNL     1      46.782   6.658  12.913  0.00  0.00    +0.000 A 
ATOM     17  C   UNL     1      47.401   5.531  13.491  0.00  0.00    +0.000 A 
ATOM     18  C   UNL     1      46.715   4.324  13.651  0.00  0.00    +0.000 A 
ATOM     19  C   UNL     1      45.386   4.217  13.246  0.00  0.00    +0.000 A 
ATOM     20  C   UNL     1      44.743   5.309  12.656  0.00  0.00    +0.000 A 
ATOM     21  C   UNL     1      45.455   6.510  12.476  0.00  0.00    +0.000 A 
BRANCH  16  23
ATOM     22  C   UNL     1      46.510   9.126  12.679  0.00  0.00    +0.000 C 
ATOM     23  C   UNL     1      47.540   7.998  12.869  0.00  0.00    +0.000 C 
ATOM     24  C   UNL     1      48.394   8.206  14.126  0.00  0.00    +0.000 C 
ATOM     25  C   UNL     1      49.787   7.727  13.738  0.00  0.00    +0.000 C 
ATOM     26  O   UNL     1      49.804   7.522  12.321  0.00  0.00    +0.000 OA
ATOM     27  C   UNL     1      48.625   8.134  11.790  0.00  0.00    +0.000 C 
ENDBRANCH  16  23
ENDBRANCH  15  20
ENDBRANCH   1  15
TORSDOF 5
ENDMDL
MODEL 2
REMARK VINA RESULT:    -8.166      1.310      1.768
REMARK INTER + INTRA:         -11.143
REMARK INTER:                 -10.390
REMARK INTRA:                  -0.752
REMARK UNBOUND:                -0.589
REMARK  Name = 
REMARK  6 active torsions:
REMARK  status: ('A' for Active; 'I' for Inactive)
REMARK    1  A    between atoms: C_1  and  C_2
REMARK    2  A    between atoms: C_2  and  C_3
REMARK    3  A    between atoms: C_7  and  C_8
REMARK    4  A    between atoms: C_8  and  C_9
REMARK    5  A    between atoms: C_9  and  N_10
REMARK    6  A    between atoms: C_14  and  C_15
REMARK                            x       y       z     vdW  Elec       q    Type
REMARK                         _______ _______ _______ _____ _____    ______ ____
ROOT
ATOM      1  C   UNL     1      43.440   5.239  10.610  0.00  0.00    +0.000 C 
ENDROOT
BRANCH   1   2
ATOM      2  N   UNL     1      43.639   3.783  10.530  0.00  0.00    +0.000 N 
ATOM      3  C   UNL     1      44.584   3.428   9.544  0.00  0.00    +0.000 A 
ATOM      4  C   UNL     1      44.890   2.084   9.345  0.00  0.00    +0.000 A 
ATOM      5  C   UNL     1      45.838   1.730   8.376  0.00  0.00    +0.000 A 
ATOM      6  C   UNL     1      46.461   2.724   7.621  0.00  0.00    +0.000 A 
ATOM      7  C   UNL     1      46.103   4.031   7.893  0.00  0.00    +0.000 A 
ATOM      8  N   UNL     1      45.194   4.392   8.830  0.00  0.00    +0.000 NA
ATOM      9  H   UNL     1      42.774   3.282  10.341  0.00  0.00    +0.000 HD
BRANCH   6  10
ATOM     10  C   UNL     1      47.455   2.359   6.585  0.00  0.00    +0.000 C 
ATOM     11  N   UNL     1      47.469   3.051   5.403  0.00  0.00    +0.000 N 
ATOM     12  O   UNL     1      48.255   1.449   6.773  0.00  0.00    +0.000 OA
ATOM     13  H   UNL     1      46.861   3.809   5.143  0.00  0.00    +0.000 HD
ATOM     14  H   UNL     1      48.166   2.763   4.726  0.00  0.00    +0.000 HD
ENDBRANCH   6  10
ENDBRANCH   1   2
BRANCH   1  15
ATOM     15  C   UNL     1      43.565   5.750  12.050  0.00  0.00    +0.000 C 
BRANCH  15  20
ATOM     16  C   UNL     1      47.216   6.466  12.981  0.00  0.00    +0.000 A 
ATOM     17  C   UNL     1      47.514   5.298  13.710  0.00  0.00    +0.000 A 
ATOM     18  C   UNL     1      46.573   4.279  13.873  0.00  0.00    +0.000 A 
ATOM     19  C   UNL     1      45.301   4.407  13.319  0.00  0.00    +0.000 A 
ATOM     20  C   UNL     1      44.972   5.546  12.578  0.00  0.00    +0.000 A 
ATOM     21  C   UNL     1      45.939   6.552  12.398  0.00  0.00    +0.000 A 
BRANCH  16  23
ATOM     22  C   UNL     1      48.691   7.791  11.468  0.00  0.00    +0.000 C 
ATOM     23  C   UNL     1      48.245   7.611  12.931  0.00  0.00    +0.000 C 
ATOM     24  C   UNL     1      47.677   8.907  13.522  0.00  0.00    +0.000 C 
ATOM     25  C   UNL     1      48.151   8.920  14.968  0.00  0.00    +0.000 C 
ATOM     26  O   UNL     1      49.123   7.880  15.124  0.00  0.00    +0.000 OA
ATOM     27  C   UNL     1      49.493   7.447  13.811  0.00  0.00    +0.000 C 
ENDBRANCH  16  23
ENDBRANCH  15  20
ENDBRANCH   1  15
TORSDOF 5
ENDMDL
MODEL 3
REMARK VINA RESULT:    -7.561      1.559      2.466
REMARK INTER + INTRA:         -10.360
REMARK INTER:                  -9.562
REMARK INTRA:                  -0.798
REMARK UNBOUND:                -0.589
REMARK  Name = 
REMARK  6 active torsions:
REMARK  status: ('A' for Active; 'I' for Inactive)
REMARK    1  A    between atoms: C_1  and  C_2
REMARK    2  A    between atoms: C_2  and  C_3
REMARK    3  A    between atoms: C_7  and  C_8
REMARK    4  A    between atoms: C_8  and  C_9
REMARK    5  A    between atoms: C_9  and  N_10
REMARK    6  A    between atoms: C_14  and  C_15
REMARK                            x       y       z     vdW  Elec       q    Type
REMARK                         _______ _______ _______ _____ _____    ______ ____
ROOT
ATOM      1  C   UNL     1      43.632   4.526  11.148  0.00  0.00    +0.000 C 
ENDROOT
BRANCH   1   2
ATOM      2  N   UNL     1      43.907   3.130  10.771  0.00  0.00    +0.000 N 
ATOM      3  C   UNL     1      44.743   3.039   9.639  0.00  0.00    +0.000 A 
ATOM      4  C   UNL     1      45.103   1.783   9.155  0.00  0.00    +0.000 A 
ATOM      5  C   UNL     1      45.945   1.690   8.040  0.00  0.00    +0.000 A 
ATOM      6  C   UNL     1      46.411   2.852   7.425  0.00  0.00    +0.000 A 
ATOM      7  C   UNL     1      46.012   4.054   7.978  0.00  0.00    +0.000 A 
ATOM      8  N   UNL     1      45.203   4.163   9.059  0.00  0.00    +0.000 NA
ATOM      9  H   UNL     1      43.056   2.603  10.586  0.00  0.00    +0.000 HD
BRANCH   6  10
ATOM     10  C   UNL     1      47.291   2.764   6.237  0.00  0.00    +0.000 C 
ATOM     11  N   UNL     1      48.623   2.497   6.413  0.00  0.00    +0.000 N 
ATOM     12  O   UNL     1      46.844   2.931   5.108  0.00  0.00    +0.000 OA
ATOM     13  H   UNL     1      49.096   2.346   7.289  0.00  0.00    +0.000 HD
ATOM     14  H   UNL     1      49.184   2.449   5.571  0.00  0.00    +0.000 HD
ENDBRANCH   6  10
ENDBRANCH   1   2
BRANCH   1  15
ATOM     15  C   UNL     1      44.294   4.894  12.482  0.00  0.00    +0.000 C 
BRANCH  15  20
ATOM     16  C   UNL     1      46.980   7.614  12.783  0.00  0.00    +0.000 A 
ATOM     17  C   UNL     1      46.348   8.658  12.080  0.00  0.00    +0.000 A 
ATOM     18  C   UNL     1      45.066   8.508  11.546  0.00  0.00    +0.000 A 
ATOM     19  C   UNL     1      44.386   7.301  11.691  0.00  0.00    +0.000 A 
ATOM     20  C   UNL     1      44.975   6.246  12.395  0.00  0.00    +0.000 A 
ATOM     21  C   UNL     1      46.255   6.421  12.952  0.00  0.00    +0.000 A 
BRANCH  16  23
ATOM     22  C   UNL     1      49.363   7.413  12.075  0.00  0.00    +0.000 C 
ATOM     23  C   UNL     1      48.438   7.787  13.248  0.00  0.00    +0.000 C 
ATOM     24  C   UNL     1      48.703   9.208  13.758  0.00  0.00    +0.000 C 
ATOM     25  C   UNL     1      48.528   9.123  15.268  0.00  0.00    +0.000 C 
ATOM     26  O   UNL     1      48.442   7.739  15.625  0.00  0.00    +0.000 OA
ATOM     27  C   UNL     1      48.861   6.981  14.486  0.00  0.00    +0.000 C 
ENDBRANCH  16  23
ENDBRANCH  15  20
ENDBRANCH   1  15
TORSDOF 5
ENDMDL
MODEL 4
REMARK VINA RESULT:    -6.840      4.067      7.304
REMARK INTER + INTRA:          -9.428
REMARK INTER:                  -8.421
REMARK INTRA:                  -1.007
REMARK UNBOUND:                -0.589
REMARK  Name = 
REMARK  6 active torsions:
REMARK  status: ('A' for Active; 'I' for Inactive)
REMARK    1  A    between atoms: C_1  and  C_2
REMARK    2  A    between atoms: C_2  and  C_3
REMARK    3  A    between atoms: C_7  and  C_8
REMARK    4  A    between atoms: C_8  and  C_9
REMARK    5  A    between atoms: C_9  and  N_10
REMARK    6  A    between atoms: C_14  and  C_15
REMARK                            x       y       z     vdW  Elec       q    Type
REMARK                         _______ _______ _______ _____ _____    ______ ____
ROOT
ATOM      1  C   UNL     1      49.238   7.557  13.057  0.00  0.00    +0.000 C 
ENDROOT
BRANCH   1   2
ATOM      2  N   UNL     1      49.734   7.598  14.441  0.00  0.00    +0.000 N 
ATOM      3  C   UNL     1      49.152   6.597  15.246  0.00  0.00    +0.000 A 
ATOM      4  C   UNL     1      49.520   6.498  16.586  0.00  0.00    +0.000 A 
ATOM      5  C   UNL     1      48.954   5.495  17.383  0.00  0.00    +0.000 A 
ATOM      6  C   UNL     1      48.029   4.610  16.830  0.00  0.00    +0.000 A 
ATOM      7  C   UNL     1      47.730   4.775  15.490  0.00  0.00    +0.000 A 
ATOM      8  N   UNL     1      48.272   5.735  14.703  0.00  0.00    +0.000 NA
ATOM      9  H   UNL     1      49.573   8.501  14.884  0.00  0.00    +0.000 HD
BRANCH   6  10
ATOM     10  C   UNL     1      47.415   3.554  17.668  0.00  0.00    +0.000 C 
ATOM     11  N   UNL     1      48.036   3.181  18.831  0.00  0.00    +0.000 N 
ATOM     12  O   UNL     1      46.368   3.012  17.331  0.00  0.00    +0.000 OA
ATOM     13  H   UNL     1      48.895   3.555  19.201  0.00  0.00    +0.000 HD
ATOM     14  H   UNL     1      47.579   2.454  19.367  0.00  0.00    +0.000 HD
ENDBRANCH   6  10
ENDBRANCH   1   2
BRANCH   1  15
ATOM     15  C   UNL     1      48.549   8.868  12.661  0.00  0.00    +0.000 C 
BRANCH  15  20
ATOM     16  C   UNL     1      45.439   7.002  11.417  0.00  0.00    +0.000 A 
ATOM     17  C   UNL     1      44.501   8.053  11.435  0.00  0.00    +0.000 A 
ATOM     18  C   UNL     1      44.865   9.349  11.808  0.00  0.00    +0.000 A 
ATOM     19  C   UNL     1      46.177   9.626  12.183  0.00  0.00    +0.000 A 
ATOM     20  C   UNL     1      47.140   8.612  12.164  0.00  0.00    +0.000 A 
ATOM     21  C   UNL     1      46.765   7.317  11.759  0.00  0.00    +0.000 A 
BRANCH  16  23
ATOM     22  C   UNL     1      45.570   5.135   9.768  0.00  0.00    +0.000 C 
ATOM     23  C   UNL     1      44.964   5.568  11.116  0.00  0.00    +0.000 C 
ATOM     24  C   UNL     1      45.332   4.601  12.248  0.00  0.00    +0.000 C 
ATOM     25  C   UNL     1      44.088   4.529  13.123  0.00  0.00    +0.000 C 
ATOM     26  O   UNL     1      43.017   5.170  12.421  0.00  0.00    +0.000 OA
ATOM     27  C   UNL     1      43.444   5.348  11.067  0.00  0.00    +0.000 C 
ENDBRANCH  16  23
ENDBRANCH  15  20
ENDBRANCH   1  15
TORSDOF 5
ENDMDL
MODEL 5
REMARK VINA RESULT:    -6.752      4.763      6.374
REMARK INTER + INTRA:          -9.315
REMARK INTER:                  -8.699
REMARK INTRA:                  -0.616
REMARK UNBOUND:                -0.589
REMARK  Name = 
REMARK  6 active torsions:
REMARK  status: ('A' for Active; 'I' for Inactive)
REMARK    1  A    between atoms: C_1  and  C_2
REMARK    2  A    between atoms: C_2  and  C_3
REMARK    3  A    between atoms: C_7  and  C_8
REMARK    4  A    between atoms: C_8  and  C_9
REMARK    5  A    between atoms: C_9  and  N_10
REMARK    6  A    between atoms: C_14  and  C_15
REMARK                            x       y       z     vdW  Elec       q    Type
REMARK                         _______ _______ _______ _____ _____    ______ ____
ROOT
ATOM      1  C   UNL     1      47.268   4.197  15.728  0.00  0.00    +0.000 C 
ENDROOT
BRANCH   1   2
ATOM      2  N   UNL     1      47.129   5.295  14.758  0.00  0.00    +0.000 N 
ATOM      3  C   UNL     1      46.419   4.901  13.606  0.00  0.00    +0.000 A 
ATOM      4  C   UNL     1      46.196   5.828  12.590  0.00  0.00    +0.000 A 
ATOM      5  C   UNL     1      45.479   5.442  11.450  0.00  0.00    +0.000 A 
ATOM      6  C   UNL     1      44.999   4.137  11.342  0.00  0.00    +0.000 A 
ATOM      7  C   UNL     1      45.258   3.287  12.402  0.00  0.00    +0.000 A 
ATOM      8  N   UNL     1      45.943   3.644  13.514  0.00  0.00    +0.000 NA
ATOM      9  H   UNL     1      48.028   5.674  14.468  0.00  0.00    +0.000 HD
BRANCH   6  10
ATOM     10  C   UNL     1      44.250   3.716  10.136  0.00  0.00    +0.000 C 
ATOM     11  N   UNL     1      43.894   4.660   9.209  0.00  0.00    +0.000 N 
ATOM     12  O   UNL     1      43.945   2.541   9.962  0.00  0.00    +0.000 OA
ATOM     13  H   UNL     1      44.089   5.646   9.251  0.00  0.00    +0.000 HD
ATOM     14  H   UNL     1      43.382   4.322   8.403  0.00  0.00    +0.000 HD
ENDBRANCH   6  10
ENDBRANCH   1   2
BRANCH   1  15
ATOM     15  C   UNL     1      47.996   4.652  16.999  0.00  0.00    +0.000 C 
BRANCH  15  20
ATOM     16  C   UNL     1      51.649   3.925  17.909  0.00  0.00    +0.000 A 
ATOM     17  C   UNL     1      51.680   2.532  17.697  0.00  0.00    +0.000 A 
ATOM     18  C   UNL     1      50.558   1.839  17.237  0.00  0.00    +0.000 A 
ATOM     19  C   UNL     1      49.369   2.521  16.987  0.00  0.00    +0.000 A 
ATOM     20  C   UNL     1      49.304   3.905  17.172  0.00  0.00    +0.000 A 
ATOM     21  C   UNL     1      50.450   4.595  17.609  0.00  0.00    +0.000 A 
BRANCH  16  23
ATOM     22  C   UNL     1      52.983   4.179  20.001  0.00  0.00    +0.000 C 
ATOM     23  C   UNL     1      52.873   4.624  18.531  0.00  0.00    +0.000 C 
ATOM     24  C   UNL     1      54.154   4.326  17.743  0.00  0.00    +0.000 C 
ATOM     25  C   UNL     1      54.314   5.506  16.794  0.00  0.00    +0.000 C 
ATOM     26  O   UNL     1      53.377   6.516  17.183  0.00  0.00    +0.000 OA
ATOM     27  C   UNL     1      52.883   6.159  18.478  0.00  0.00    +0.000 C 
ENDBRANCH  16  23
ENDBRANCH  15  20
ENDBRANCH   1  15
TORSDOF 5
ENDMDL
MODEL 6
REMARK VINA RESULT:    -6.657      3.570      5.802
REMARK INTER + INTRA:          -9.192
REMARK INTER:                  -8.332
REMARK INTRA:                  -0.859
REMARK UNBOUND:                -0.589
REMARK  Name = 
REMARK  6 active torsions:
REMARK  status: ('A' for Active; 'I' for Inactive)
REMARK    1  A    between atoms: C_1  and  C_2
REMARK    2  A    between atoms: C_2  and  C_3
REMARK    3  A    between atoms: C_7  and  C_8
REMARK    4  A    between atoms: C_8  and  C_9
REMARK    5  A    between atoms: C_9  and  N_10
REMARK    6  A    between atoms: C_14  and  C_15
REMARK                            x       y       z     vdW  Elec       q    Type
REMARK                         _______ _______ _______ _____ _____    ______ ____
ROOT
ATOM      1  C   UNL     1      47.792   7.730  13.985  0.00  0.00    +0.000 C 
ENDROOT
BRANCH   1   2
ATOM      2  N   UNL     1      47.328   7.689  12.590  0.00  0.00    +0.000 N 
ATOM      3  C   UNL     1      46.527   6.558  12.329  0.00  0.00    +0.000 A 
ATOM      4  C   UNL     1      46.002   6.373  11.051  0.00  0.00    +0.000 A 
ATOM      5  C   UNL     1      45.196   5.257  10.793  0.00  0.00    +0.000 A 
ATOM      6  C   UNL     1      44.928   4.344  11.813  0.00  0.00    +0.000 A 
ATOM      7  C   UNL     1      45.482   4.613  13.052  0.00  0.00    +0.000 A 
ATOM      8  N   UNL     1      46.259   5.689  13.321  0.00  0.00    +0.000 NA
ATOM      9  H   UNL     1      48.097   7.699  11.924  0.00  0.00    +0.000 HD
BRANCH   6  10
ATOM     10  C   UNL     1      44.086   3.155  11.547  0.00  0.00    +0.000 C 
ATOM     11  N   UNL     1      43.727   2.346  12.593  0.00  0.00    +0.000 N 
ATOM     12  O   UNL     1      43.716   2.887  10.410  0.00  0.00    +0.000 OA
ATOM     13  H   UNL     1      43.974   2.469  13.561  0.00  0.00    +0.000 HD
ATOM     14  H   UNL     1      43.153   1.545  12.360  0.00  0.00    +0.000 HD
ENDBRANCH   6  10
ENDBRANCH   1   2
BRANCH   1  15
ATOM     15  C   UNL     1      49.297   8.011  14.074  0.00  0.00    +0.000 C 
BRANCH  15  20
ATOM     16  C   UNL     1      49.710   5.546  16.982  0.00  0.00    +0.000 A 
ATOM     17  C   UNL     1      51.080   5.724  17.259  0.00  0.00    +0.000 A 
ATOM     18  C   UNL     1      51.855   6.644  16.548  0.00  0.00    +0.000 A 
ATOM     19  C   UNL     1      51.280   7.404  15.532  0.00  0.00    +0.000 A 
ATOM     20  C   UNL     1      49.920   7.266  15.238  0.00  0.00    +0.000 A 
ATOM     21  C   UNL     1      49.146   6.356  15.981  0.00  0.00    +0.000 A 
BRANCH  16  23
ATOM     22  C   UNL     1      48.988   4.720  19.222  0.00  0.00    +0.000 C 
ATOM     23  C   UNL     1      48.928   4.436  17.710  0.00  0.00    +0.000 C 
ATOM     24  C   UNL     1      47.485   4.336  17.201  0.00  0.00    +0.000 C 
ATOM     25  C   UNL     1      47.514   3.236  16.149  0.00  0.00    +0.000 C 
ATOM     26  O   UNL     1      48.783   2.578  16.234  0.00  0.00    +0.000 OA
ATOM     27  C   UNL     1      49.395   2.995  17.459  0.00  0.00    +0.000 C 
ENDBRANCH  16  23
ENDBRANCH  15  20
ENDBRANCH   1  15
TORSDOF 5
ENDMDL
MODEL 7
REMARK VINA RESULT:    -6.339      4.719      8.235
REMARK INTER + INTRA:          -8.781
REMARK INTER:                  -8.052
REMARK INTRA:                  -0.729
REMARK UNBOUND:                -0.589
REMARK  Name = 
REMARK  6 active torsions:
REMARK  status: ('A' for Active; 'I' for Inactive)
REMARK    1  A    between atoms: C_1  and  C_2
REMARK    2  A    between atoms: C_2  and  C_3
REMARK    3  A    between atoms: C_7  and  C_8
REMARK    4  A    between atoms: C_8  and  C_9
REMARK    5  A    between atoms: C_9  and  N_10
REMARK    6  A    between atoms: C_14  and  C_15
REMARK                            x       y       z     vdW  Elec       q    Type
REMARK                         _______ _______ _______ _____ _____    ______ ____
ROOT
ATOM      1  C   UNL     1      48.895   7.454  14.269  0.00  0.00    +0.000 C 
ENDROOT
BRANCH   1   2
ATOM      2  N   UNL     1      48.163   6.775  15.350  0.00  0.00    +0.000 N 
ATOM      3  C   UNL     1      49.031   6.170  16.282  0.00  0.00    +0.000 A 
ATOM      4  C   UNL     1      48.494   5.488  17.373  0.00  0.00    +0.000 A 
ATOM      5  C   UNL     1      49.355   4.898  18.307  0.00  0.00    +0.000 A 
ATOM      6  C   UNL     1      50.736   4.997  18.137  0.00  0.00    +0.000 A 
ATOM      7  C   UNL     1      51.180   5.700  17.032  0.00  0.00    +0.000 A 
ATOM      8  N   UNL     1      50.363   6.282  16.122  0.00  0.00    +0.000 NA
ATOM      9  H   UNL     1      47.522   6.066  15.000  0.00  0.00    +0.000 HD
BRANCH   6  10
ATOM     10  C   UNL     1      51.654   4.366  19.113  0.00  0.00    +0.000 C 
ATOM     11  N   UNL     1      52.237   3.167  18.799  0.00  0.00    +0.000 N 
ATOM     12  O   UNL     1      51.891   4.900  20.191  0.00  0.00    +0.000 OA
ATOM     13  H   UNL     1      52.113   2.641  17.950  0.00  0.00    +0.000 HD
ATOM     14  H   UNL     1      52.855   2.775  19.500  0.00  0.00    +0.000 HD
ENDBRANCH   6  10
ENDBRANCH   1   2
BRANCH   1  15
ATOM     15  C   UNL     1      48.697   6.751  12.921  0.00  0.00    +0.000 C 
BRANCH  15  20
ATOM     16  C   UNL     1      45.083   5.937  11.930  0.00  0.00    +0.000 A 
ATOM     17  C   UNL     1      44.597   7.238  11.691  0.00  0.00    +0.000 A 
ATOM     18  C   UNL     1      45.422   8.358  11.812  0.00  0.00    +0.000 A 
ATOM     19  C   UNL     1      46.756   8.207  12.187  0.00  0.00    +0.000 A 
ATOM     20  C   UNL     1      47.278   6.931  12.418  0.00  0.00    +0.000 A 
ATOM     21  C   UNL     1      46.442   5.809  12.266  0.00  0.00    +0.000 A 
BRANCH  16  23
ATOM     22  C   UNL     1      43.050   4.966  13.001  0.00  0.00    +0.000 C 
ATOM     23  C   UNL     1      44.105   4.747  11.901  0.00  0.00    +0.000 C 
ATOM     24  C   UNL     1      43.467   4.573  10.518  0.00  0.00    +0.000 C 
ATOM     25  C   UNL     1      44.322   3.525   9.819  0.00  0.00    +0.000 C 
ATOM     26  O   UNL     1      45.199   2.950  10.794  0.00  0.00    +0.000 OA
ATOM     27  C   UNL     1      44.723   3.352  12.082  0.00  0.00    +0.000 C 
ENDBRANCH  16  23
ENDBRANCH  15  20
ENDBRANCH   1  15
TORSDOF 5
ENDMDL
MODEL 8
REMARK VINA RESULT:    -6.322      5.505      7.111
REMARK INTER + INTRA:          -8.759
REMARK INTER:                  -8.084
REMARK INTRA:                  -0.675
REMARK UNBOUND:                -0.589
REMARK  Name = 
REMARK  6 active torsions:
REMARK  status: ('A' for Active; 'I' for Inactive)
REMARK    1  A    between atoms: C_1  and  C_2
REMARK    2  A    between atoms: C_2  and  C_3
REMARK    3  A    between atoms: C_7  and  C_8
REMARK    4  A    between atoms: C_8  and  C_9
REMARK    5  A    between atoms: C_9  and  N_10
REMARK    6  A    between atoms: C_14  and  C_15
REMARK                            x       y       z     vdW  Elec       q    Type
REMARK                         _______ _______ _______ _____ _____    ______ ____
ROOT
ATOM      1  C   UNL     1      47.141   4.015  16.386  0.00  0.00    +0.000 C 
ENDROOT
BRANCH   1   2
ATOM      2  N   UNL     1      47.529   5.111  15.485  0.00  0.00    +0.000 N 
ATOM      3  C   UNL     1      46.874   5.034  14.239  0.00  0.00    +0.000 A 
ATOM      4  C   UNL     1      47.129   6.004  13.272  0.00  0.00    +0.000 A 
ATOM      5  C   UNL     1      46.468   5.936  12.038  0.00  0.00    +0.000 A 
ATOM      6  C   UNL     1      45.567   4.902  11.791  0.00  0.00    +0.000 A 
ATOM      7  C   UNL     1      45.368   3.990  12.811  0.00  0.00    +0.000 A 
ATOM      8  N   UNL     1      45.992   4.042  14.011  0.00  0.00    +0.000 NA
ATOM      9  H   UNL     1      48.533   5.141  15.319  0.00  0.00    +0.000 HD
BRANCH   6  10
ATOM     10  C   UNL     1      44.873   4.814  10.485  0.00  0.00    +0.000 C 
ATOM     11  N   UNL     1      45.417   5.446   9.398  0.00  0.00    +0.000 N 
ATOM     12  O   UNL     1      43.822   4.192  10.370  0.00  0.00    +0.000 OA
ATOM     13  H   UNL     1      46.268   5.983   9.378  0.00  0.00    +0.000 HD
ATOM     14  H   UNL     1      44.904   5.359   8.529  0.00  0.00    +0.000 HD
ENDBRANCH   6  10
ENDBRANCH   1   2
BRANCH   1  15
ATOM     15  C   UNL     1      48.317   3.072  16.672  0.00  0.00    +0.000 C 
BRANCH  15  20
ATOM     16  C   UNL     1      51.475   4.111  18.582  0.00  0.00    +0.000 A 
ATOM     17  C   UNL     1      50.891   4.819  19.651  0.00  0.00    +0.000 A 
ATOM     18  C   UNL     1      49.504   4.934  19.779  0.00  0.00    +0.000 A 
ATOM     19  C   UNL     1      48.664   4.352  18.832  0.00  0.00    +0.000 A 
ATOM     20  C   UNL     1      49.207   3.630  17.765  0.00  0.00    +0.000 A 
ATOM     21  C   UNL     1      50.604   3.498  17.664  0.00  0.00    +0.000 A 
BRANCH  16  23
ATOM     22  C   UNL     1      53.370   5.137  17.325  0.00  0.00    +0.000 C 
ATOM     23  C   UNL     1      53.006   4.115  18.418  0.00  0.00    +0.000 C 
ATOM     24  C   UNL     1      53.715   4.416  19.744  0.00  0.00    +0.000 C 
ATOM     25  C   UNL     1      54.062   3.051  20.324  0.00  0.00    +0.000 C 
ATOM     26  O   UNL     1      53.826   2.069  19.309  0.00  0.00    +0.000 OA
ATOM     27  C   UNL     1      53.659   2.768  18.072  0.00  0.00    +0.000 C 
ENDBRANCH  16  23
ENDBRANCH  15  20
ENDBRANCH   1  15
TORSDOF 5
ENDMDL
MODEL 9
REMARK VINA RESULT:    -6.299      4.573      6.207
REMARK INTER + INTRA:          -8.729
REMARK INTER:                  -7.995
REMARK INTRA:                  -0.734
REMARK UNBOUND:                -0.589
REMARK  Name = 
REMARK  6 active torsions:
REMARK  status: ('A' for Active; 'I' for Inactive)
REMARK    1  A    between atoms: C_1  and  C_2
REMARK    2  A    between atoms: C_2  and  C_3
REMARK    3  A    between atoms: C_7  and  C_8
REMARK    4  A    between atoms: C_8  and  C_9
REMARK    5  A    between atoms: C_9  and  N_10
REMARK    6  A    between atoms: C_14  and  C_15
REMARK                            x       y       z     vdW  Elec       q    Type
REMARK                         _______ _______ _______ _____ _____    ______ ____
ROOT
ATOM      1  C   UNL     1      47.592   3.992  15.794  0.00  0.00    +0.000 C 
ENDROOT
BRANCH   1   2
ATOM      2  N   UNL     1      47.127   5.176  15.054  0.00  0.00    +0.000 N 
ATOM      3  C   UNL     1      46.409   4.830  13.891  0.00  0.00    +0.000 A 
ATOM      4  C   UNL     1      45.895   5.839  13.080  0.00  0.00    +0.000 A 
ATOM      5  C   UNL     1      45.170   5.497  11.931  0.00  0.00    +0.000 A 
ATOM      6  C   UNL     1      44.971   4.154  11.611  0.00  0.00    +0.000 A 
ATOM      7  C   UNL     1      45.508   3.220  12.478  0.00  0.00    +0.000 A 
ATOM      8  N   UNL     1      46.207   3.532  13.596  0.00  0.00    +0.000 NA
ATOM      9  H   UNL     1      47.891   5.794  14.789  0.00  0.00    +0.000 HD
BRANCH   6  10
ATOM     10  C   UNL     1      44.217   3.782  10.392  0.00  0.00    +0.000 C 
ATOM     11  N   UNL     1      44.059   4.710   9.397  0.00  0.00    +0.000 N 
ATOM     12  O   UNL     1      43.732   2.662  10.269  0.00  0.00    +0.000 OA
ATOM     13  H   UNL     1      44.410   5.653   9.394  0.00  0.00    +0.000 HD
ATOM     14  H   UNL     1      43.534   4.408   8.585  0.00  0.00    +0.000 HD
ENDBRANCH   6  10
ENDBRANCH   1   2
BRANCH   1  15
ATOM     15  C   UNL     1      46.982   3.926  17.200  0.00  0.00    +0.000 C 
BRANCH  15  20
ATOM     16  C   UNL     1      49.958   5.520  19.019  0.00  0.00    +0.000 A 
ATOM     17  C   UNL     1      49.280   6.473  19.805  0.00  0.00    +0.000 A 
ATOM     18  C   UNL     1      47.887   6.582  19.780  0.00  0.00    +0.000 A 
ATOM     19  C   UNL     1      47.136   5.746  18.957  0.00  0.00    +0.000 A 
ATOM     20  C   UNL     1      47.771   4.779  18.173  0.00  0.00    +0.000 A 
ATOM     21  C   UNL     1      49.172   4.661  18.230  0.00  0.00    +0.000 A 
BRANCH  16  23
ATOM     22  C   UNL     1      51.999   4.738  20.220  0.00  0.00    +0.000 C 
ATOM     23  C   UNL     1      51.498   5.518  18.991  0.00  0.00    +0.000 C 
ATOM     24  C   UNL     1      52.038   4.935  17.680  0.00  0.00    +0.000 C 
ATOM     25  C   UNL     1      52.303   6.143  16.792  0.00  0.00    +0.000 C 
ATOM     26  O   UNL     1      52.189   7.319  17.601  0.00  0.00    +0.000 OA
ATOM     27  C   UNL     1      52.181   6.894  18.968  0.00  0.00    +0.000 C 
ENDBRANCH  16  23
ENDBRANCH  15  20
ENDBRANCH   1  15
TORSDOF 5
ENDMDL
