MODEL 1
REMARK VINA RESULT:    -8.249      0.000      0.000
REMARK INTER + INTRA:         -12.917
REMARK INTER:                 -11.625
REMARK INTRA:                  -1.292
REMARK UNBOUND:                -1.292
REMARK  Name = 
REMARK  7 active torsions:
REMARK  status: ('A' for Active; 'I' for Inactive)
REMARK    1  A    between atoms: C_2  and  C_4
REMARK    2  A    between atoms: C_7  and  O_8
REMARK    3  A    between atoms: O_8  and  C_9
REMARK    4  A    between atoms: C_9  and  C_10
REMARK    5  A    between atoms: C_14  and  C_15
REMARK    6  A    between atoms: C_19  and  O_20
REMARK    7  A    between atoms: O_20  and  C_21
REMARK                            x       y       z     vdW  Elec       q    Type
REMARK                         _______ _______ _______ _____ _____    ______ ____
ROOT
ATOM      1  C   UNL     1      44.999   4.714  12.046  0.00  0.00    +0.000 A 
ATOM      2  C   UNL     1      45.291   3.459  12.602  0.00  0.00    +0.000 A 
ATOM      3  C   UNL     1      46.424   3.253  13.385  0.00  0.00    +0.000 A 
ATOM      4  C   UNL     1      47.315   4.302  13.610  0.00  0.00    +0.000 A 
ATOM      5  C   UNL     1      47.084   5.574  13.065  0.00  0.00    +0.000 A 
ATOM      6  C   UNL     1      45.902   5.757  12.318  0.00  0.00    +0.000 A 
ENDROOT
BRANCH   5   7
ATOM      7  C   UNL     1      48.069   6.665  13.197  0.00  0.00    +0.000 A 
ATOM      8  C   UNL     1      48.550   7.067  14.444  0.00  0.00    +0.000 A 
ATOM      9  N   UNL     1      49.482   8.035  14.645  0.00  0.00    +0.000 NA
ATOM     10  C   UNL     1      49.982   8.621  13.539  0.00  0.00    +0.000 A 
ATOM     11  C   UNL     1      49.612   8.285  12.243  0.00  0.00    +0.000 A 
ATOM     12  C   UNL     1      48.618   7.319  12.081  0.00  0.00    +0.000 A 
BRANCH  11  13
ATOM     13  O   UNL     1      50.245   8.953  11.237  0.00  0.00    +0.000 OA
BRANCH  13  14
ATOM     14  C   UNL     1      51.547   8.482  10.925  0.00  0.00    +0.000 C 
ATOM     15  F   UNL     1      51.443   7.253  10.365  0.00  0.00    +0.000 F 
ATOM     16  F   UNL     1      52.057   9.305   9.976  0.00  0.00    +0.000 F 
ENDBRANCH  13  14
ENDBRANCH  11  13
ENDBRANCH   5   7
BRANCH   1  17
ATOM     17  C   UNL     1      43.801   4.916  11.126  0.00  0.00    +0.000 C 
ATOM     18  C   UNL     1      42.495   5.429  11.734  0.00  0.00    +0.000 C 
ATOM     19  C   UNL     1      43.321   6.331  10.881  0.00  0.00    +0.000 C 
BRANCH  17  20
ATOM     20  O   UNL     1      43.512   3.884  10.154  0.00  0.00    +0.000 OA
BRANCH  20  24
ATOM     21  C   UNL     1      46.497   2.679   7.578  0.00  0.00    +0.000 A 
ATOM     22  C   UNL     1      45.846   1.745   8.382  0.00  0.00    +0.000 A 
ATOM     23  C   UNL     1      44.836   2.177   9.241  0.00  0.00    +0.000 A 
ATOM     24  C   UNL     1      44.505   3.526   9.258  0.00  0.00    +0.000 A 
ATOM     25  N   UNL     1      45.101   4.450   8.475  0.00  0.00    +0.000 NA
ATOM     26  C   UNL     1      46.100   4.008   7.669  0.00  0.00    +0.000 A 
BRANCH  21  28
ATOM     27  N   UNL     1      47.771   3.089   5.546  0.00  0.00    +0.000 N 
ATOM     28  C   UNL     1      47.608   2.324   6.667  0.00  0.00    +0.000 C 
ATOM     29  O   UNL     1      48.368   1.400   6.920  0.00  0.00    +0.000 OA
ATOM     30  H   UNL     1      48.587   2.888   4.980  0.00  0.00    +0.000 HD
ATOM     31  H   UNL     1      47.335   3.992   5.426  0.00  0.00    +0.000 HD
ENDBRANCH  21  28
ENDBRANCH  20  24
ENDBRANCH  17  20
ENDBRANCH   1  17
TORSDOF 7
ENDMDL
MODEL 2
REMARK VINA RESULT:    -8.228      3.408      4.385
REMARK INTER + INTRA:         -12.888
REMARK INTER:                 -11.912
REMARK INTRA:                  -0.976
REMARK UNBOUND:                -1.292
REMARK  Name = 
REMARK  7 active torsions:
REMARK  status: ('A' for Active; 'I' for Inactive)
REMARK    1  A    between atoms: C_2  and  C_4
REMARK    2  A    between atoms: C_7  and  O_8
REMARK    3  A    between atoms: O_8  and  C_9
REMARK    4  A    between atoms: C_9  and  C_10
REMARK    5  A    between atoms: C_14  and  C_15
REMARK    6  A    between atoms: C_19  and  O_20
REMARK    7  A    between atoms: O_20  and  C_21
REMARK                            x       y       z     vdW  Elec       q    Type
REMARK                         _______ _______ _______ _____ _____    ______ ____
ROOT
ATOM      1  C   UNL     1      45.219   5.252  11.986  0.00  0.00    +0.000 A 
ATOM      2  C   UNL     1      46.013   6.321  11.544  0.00  0.00    +0.000 A 
ATOM      3  C   UNL     1      47.213   6.647  12.171  0.00  0.00    +0.000 A 
ATOM      4  C   UNL     1      47.639   5.919  13.282  0.00  0.00    +0.000 A 
ATOM      5  C   UNL     1      46.877   4.851  13.779  0.00  0.00    +0.000 A 
ATOM      6  C   UNL     1      45.692   4.520  13.090  0.00  0.00    +0.000 A 
ENDROOT
BRANCH   5   7
ATOM      7  C   UNL     1      47.252   4.141  15.018  0.00  0.00    +0.000 A 
ATOM      8  C   UNL     1      46.539   4.317  16.205  0.00  0.00    +0.000 A 
ATOM      9  N   UNL     1      46.799   3.674  17.372  0.00  0.00    +0.000 NA
ATOM     10  C   UNL     1      47.812   2.786  17.353  0.00  0.00    +0.000 A 
ATOM     11  C   UNL     1      48.574   2.496  16.227  0.00  0.00    +0.000 A 
ATOM     12  C   UNL     1      48.305   3.212  15.060  0.00  0.00    +0.000 A 
BRANCH  11  13
ATOM     13  O   UNL     1      49.538   1.543  16.374  0.00  0.00    +0.000 OA
BRANCH  13  14
ATOM     14  C   UNL     1      50.578   1.873  17.281  0.00  0.00    +0.000 C 
ATOM     15  F   UNL     1      51.652   1.090  17.015  0.00  0.00    +0.000 F 
ATOM     16  F   UNL     1      50.950   3.151  17.021  0.00  0.00    +0.000 F 
ENDBRANCH  13  14
ENDBRANCH  11  13
ENDBRANCH   5   7
BRANCH   1  17
ATOM     17  C   UNL     1      43.869   4.948  11.346  0.00  0.00    +0.000 C 
ATOM     18  C   UNL     1      42.601   5.239  12.150  0.00  0.00    +0.000 C 
ATOM     19  C   UNL     1      42.966   6.114  10.998  0.00  0.00    +0.000 C 
BRANCH  17  20
ATOM     20  O   UNL     1      43.722   3.693  10.641  0.00  0.00    +0.000 OA
BRANCH  20  24
ATOM     21  C   UNL     1      46.362   2.717   7.629  0.00  0.00    +0.000 A 
ATOM     22  C   UNL     1      45.839   1.721   8.453  0.00  0.00    +0.000 A 
ATOM     23  C   UNL     1      44.944   2.077   9.461  0.00  0.00    +0.000 A 
ATOM     24  C   UNL     1      44.594   3.414   9.603  0.00  0.00    +0.000 A 
ATOM     25  N   UNL     1      45.065   4.397   8.807  0.00  0.00    +0.000 NA
ATOM     26  C   UNL     1      45.957   4.028   7.852  0.00  0.00    +0.000 A 
BRANCH  21  28
ATOM     27  N   UNL     1      47.246   3.171   5.408  0.00  0.00    +0.000 N 
ATOM     28  C   UNL     1      47.349   2.444   6.562  0.00  0.00    +0.000 C 
ATOM     29  O   UNL     1      48.241   1.621   6.713  0.00  0.00    +0.000 OA
ATOM     30  H   UNL     1      47.980   3.034   4.724  0.00  0.00    +0.000 HD
ATOM     31  H   UNL     1      46.695   4.014   5.335  0.00  0.00    +0.000 HD
ENDBRANCH  21  28
ENDBRANCH  20  24
ENDBRANCH  17  20
ENDBRANCH   1  17
TORSDOF 7
ENDMDL
MODEL 3
REMARK VINA RESULT:    -8.141      3.472      4.356
REMARK INTER + INTRA:         -12.764
REMARK INTER:                 -11.924
REMARK INTRA:                  -0.840
REMARK UNBOUND:                -1.292
REMARK  Name = 
REMARK  7 active torsions:
REMARK  status: ('A' for Active; 'I' for Inactive)
REMARK    1  A    between atoms: C_2  and  C_4
REMARK    2  A    between atoms: C_7  and  O_8
REMARK    3  A    between atoms: O_8  and  C_9
REMARK    4  A    between atoms: C_9  and  C_10
REMARK    5  A    between atoms: C_14  and  C_15
REMARK    6  A    between atoms: C_19  and  O_20
REMARK    7  A    between atoms: O_20  and  C_21
REMARK                            x       y       z     vdW  Elec       q    Type
REMARK                         _______ _______ _______ _____ _____    ______ ____
ROOT
ATOM      1  C   UNL     1      45.274   5.375  11.852  0.00  0.00    +0.000 A 
ATOM      2  C   UNL     1      46.074   6.356  11.245  0.00  0.00    +0.000 A 
ATOM      3  C   UNL     1      47.304   6.729  11.781  0.00  0.00    +0.000 A 
ATOM      4  C   UNL     1      47.756   6.142  12.962  0.00  0.00    +0.000 A 
ATOM      5  C   UNL     1      46.992   5.168  13.622  0.00  0.00    +0.000 A 
ATOM      6  C   UNL     1      45.774   4.781  13.025  0.00  0.00    +0.000 A 
ENDROOT
BRANCH   5   7
ATOM      7  C   UNL     1      47.399   4.616  14.929  0.00  0.00    +0.000 A 
ATOM      8  C   UNL     1      47.485   3.240  15.148  0.00  0.00    +0.000 A 
ATOM      9  N   UNL     1      47.887   2.659  16.307  0.00  0.00    +0.000 NA
ATOM     10  C   UNL     1      48.247   3.495  17.301  0.00  0.00    +0.000 A 
ATOM     11  C   UNL     1      48.240   4.880  17.197  0.00  0.00    +0.000 A 
ATOM     12  C   UNL     1      47.776   5.439  16.005  0.00  0.00    +0.000 A 
BRANCH  11  13
ATOM     13  O   UNL     1      48.670   5.575  18.288  0.00  0.00    +0.000 OA
BRANCH  13  14
ATOM     14  C   UNL     1      47.646   6.194  19.051  0.00  0.00    +0.000 C 
ATOM     15  F   UNL     1      47.489   7.468  18.617  0.00  0.00    +0.000 F 
ATOM     16  F   UNL     1      46.489   5.541  18.779  0.00  0.00    +0.000 F 
ENDBRANCH  13  14
ENDBRANCH  11  13
ENDBRANCH   5   7
BRANCH   1  17
ATOM     17  C   UNL     1      43.895   5.026  11.307  0.00  0.00    +0.000 C 
ATOM     18  C   UNL     1      42.674   5.291  12.190  0.00  0.00    +0.000 C 
ATOM     19  C   UNL     1      42.938   6.161  11.008  0.00  0.00    +0.000 C 
BRANCH  17  20
ATOM     20  O   UNL     1      43.737   3.759  10.625  0.00  0.00    +0.000 OA
BRANCH  20  24
ATOM     21  C   UNL     1      46.352   2.728   7.610  0.00  0.00    +0.000 A 
ATOM     22  C   UNL     1      45.896   1.760   8.503  0.00  0.00    +0.000 A 
ATOM     23  C   UNL     1      45.007   2.133   9.511  0.00  0.00    +0.000 A 
ATOM     24  C   UNL     1      44.598   3.459   9.584  0.00  0.00    +0.000 A 
ATOM     25  N   UNL     1      45.004   4.413   8.720  0.00  0.00    +0.000 NA
ATOM     26  C   UNL     1      45.890   4.030   7.766  0.00  0.00    +0.000 A 
BRANCH  21  28
ATOM     27  N   UNL     1      47.246   3.185   5.394  0.00  0.00    +0.000 N 
ATOM     28  C   UNL     1      47.327   2.438   6.536  0.00  0.00    +0.000 C 
ATOM     29  O   UNL     1      48.190   1.583   6.672  0.00  0.00    +0.000 OA
ATOM     30  H   UNL     1      47.973   3.034   4.705  0.00  0.00    +0.000 HD
ATOM     31  H   UNL     1      46.725   4.048   5.335  0.00  0.00    +0.000 HD
ENDBRANCH  21  28
ENDBRANCH  20  24
ENDBRANCH  17  20
ENDBRANCH   1  17
TORSDOF 7
ENDMDL
MODEL 4
REMARK VINA RESULT:    -7.977      1.876      2.185
REMARK INTER + INTRA:         -12.533
REMARK INTER:                 -11.206
REMARK INTRA:                  -1.327
REMARK UNBOUND:                -1.292
REMARK  Name = 
REMARK  7 active torsions:
REMARK  status: ('A' for Active; 'I' for Inactive)
REMARK    1  A    between atoms: C_2  and  C_4
REMARK    2  A    between atoms: C_7  and  O_8
REMARK    3  A    between atoms: O_8  and  C_9
REMARK    4  A    between atoms: C_9  and  C_10
REMARK    5  A    between atoms: C_14  and  C_15
REMARK    6  A    between atoms: C_19  and  O_20
REMARK    7  A    between atoms: O_20  and  C_21
REMARK                            x       y       z     vdW  Elec       q    Type
REMARK                         _______ _______ _______ _____ _____    ______ ____
ROOT
ATOM      1  C   UNL     1      45.047   4.785  12.080  0.00  0.00    +0.000 A 
ATOM      2  C   UNL     1      45.346   3.607  12.782  0.00  0.00    +0.000 A 
ATOM      3  C   UNL     1      46.514   3.480  13.529  0.00  0.00    +0.000 A 
ATOM      4  C   UNL     1      47.432   4.529  13.572  0.00  0.00    +0.000 A 
ATOM      5  C   UNL     1      47.194   5.724  12.876  0.00  0.00    +0.000 A 
ATOM      6  C   UNL     1      45.979   5.835  12.169  0.00  0.00    +0.000 A 
ENDROOT
BRANCH   5   7
ATOM      7  C   UNL     1      48.202   6.800  12.817  0.00  0.00    +0.000 A 
ATOM      8  C   UNL     1      48.399   7.555  11.660  0.00  0.00    +0.000 A 
ATOM      9  N   UNL     1      49.278   8.583  11.540  0.00  0.00    +0.000 NA
ATOM     10  C   UNL     1      49.987   8.895  12.643  0.00  0.00    +0.000 A 
ATOM     11  C   UNL     1      49.858   8.244  13.863  0.00  0.00    +0.000 A 
ATOM     12  C   UNL     1      48.977   7.163  13.932  0.00  0.00    +0.000 A 
BRANCH  11  13
ATOM     13  O   UNL     1      50.626   8.712  14.887  0.00  0.00    +0.000 OA
BRANCH  13  14
ATOM     14  C   UNL     1      51.028   7.735  15.835  0.00  0.00    +0.000 C 
ATOM     15  F   UNL     1      52.052   7.018  15.314  0.00  0.00    +0.000 F 
ATOM     16  F   UNL     1      51.520   8.396  16.912  0.00  0.00    +0.000 F 
ENDBRANCH  13  14
ENDBRANCH  11  13
ENDBRANCH   5   7
BRANCH   1  17
ATOM     17  C   UNL     1      43.807   4.893  11.200  0.00  0.00    +0.000 C 
ATOM     18  C   UNL     1      42.505   5.382  11.834  0.00  0.00    +0.000 C 
ATOM     19  C   UNL     1      43.258   6.274  10.907  0.00  0.00    +0.000 C 
BRANCH  17  20
ATOM     20  O   UNL     1      43.527   3.804  10.289  0.00  0.00    +0.000 OA
BRANCH  20  24
ATOM     21  C   UNL     1      46.424   2.654   7.591  0.00  0.00    +0.000 A 
ATOM     22  C   UNL     1      45.839   1.711   8.436  0.00  0.00    +0.000 A 
ATOM     23  C   UNL     1      44.857   2.125   9.335  0.00  0.00    +0.000 A 
ATOM     24  C   UNL     1      44.488   3.464   9.353  0.00  0.00    +0.000 A 
ATOM     25  N   UNL     1      45.019   4.395   8.532  0.00  0.00    +0.000 NA
ATOM     26  C   UNL     1      45.992   3.972   7.686  0.00  0.00    +0.000 A 
BRANCH  21  28
ATOM     27  N   UNL     1      47.541   3.021   5.461  0.00  0.00    +0.000 N 
ATOM     28  C   UNL     1      47.502   2.320   6.634  0.00  0.00    +0.000 C 
ATOM     29  O   UNL     1      48.342   1.470   6.892  0.00  0.00    +0.000 OA
ATOM     30  H   UNL     1      48.334   2.841   4.857  0.00  0.00    +0.000 HD
ATOM     31  H   UNL     1      47.033   3.881   5.315  0.00  0.00    +0.000 HD
ENDBRANCH  21  28
ENDBRANCH  20  24
ENDBRANCH  17  20
ENDBRANCH   1  17
TORSDOF 7
ENDMDL
MODEL 5
REMARK VINA RESULT:    -7.580      3.470      8.028
REMARK INTER + INTRA:         -11.974
REMARK INTER:                 -10.792
REMARK INTRA:                  -1.182
REMARK UNBOUND:                -1.292
REMARK  Name = 
REMARK  7 active torsions:
REMARK  status: ('A' for Active; 'I' for Inactive)
REMARK    1  A    between atoms: C_2  and  C_4
REMARK    2  A    between atoms: C_7  and  O_8
REMARK    3  A    between atoms: O_8  and  C_9
REMARK    4  A    between atoms: C_9  and  C_10
REMARK    5  A    between atoms: C_14  and  C_15
REMARK    6  A    between atoms: C_19  and  O_20
REMARK    7  A    between atoms: O_20  and  C_21
REMARK                            x       y       z     vdW  Elec       q    Type
REMARK                         _______ _______ _______ _____ _____    ______ ____
ROOT
ATOM      1  C   UNL     1      47.303   7.767  12.354  0.00  0.00    +0.000 A 
ATOM      2  C   UNL     1      46.309   8.736  12.567  0.00  0.00    +0.000 A 
ATOM      3  C   UNL     1      44.990   8.526  12.171  0.00  0.00    +0.000 A 
ATOM      4  C   UNL     1      44.636   7.343  11.525  0.00  0.00    +0.000 A 
ATOM      5  C   UNL     1      45.590   6.346  11.271  0.00  0.00    +0.000 A 
ATOM      6  C   UNL     1      46.905   6.572  11.727  0.00  0.00    +0.000 A 
ENDROOT
BRANCH   5   7
ATOM      7  C   UNL     1      45.261   5.138  10.490  0.00  0.00    +0.000 A 
ATOM      8  C   UNL     1      44.495   4.104  11.032  0.00  0.00    +0.000 A 
ATOM      9  N   UNL     1      44.119   2.981  10.367  0.00  0.00    +0.000 NA
ATOM     10  C   UNL     1      44.509   2.891   9.080  0.00  0.00    +0.000 A 
ATOM     11  C   UNL     1      45.243   3.866   8.416  0.00  0.00    +0.000 A 
ATOM     12  C   UNL     1      45.648   4.984   9.148  0.00  0.00    +0.000 A 
BRANCH  11  13
ATOM     13  O   UNL     1      45.521   3.630   7.103  0.00  0.00    +0.000 OA
BRANCH  13  14
ATOM     14  C   UNL     1      46.883   3.350   6.816  0.00  0.00    +0.000 C 
ATOM     15  F   UNL     1      47.247   2.230   7.485  0.00  0.00    +0.000 F 
ATOM     16  F   UNL     1      46.965   3.062   5.493  0.00  0.00    +0.000 F 
ENDBRANCH  13  14
ENDBRANCH  11  13
ENDBRANCH   5   7
BRANCH   1  17
ATOM     17  C   UNL     1      48.759   8.031  12.717  0.00  0.00    +0.000 C 
ATOM     18  C   UNL     1      49.666   8.672  11.666  0.00  0.00    +0.000 C 
ATOM     19  C   UNL     1      49.213   9.471  12.840  0.00  0.00    +0.000 C 
BRANCH  17  20
ATOM     20  O   UNL     1      49.482   6.991  13.416  0.00  0.00    +0.000 OA
BRANCH  20  24
ATOM     21  C   UNL     1      48.312   5.974  17.236  0.00  0.00    +0.000 A 
ATOM     22  C   UNL     1      49.064   7.128  17.017  0.00  0.00    +0.000 A 
ATOM     23  C   UNL     1      49.442   7.452  15.714  0.00  0.00    +0.000 A 
ATOM     24  C   UNL     1      49.047   6.618  14.676  0.00  0.00    +0.000 A 
ATOM     25  N   UNL     1      48.299   5.508  14.854  0.00  0.00    +0.000 NA
ATOM     26  C   UNL     1      47.969   5.200  16.134  0.00  0.00    +0.000 A 
BRANCH  21  28
ATOM     27  N   UNL     1      46.565   5.571  18.881  0.00  0.00    +0.000 N 
ATOM     28  C   UNL     1      47.899   5.525  18.583  0.00  0.00    +0.000 C 
ATOM     29  O   UNL     1      48.714   5.103  19.392  0.00  0.00    +0.000 OA
ATOM     30  H   UNL     1      46.291   5.178  19.774  0.00  0.00    +0.000 HD
ATOM     31  H   UNL     1      45.847   5.673  18.179  0.00  0.00    +0.000 HD
ENDBRANCH  21  28
ENDBRANCH  20  24
ENDBRANCH  17  20
ENDBRANCH   1  17
TORSDOF 7
ENDMDL
MODEL 6
REMARK VINA RESULT:    -7.332      3.640      4.522
REMARK INTER + INTRA:         -11.625
REMARK INTER:                 -11.853
REMARK INTRA:                   0.228
REMARK UNBOUND:                -1.292
REMARK  Name = 
REMARK  7 active torsions:
REMARK  status: ('A' for Active; 'I' for Inactive)
REMARK    1  A    between atoms: C_2  and  C_4
REMARK    2  A    between atoms: C_7  and  O_8
REMARK    3  A    between atoms: O_8  and  C_9
REMARK    4  A    between atoms: C_9  and  C_10
REMARK    5  A    between atoms: C_14  and  C_15
REMARK    6  A    between atoms: C_19  and  O_20
REMARK    7  A    between atoms: O_20  and  C_21
REMARK                            x       y       z     vdW  Elec       q    Type
REMARK                         _______ _______ _______ _____ _____    ______ ____
ROOT
ATOM      1  C   UNL     1      45.572   5.369  11.938  0.00  0.00    +0.000 A 
ATOM      2  C   UNL     1      45.985   6.353  11.026  0.00  0.00    +0.000 A 
ATOM      3  C   UNL     1      47.092   7.160  11.276  0.00  0.00    +0.000 A 
ATOM      4  C   UNL     1      47.805   7.017  12.465  0.00  0.00    +0.000 A 
ATOM      5  C   UNL     1      47.428   6.061  13.421  0.00  0.00    +0.000 A 
ATOM      6  C   UNL     1      46.331   5.230  13.114  0.00  0.00    +0.000 A 
ENDROOT
BRANCH   5   7
ATOM      7  C   UNL     1      48.099   5.970  14.733  0.00  0.00    +0.000 A 
ATOM      8  C   UNL     1      49.163   6.808  15.070  0.00  0.00    +0.000 A 
ATOM      9  N   UNL     1      49.805   6.810  16.266  0.00  0.00    +0.000 NA
ATOM     10  C   UNL     1      49.348   5.943  17.191  0.00  0.00    +0.000 A 
ATOM     11  C   UNL     1      48.276   5.082  16.991  0.00  0.00    +0.000 A 
ATOM     12  C   UNL     1      47.673   5.078  15.732  0.00  0.00    +0.000 A 
BRANCH  11  13
ATOM     13  O   UNL     1      47.921   4.296  18.046  0.00  0.00    +0.000 OA
BRANCH  13  14
ATOM     14  C   UNL     1      48.425   4.714  19.306  0.00  0.00    +0.000 C 
ATOM     15  F   UNL     1      47.497   5.494  19.909  0.00  0.00    +0.000 F 
ATOM     16  F   UNL     1      48.564   3.604  20.073  0.00  0.00    +0.000 F 
ENDBRANCH  13  14
ENDBRANCH  11  13
ENDBRANCH   5   7
BRANCH   1  17
ATOM     17  C   UNL     1      44.314   4.542  11.698  0.00  0.00    +0.000 C 
ATOM     18  C   UNL     1      44.118   3.263  12.513  0.00  0.00    +0.000 C 
ATOM     19  C   UNL     1      43.288   4.466  12.811  0.00  0.00    +0.000 C 
BRANCH  17  20
ATOM     20  O   UNL     1      43.903   4.317  10.329  0.00  0.00    +0.000 OA
BRANCH  20  24
ATOM     21  C   UNL     1      46.468   2.435   7.707  0.00  0.00    +0.000 A 
ATOM     22  C   UNL     1      46.332   3.823   7.681  0.00  0.00    +0.000 A 
ATOM     23  C   UNL     1      45.462   4.435   8.582  0.00  0.00    +0.000 A 
ATOM     24  C   UNL     1      44.766   3.640   9.485  0.00  0.00    +0.000 A 
ATOM     25  N   UNL     1      44.894   2.298   9.550  0.00  0.00    +0.000 NA
ATOM     26  C   UNL     1      45.726   1.724   8.643  0.00  0.00    +0.000 A 
BRANCH  21  28
ATOM     27  N   UNL     1      48.345   2.384   6.160  0.00  0.00    +0.000 N 
ATOM     28  C   UNL     1      47.333   1.692   6.765  0.00  0.00    +0.000 C 
ATOM     29  O   UNL     1      47.168   0.498   6.555  0.00  0.00    +0.000 OA
ATOM     30  H   UNL     1      48.980   1.841   5.587  0.00  0.00    +0.000 HD
ATOM     31  H   UNL     1      48.667   3.285   6.483  0.00  0.00    +0.000 HD
ENDBRANCH  21  28
ENDBRANCH  20  24
ENDBRANCH  17  20
ENDBRANCH   1  17
TORSDOF 7
ENDMDL
MODEL 7
REMARK VINA RESULT:    -6.825      3.593      8.586
REMARK INTER + INTRA:         -10.910
REMARK INTER:                  -9.691
REMARK INTRA:                  -1.219
REMARK UNBOUND:                -1.292
REMARK  Name = 
REMARK  7 active torsions:
REMARK  status: ('A' for Active; 'I' for Inactive)
REMARK    1  A    between atoms: C_2  and  C_4
REMARK    2  A    between atoms: C_7  and  O_8
REMARK    3  A    between atoms: O_8  and  C_9
REMARK    4  A    between atoms: C_9  and  C_10
REMARK    5  A    between atoms: C_14  and  C_15
REMARK    6  A    between atoms: C_19  and  O_20
REMARK    7  A    between atoms: O_20  and  C_21
REMARK                            x       y       z     vdW  Elec       q    Type
REMARK                         _______ _______ _______ _____ _____    ______ ____
ROOT
ATOM      1  C   UNL     1      47.684   7.777  12.501  0.00  0.00    +0.000 A 
ATOM      2  C   UNL     1      46.947   8.952  12.287  0.00  0.00    +0.000 A 
ATOM      3  C   UNL     1      45.576   8.920  12.042  0.00  0.00    +0.000 A 
ATOM      4  C   UNL     1      44.908   7.698  11.979  0.00  0.00    +0.000 A 
ATOM      5  C   UNL     1      45.596   6.489  12.167  0.00  0.00    +0.000 A 
ATOM      6  C   UNL     1      46.974   6.563  12.460  0.00  0.00    +0.000 A 
ENDROOT
BRANCH   5   7
ATOM      7  C   UNL     1      44.931   5.183  11.993  0.00  0.00    +0.000 A 
ATOM      8  C   UNL     1      44.231   4.575  13.037  0.00  0.00    +0.000 A 
ATOM      9  N   UNL     1      43.564   3.396  12.944  0.00  0.00    +0.000 NA
ATOM     10  C   UNL     1      43.573   2.797  11.737  0.00  0.00    +0.000 A 
ATOM     11  C   UNL     1      44.202   3.318  10.612  0.00  0.00    +0.000 A 
ATOM     12  C   UNL     1      44.916   4.508  10.761  0.00  0.00    +0.000 A 
BRANCH  11  13
ATOM     13  O   UNL     1      44.081   2.600   9.460  0.00  0.00    +0.000 OA
BRANCH  13  14
ATOM     14  C   UNL     1      45.306   2.273   8.822  0.00  0.00    +0.000 C 
ATOM     15  F   UNL     1      45.340   0.937   8.601  0.00  0.00    +0.000 F 
ATOM     16  F   UNL     1      45.299   2.872   7.605  0.00  0.00    +0.000 F 
ENDBRANCH  13  14
ENDBRANCH  11  13
ENDBRANCH   5   7
BRANCH   1  17
ATOM     17  C   UNL     1      49.195   7.810  12.690  0.00  0.00    +0.000 C 
ATOM     18  C   UNL     1      50.087   7.667  11.456  0.00  0.00    +0.000 C 
ATOM     19  C   UNL     1      49.958   8.992  12.128  0.00  0.00    +0.000 C 
BRANCH  17  20
ATOM     20  O   UNL     1      49.757   7.052  13.787  0.00  0.00    +0.000 OA
BRANCH  20  24
ATOM     21  C   UNL     1      48.509   7.841  17.636  0.00  0.00    +0.000 A 
ATOM     22  C   UNL     1      48.624   6.524  17.193  0.00  0.00    +0.000 A 
ATOM     23  C   UNL     1      49.054   6.284  15.888  0.00  0.00    +0.000 A 
ATOM     24  C   UNL     1      49.363   7.368  15.076  0.00  0.00    +0.000 A 
ATOM     25  N   UNL     1      49.284   8.652  15.484  0.00  0.00    +0.000 NA
ATOM     26  C   UNL     1      48.836   8.860  16.749  0.00  0.00    +0.000 A 
BRANCH  21  28
ATOM     27  N   UNL     1      48.612   7.575  20.053  0.00  0.00    +0.000 N 
ATOM     28  C   UNL     1      48.022   8.197  18.987  0.00  0.00    +0.000 C 
ATOM     29  O   UNL     1      47.147   9.035  19.149  0.00  0.00    +0.000 OA
ATOM     30  H   UNL     1      48.328   7.893  20.972  0.00  0.00    +0.000 HD
ATOM     31  H   UNL     1      49.486   7.074  19.985  0.00  0.00    +0.000 HD
ENDBRANCH  21  28
ENDBRANCH  20  24
ENDBRANCH  17  20
ENDBRANCH   1  17
TORSDOF 7
ENDMDL
MODEL 8
REMARK VINA RESULT:    -6.639      4.519      8.431
REMARK INTER + INTRA:         -10.648
REMARK INTER:                  -9.203
REMARK INTRA:                  -1.444
REMARK UNBOUND:                -1.292
REMARK  Name = 
REMARK  7 active torsions:
REMARK  status: ('A' for Active; 'I' for Inactive)
REMARK    1  A    between atoms: C_2  and  C_4
REMARK    2  A    between atoms: C_7  and  O_8
REMARK    3  A    between atoms: O_8  and  C_9
REMARK    4  A    between atoms: C_9  and  C_10
REMARK    5  A    between atoms: C_14  and  C_15
REMARK    6  A    between atoms: C_19  and  O_20
REMARK    7  A    between atoms: O_20  and  C_21
REMARK                            x       y       z     vdW  Elec       q    Type
REMARK                         _______ _______ _______ _____ _____    ______ ____
ROOT
ATOM      1  C   UNL     1      49.300   8.139  15.730  0.00  0.00    +0.000 A 
ATOM      2  C   UNL     1      50.525   8.348  15.078  0.00  0.00    +0.000 A 
ATOM      3  C   UNL     1      50.701   8.026  13.735  0.00  0.00    +0.000 A 
ATOM      4  C   UNL     1      49.653   7.459  13.011  0.00  0.00    +0.000 A 
ATOM      5  C   UNL     1      48.411   7.211  13.615  0.00  0.00    +0.000 A 
ATOM      6  C   UNL     1      48.254   7.594  14.963  0.00  0.00    +0.000 A 
ENDROOT
BRANCH   5   7
ATOM      7  C   UNL     1      47.326   6.510  12.900  0.00  0.00    +0.000 A 
ATOM      8  C   UNL     1      46.890   6.930  11.642  0.00  0.00    +0.000 A 
ATOM      9  N   UNL     1      45.927   6.316  10.907  0.00  0.00    +0.000 NA
ATOM     10  C   UNL     1      45.381   5.207  11.444  0.00  0.00    +0.000 A 
ATOM     11  C   UNL     1      45.754   4.669  12.669  0.00  0.00    +0.000 A 
ATOM     12  C   UNL     1      46.714   5.354  13.414  0.00  0.00    +0.000 A 
BRANCH  11  13
ATOM     13  O   UNL     1      45.124   3.520  13.046  0.00  0.00    +0.000 OA
BRANCH  13  14
ATOM     14  C   UNL     1      43.774   3.406  12.625  0.00  0.00    +0.000 C 
ATOM     15  F   UNL     1      43.424   2.097  12.633  0.00  0.00    +0.000 F 
ATOM     16  F   UNL     1      43.007   4.023  13.558  0.00  0.00    +0.000 F 
ENDBRANCH  13  14
ENDBRANCH  11  13
ENDBRANCH   5   7
BRANCH   1  17
ATOM     17  C   UNL     1      49.135   8.419  17.219  0.00  0.00    +0.000 C 
ATOM     18  C   UNL     1      49.197   9.869  17.699  0.00  0.00    +0.000 C 
ATOM     19  C   UNL     1      47.890   9.153  17.673  0.00  0.00    +0.000 C 
BRANCH  17  20
ATOM     20  O   UNL     1      49.843   7.567  18.150  0.00  0.00    +0.000 OA
BRANCH  20  24
ATOM     21  C   UNL     1      50.105   3.534  17.336  0.00  0.00    +0.000 A 
ATOM     22  C   UNL     1      51.260   4.312  17.403  0.00  0.00    +0.000 A 
ATOM     23  C   UNL     1      51.144   5.673  17.686  0.00  0.00    +0.000 A 
ATOM     24  C   UNL     1      49.879   6.206  17.902  0.00  0.00    +0.000 A 
ATOM     25  N   UNL     1      48.746   5.474  17.867  0.00  0.00    +0.000 NA
ATOM     26  C   UNL     1      48.883   4.158  17.562  0.00  0.00    +0.000 A 
BRANCH  21  28
ATOM     27  N   UNL     1      50.957   1.289  17.726  0.00  0.00    +0.000 N 
ATOM     28  C   UNL     1      50.122   2.093  17.002  0.00  0.00    +0.000 C 
ATOM     29  O   UNL     1      49.397   1.632  16.131  0.00  0.00    +0.000 OA
ATOM     30  H   UNL     1      50.892   0.295  17.544  0.00  0.00    +0.000 HD
ATOM     31  H   UNL     1      51.378   1.574  18.598  0.00  0.00    +0.000 HD
ENDBRANCH  21  28
ENDBRANCH  20  24
ENDBRANCH  17  20
ENDBRANCH   1  17
TORSDOF 7
ENDMDL
MODEL 9
REMARK VINA RESULT:    -6.383      2.921      3.675
REMARK INTER + INTRA:         -10.287
REMARK INTER:                  -9.471
REMARK INTRA:                  -0.817
REMARK UNBOUND:                -1.292
REMARK  Name = 
REMARK  7 active torsions:
REMARK  status: ('A' for Active; 'I' for Inactive)
REMARK    1  A    between atoms: C_2  and  C_4
REMARK    2  A    between atoms: C_7  and  O_8
REMARK    3  A    between atoms: O_8  and  C_9
REMARK    4  A    between atoms: C_9  and  C_10
REMARK    5  A    between atoms: C_14  and  C_15
REMARK    6  A    between atoms: C_19  and  O_20
REMARK    7  A    between atoms: O_20  and  C_21
REMARK                            x       y       z     vdW  Elec       q    Type
REMARK                         _______ _______ _______ _____ _____    ______ ____
ROOT
ATOM      1  C   UNL     1      44.898   6.508  12.008  0.00  0.00    +0.000 A 
ATOM      2  C   UNL     1      44.593   7.774  11.483  0.00  0.00    +0.000 A 
ATOM      3  C   UNL     1      45.421   8.873  11.700  0.00  0.00    +0.000 A 
ATOM      4  C   UNL     1      46.571   8.736  12.477  0.00  0.00    +0.000 A 
ATOM      5  C   UNL     1      46.917   7.499  13.042  0.00  0.00    +0.000 A 
ATOM      6  C   UNL     1      46.081   6.398  12.761  0.00  0.00    +0.000 A 
ENDROOT
BRANCH   5   7
ATOM      7  C   UNL     1      48.066   7.358  13.957  0.00  0.00    +0.000 A 
ATOM      8  C   UNL     1      49.053   8.341  14.048  0.00  0.00    +0.000 A 
ATOM      9  N   UNL     1      50.117   8.302  14.890  0.00  0.00    +0.000 NA
ATOM     10  C   UNL     1      50.193   7.233  15.707  0.00  0.00    +0.000 A 
ATOM     11  C   UNL     1      49.257   6.207  15.739  0.00  0.00    +0.000 A 
ATOM     12  C   UNL     1      48.203   6.262  14.825  0.00  0.00    +0.000 A 
BRANCH  11  13
ATOM     13  O   UNL     1      49.468   5.219  16.654  0.00  0.00    +0.000 OA
BRANCH  13  14
ATOM     14  C   UNL     1      50.589   5.411  17.501  0.00  0.00    +0.000 C 
ATOM     15  F   UNL     1      50.285   4.950  18.738  0.00  0.00    +0.000 F 
ATOM     16  F   UNL     1      51.592   4.630  17.027  0.00  0.00    +0.000 F 
ENDBRANCH  13  14
ENDBRANCH  11  13
ENDBRANCH   5   7
BRANCH   1  17
ATOM     17  C   UNL     1      43.950   5.328  11.834  0.00  0.00    +0.000 C 
ATOM     18  C   UNL     1      42.778   5.185  12.805  0.00  0.00    +0.000 C 
ATOM     19  C   UNL     1      42.527   5.613  11.399  0.00  0.00    +0.000 C 
BRANCH  17  20
ATOM     20  O   UNL     1      44.530   4.027  11.576  0.00  0.00    +0.000 OA
BRANCH  20  24
ATOM     21  C   UNL     1      46.102   3.113   7.877  0.00  0.00    +0.000 A 
ATOM     22  C   UNL     1      45.592   2.102   8.691  0.00  0.00    +0.000 A 
ATOM     23  C   UNL     1      45.061   2.439   9.935  0.00  0.00    +0.000 A 
ATOM     24  C   UNL     1      45.049   3.774  10.318  0.00  0.00    +0.000 A 
ATOM     25  N   UNL     1      45.513   4.777   9.543  0.00  0.00    +0.000 NA
ATOM     26  C   UNL     1      46.051   4.419   8.348  0.00  0.00    +0.000 A 
BRANCH  21  28
ATOM     27  N   UNL     1      47.627   1.827   6.483  0.00  0.00    +0.000 N 
ATOM     28  C   UNL     1      46.724   2.851   6.560  0.00  0.00    +0.000 C 
ATOM     29  O   UNL     1      46.422   3.504   5.571  0.00  0.00    +0.000 OA
ATOM     30  H   UNL     1      47.976   1.605   5.558  0.00  0.00    +0.000 HD
ATOM     31  H   UNL     1      47.719   1.118   7.195  0.00  0.00    +0.000 HD
ENDBRANCH  21  28
ENDBRANCH  20  24
ENDBRANCH  17  20
ENDBRANCH   1  17
TORSDOF 7
ENDMDL
