MODEL 1
REMARK VINA RESULT:    -7.773      0.000      0.000
REMARK INTER + INTRA:         -11.031
REMARK INTER:                 -10.045
REMARK INTRA:                  -0.986
REMARK UNBOUND:                -0.986
REMARK  Name = 
REMARK  6 active torsions:
REMARK  status: ('A' for Active; 'I' for Inactive)
REMARK    1  A    between atoms: C_1  and  C_2
REMARK    2  A    between atoms: N_6  and  C_7
REMARK    3  A    between atoms: C_7  and  C_8
REMARK    4  A    between atoms: C_11  and  O_12
REMARK    5  A    between atoms: O_12  and  C_13
REMARK    6  A    between atoms: C_22  and  C_23
REMARK                            x       y       z     vdW  Elec       q    Type
REMARK                         _______ _______ _______ _____ _____    ______ ____
ROOT
ATOM      1  C   UNL     1      48.874   5.859  16.125  0.00  0.00    +0.000 C 
ATOM      2  C   UNL     1      47.888   5.847  15.004  0.00  0.00    +0.000 A 
ATOM      3  C   UNL     1      47.177   4.715  14.673  0.00  0.00    +0.000 A 
ATOM      4  N   UNL     1      46.216   4.668  13.724  0.00  0.00    +0.000 NA
ATOM      5  C   UNL     1      45.944   5.802  13.072  0.00  0.00    +0.000 A 
ATOM      6  N   UNL     1      44.876   5.937  12.190  0.00  0.00    +0.000 N 
ATOM      7  N   UNL     1      46.610   6.942  13.269  0.00  0.00    +0.000 NA
ATOM      8  C   UNL     1      47.569   6.945  14.232  0.00  0.00    +0.000 A 
ATOM      9  H   UNL     1      44.966   6.832  11.730  0.00  0.00    +0.000 HD
ENDROOT
BRANCH   8  10
ATOM     10  C   UNL     1      48.247   8.280  14.393  0.00  0.00    +0.000 C 
ATOM     11  N   UNL     1      47.558   9.193  15.149  0.00  0.00    +0.000 N 
ATOM     12  O   UNL     1      49.330   8.569  13.895  0.00  0.00    +0.000 OA
ATOM     13  H   UNL     1      46.660   8.938  15.541  0.00  0.00    +0.000 HD
ATOM     14  H   UNL     1      47.941  10.111  15.301  0.00  0.00    +0.000 HD
ENDBRANCH   8  10
BRANCH   6  15
ATOM     15  C   UNL     1      44.194   4.863  11.484  0.00  0.00    +0.000 C 
ATOM     16  C   UNL     1      42.684   5.052  11.385  0.00  0.00    +0.000 C 
ATOM     17  C   UNL     1      43.228   3.867  12.101  0.00  0.00    +0.000 C 
BRANCH  15  18
ATOM     18  C   UNL     1      44.963   4.296  10.296  0.00  0.00    +0.000 A 
ATOM     19  C   UNL     1      44.840   2.935   9.970  0.00  0.00    +0.000 A 
ATOM     20  C   UNL     1      45.254   2.445   8.731  0.00  0.00    +0.000 A 
ATOM     21  C   UNL     1      45.775   3.320   7.785  0.00  0.00    +0.000 A 
ATOM     22  C   UNL     1      46.080   4.629   8.160  0.00  0.00    +0.000 A 
ATOM     23  C   UNL     1      45.688   5.109   9.411  0.00  0.00    +0.000 A 
BRANCH  21  24
ATOM     24  O   UNL     1      46.042   2.987   6.493  0.00  0.00    +0.000 OA
BRANCH  24  25
ATOM     25  C   UNL     1      47.243   2.260   6.245  0.00  0.00    +0.000 C 
ATOM     26  F   UNL     1      48.263   2.537   7.086  0.00  0.00    +0.000 F 
ATOM     27  F   UNL     1      46.983   0.935   6.343  0.00  0.00    +0.000 F 
ATOM     28  F   UNL     1      47.652   2.512   4.982  0.00  0.00    +0.000 F 
ENDBRANCH  24  25
ENDBRANCH  21  24
ENDBRANCH  15  18
ENDBRANCH   6  15
TORSDOF 5
ENDMDL
MODEL 2
REMARK VINA RESULT:    -7.645      1.793      2.253
REMARK INTER + INTRA:         -10.866
REMARK INTER:                 -10.628
REMARK INTRA:                  -0.238
REMARK UNBOUND:                -0.986
REMARK  Name = 
REMARK  6 active torsions:
REMARK  status: ('A' for Active; 'I' for Inactive)
REMARK    1  A    between atoms: C_1  and  C_2
REMARK    2  A    between atoms: N_6  and  C_7
REMARK    3  A    between atoms: C_7  and  C_8
REMARK    4  A    between atoms: C_11  and  O_12
REMARK    5  A    between atoms: O_12  and  C_13
REMARK    6  A    between atoms: C_22  and  C_23
REMARK                            x       y       z     vdW  Elec       q    Type
REMARK                         _______ _______ _______ _____ _____    ______ ____
ROOT
ATOM      1  C   UNL     1      49.468   6.423  15.894  0.00  0.00    +0.000 C 
ATOM      2  C   UNL     1      48.257   5.860  15.228  0.00  0.00    +0.000 A 
ATOM      3  C   UNL     1      47.864   6.263  13.971  0.00  0.00    +0.000 A 
ATOM      4  N   UNL     1      46.826   5.731  13.289  0.00  0.00    +0.000 NA
ATOM      5  C   UNL     1      46.143   4.748  13.883  0.00  0.00    +0.000 A 
ATOM      6  N   UNL     1      45.160   4.004  13.237  0.00  0.00    +0.000 N 
ATOM      7  N   UNL     1      46.398   4.318  15.121  0.00  0.00    +0.000 NA
ATOM      8  C   UNL     1      47.451   4.881  15.771  0.00  0.00    +0.000 A 
ATOM      9  H   UNL     1      44.706   3.425  13.929  0.00  0.00    +0.000 HD
ENDROOT
BRANCH   8  10
ATOM     10  C   UNL     1      47.670   4.317  17.151  0.00  0.00    +0.000 C 
ATOM     11  N   UNL     1      46.953   4.927  18.147  0.00  0.00    +0.000 N 
ATOM     12  O   UNL     1      48.429   3.388  17.404  0.00  0.00    +0.000 OA
ATOM     13  H   UNL     1      46.340   5.700  17.918  0.00  0.00    +0.000 HD
ATOM     14  H   UNL     1      47.046   4.612  19.099  0.00  0.00    +0.000 HD
ENDBRANCH   8  10
BRANCH   6  15
ATOM     15  C   UNL     1      44.397   4.408  12.067  0.00  0.00    +0.000 C 
ATOM     16  C   UNL     1      43.687   5.749  12.227  0.00  0.00    +0.000 C 
ATOM     17  C   UNL     1      42.885   4.519  11.986  0.00  0.00    +0.000 C 
BRANCH  15  18
ATOM     18  C   UNL     1      45.044   4.052  10.733  0.00  0.00    +0.000 A 
ATOM     19  C   UNL     1      44.977   2.733  10.254  0.00  0.00    +0.000 A 
ATOM     20  C   UNL     1      45.260   2.429   8.922  0.00  0.00    +0.000 A 
ATOM     21  C   UNL     1      45.593   3.451   8.039  0.00  0.00    +0.000 A 
ATOM     22  C   UNL     1      45.850   4.728   8.538  0.00  0.00    +0.000 A 
ATOM     23  C   UNL     1      45.590   5.022   9.878  0.00  0.00    +0.000 A 
BRANCH  21  24
ATOM     24  O   UNL     1      45.714   3.295   6.693  0.00  0.00    +0.000 OA
BRANCH  24  25
ATOM     25  C   UNL     1      46.921   2.708   6.213  0.00  0.00    +0.000 C 
ATOM     26  F   UNL     1      48.028   3.016   6.924  0.00  0.00    +0.000 F 
ATOM     27  F   UNL     1      46.790   1.361   6.225  0.00  0.00    +0.000 F 
ATOM     28  F   UNL     1      47.115   3.096   4.933  0.00  0.00    +0.000 F 
ENDBRANCH  24  25
ENDBRANCH  21  24
ENDBRANCH  15  18
ENDBRANCH   6  15
TORSDOF 5
ENDMDL
MODEL 3
REMARK VINA RESULT:    -7.169      2.565      3.328
REMARK INTER + INTRA:         -10.250
REMARK INTER:                  -9.737
REMARK INTRA:                  -0.514
REMARK UNBOUND:                -0.986
REMARK  Name = 
REMARK  6 active torsions:
REMARK  status: ('A' for Active; 'I' for Inactive)
REMARK    1  A    between atoms: C_1  and  C_2
REMARK    2  A    between atoms: N_6  and  C_7
REMARK    3  A    between atoms: C_7  and  C_8
REMARK    4  A    between atoms: C_11  and  O_12
REMARK    5  A    between atoms: O_12  and  C_13
REMARK    6  A    between atoms: C_22  and  C_23
REMARK                            x       y       z     vdW  Elec       q    Type
REMARK                         _______ _______ _______ _____ _____    ______ ____
ROOT
ATOM      1  C   UNL     1      46.817  10.186  12.180  0.00  0.00    +0.000 C 
ATOM      2  C   UNL     1      46.099   8.904  11.917  0.00  0.00    +0.000 A 
ATOM      3  C   UNL     1      46.683   7.680  12.158  0.00  0.00    +0.000 A 
ATOM      4  N   UNL     1      46.053   6.493  12.015  0.00  0.00    +0.000 NA
ATOM      5  C   UNL     1      44.779   6.521  11.614  0.00  0.00    +0.000 A 
ATOM      6  N   UNL     1      43.966   5.392  11.581  0.00  0.00    +0.000 N 
ATOM      7  N   UNL     1      44.132   7.644  11.295  0.00  0.00    +0.000 NA
ATOM      8  C   UNL     1      44.803   8.816  11.453  0.00  0.00    +0.000 A 
ATOM      9  H   UNL     1      43.104   5.646  11.118  0.00  0.00    +0.000 HD
ENDROOT
BRANCH   8  10
ATOM     10  C   UNL     1      43.983  10.025  11.088  0.00  0.00    +0.000 C 
ATOM     11  N   UNL     1      43.343  10.630  12.138  0.00  0.00    +0.000 N 
ATOM     12  O   UNL     1      43.866  10.462   9.948  0.00  0.00    +0.000 OA
ATOM     13  H   UNL     1      43.444  10.247  13.070  0.00  0.00    +0.000 HD
ATOM     14  H   UNL     1      42.771  11.443  11.978  0.00  0.00    +0.000 HD
ENDBRANCH   8  10
BRANCH   6  15
ATOM     15  C   UNL     1      44.407   4.008  11.508  0.00  0.00    +0.000 C 
ATOM     16  C   UNL     1      43.785   3.106  12.570  0.00  0.00    +0.000 C 
ATOM     17  C   UNL     1      45.261   3.292  12.540  0.00  0.00    +0.000 C 
BRANCH  15  18
ATOM     18  C   UNL     1      44.608   3.479  10.092  0.00  0.00    +0.000 A 
ATOM     19  C   UNL     1      44.569   4.367   9.003  0.00  0.00    +0.000 A 
ATOM     20  C   UNL     1      45.057   3.999   7.749  0.00  0.00    +0.000 A 
ATOM     21  C   UNL     1      45.619   2.739   7.573  0.00  0.00    +0.000 A 
ATOM     22  C   UNL     1      45.492   1.786   8.584  0.00  0.00    +0.000 A 
ATOM     23  C   UNL     1      44.978   2.151   9.830  0.00  0.00    +0.000 A 
BRANCH  21  24
ATOM     24  O   UNL     1      46.281   2.342   6.453  0.00  0.00    +0.000 OA
BRANCH  24  25
ATOM     25  C   UNL     1      47.695   2.190   6.553  0.00  0.00    +0.000 C 
ATOM     26  F   UNL     1      48.105   1.123   7.273  0.00  0.00    +0.000 F 
ATOM     27  F   UNL     1      48.214   2.066   5.309  0.00  0.00    +0.000 F 
ATOM     28  F   UNL     1      48.214   3.306   7.112  0.00  0.00    +0.000 F 
ENDBRANCH  24  25
ENDBRANCH  21  24
ENDBRANCH  15  18
ENDBRANCH   6  15
TORSDOF 5
ENDMDL
MODEL 4
REMARK VINA RESULT:    -6.927      1.404      2.163
REMARK INTER + INTRA:          -9.938
REMARK INTER:                 -10.390
REMARK INTRA:                   0.452
REMARK UNBOUND:                -0.986
REMARK  Name = 
REMARK  6 active torsions:
REMARK  status: ('A' for Active; 'I' for Inactive)
REMARK    1  A    between atoms: C_1  and  C_2
REMARK    2  A    between atoms: N_6  and  C_7
REMARK    3  A    between atoms: C_7  and  C_8
REMARK    4  A    between atoms: C_11  and  O_12
REMARK    5  A    between atoms: O_12  and  C_13
REMARK    6  A    between atoms: C_22  and  C_23
REMARK                            x       y       z     vdW  Elec       q    Type
REMARK                         _______ _______ _______ _____ _____    ______ ____
ROOT
ATOM      1  C   UNL     1      49.897   8.235  12.615  0.00  0.00    +0.000 C 
ATOM      2  C   UNL     1      48.598   7.500  12.604  0.00  0.00    +0.000 A 
ATOM      3  C   UNL     1      47.849   7.364  11.456  0.00  0.00    +0.000 A 
ATOM      4  N   UNL     1      46.709   6.643  11.371  0.00  0.00    +0.000 NA
ATOM      5  C   UNL     1      46.292   6.023  12.478  0.00  0.00    +0.000 A 
ATOM      6  N   UNL     1      45.231   5.122  12.494  0.00  0.00    +0.000 N 
ATOM      7  N   UNL     1      46.906   6.133  13.659  0.00  0.00    +0.000 NA
ATOM      8  C   UNL     1      48.048   6.868  13.700  0.00  0.00    +0.000 A 
ATOM      9  H   UNL     1      45.029   4.900  13.459  0.00  0.00    +0.000 HD
ENDROOT
BRANCH   8  10
ATOM     10  C   UNL     1      48.677   6.915  15.068  0.00  0.00    +0.000 C 
ATOM     11  N   UNL     1      48.253   7.946  15.866  0.00  0.00    +0.000 N 
ATOM     12  O   UNL     1      49.514   6.115  15.472  0.00  0.00    +0.000 OA
ATOM     13  H   UNL     1      47.570   8.604  15.509  0.00  0.00    +0.000 HD
ATOM     14  H   UNL     1      48.628   8.051  16.794  0.00  0.00    +0.000 HD
ENDBRANCH   8  10
BRANCH   6  15
ATOM     15  C   UNL     1      44.151   5.039  11.525  0.00  0.00    +0.000 C 
ATOM     16  C   UNL     1      43.364   6.336  11.367  0.00  0.00    +0.000 C 
ATOM     17  C   UNL     1      42.667   5.111  11.840  0.00  0.00    +0.000 C 
BRANCH  15  18
ATOM     18  C   UNL     1      44.462   4.191  10.297  0.00  0.00    +0.000 A 
ATOM     19  C   UNL     1      45.124   4.768   9.200  0.00  0.00    +0.000 A 
ATOM     20  C   UNL     1      45.709   3.980   8.209  0.00  0.00    +0.000 A 
ATOM     21  C   UNL     1      45.664   2.595   8.316  0.00  0.00    +0.000 A 
ATOM     22  C   UNL     1      44.853   2.011   9.289  0.00  0.00    +0.000 A 
ATOM     23  C   UNL     1      44.246   2.805  10.264  0.00  0.00    +0.000 A 
BRANCH  21  24
ATOM     24  O   UNL     1      46.348   1.738   7.510  0.00  0.00    +0.000 OA
BRANCH  24  25
ATOM     25  C   UNL     1      47.201   2.315   6.524  0.00  0.00    +0.000 C 
ATOM     26  F   UNL     1      48.038   1.447   5.915  0.00  0.00    +0.000 F 
ATOM     27  F   UNL     1      46.439   2.888   5.563  0.00  0.00    +0.000 F 
ATOM     28  F   UNL     1      47.942   3.286   7.103  0.00  0.00    +0.000 F 
ENDBRANCH  24  25
ENDBRANCH  21  24
ENDBRANCH  15  18
ENDBRANCH   6  15
TORSDOF 5
ENDMDL
MODEL 5
REMARK VINA RESULT:    -6.223      5.322      8.766
REMARK INTER + INTRA:          -9.029
REMARK INTER:                  -8.486
REMARK INTRA:                  -0.543
REMARK UNBOUND:                -0.986
REMARK  Name = 
REMARK  6 active torsions:
REMARK  status: ('A' for Active; 'I' for Inactive)
REMARK    1  A    between atoms: C_1  and  C_2
REMARK    2  A    between atoms: N_6  and  C_7
REMARK    3  A    between atoms: C_7  and  C_8
REMARK    4  A    between atoms: C_11  and  O_12
REMARK    5  A    between atoms: O_12  and  C_13
REMARK    6  A    between atoms: C_22  and  C_23
REMARK                            x       y       z     vdW  Elec       q    Type
REMARK                         _______ _______ _______ _____ _____    ______ ____
ROOT
ATOM      1  C   UNL     1      46.055   6.116  11.130  0.00  0.00    +0.000 C 
ATOM      2  C   UNL     1      46.464   5.617  12.477  0.00  0.00    +0.000 A 
ATOM      3  C   UNL     1      47.369   6.299  13.261  0.00  0.00    +0.000 A 
ATOM      4  N   UNL     1      47.713   5.938  14.517  0.00  0.00    +0.000 NA
ATOM      5  C   UNL     1      47.129   4.848  15.022  0.00  0.00    +0.000 A 
ATOM      6  N   UNL     1      47.267   4.456  16.351  0.00  0.00    +0.000 N 
ATOM      7  N   UNL     1      46.284   4.079  14.333  0.00  0.00    +0.000 NA
ATOM      8  C   UNL     1      45.965   4.478  13.073  0.00  0.00    +0.000 A 
ATOM      9  H   UNL     1      46.848   3.542  16.448  0.00  0.00    +0.000 HD
ENDROOT
BRANCH   8  10
ATOM     10  C   UNL     1      44.990   3.558  12.385  0.00  0.00    +0.000 C 
ATOM     11  N   UNL     1      43.784   3.414  13.020  0.00  0.00    +0.000 N 
ATOM     12  O   UNL     1      45.224   2.959  11.341  0.00  0.00    +0.000 OA
ATOM     13  H   UNL     1      43.615   3.907  13.888  0.00  0.00    +0.000 HD
ATOM     14  H   UNL     1      43.078   2.812  12.627  0.00  0.00    +0.000 HD
ENDBRANCH   8  10
BRANCH   6  15
ATOM     15  C   UNL     1      48.346   4.821  17.254  0.00  0.00    +0.000 C 
ATOM     16  C   UNL     1      47.869   5.397  18.584  0.00  0.00    +0.000 C 
ATOM     17  C   UNL     1      48.707   6.233  17.683  0.00  0.00    +0.000 C 
BRANCH  15  18
ATOM     18  C   UNL     1      49.544   3.878  17.227  0.00  0.00    +0.000 A 
ATOM     19  C   UNL     1      50.812   4.349  17.608  0.00  0.00    +0.000 A 
ATOM     20  C   UNL     1      51.853   3.469  17.906  0.00  0.00    +0.000 A 
ATOM     21  C   UNL     1      51.630   2.098  17.854  0.00  0.00    +0.000 A 
ATOM     22  C   UNL     1      50.445   1.618  17.297  0.00  0.00    +0.000 A 
ATOM     23  C   UNL     1      49.414   2.504  16.974  0.00  0.00    +0.000 A 
BRANCH  21  24
ATOM     24  O   UNL     1      52.511   1.158  18.292  0.00  0.00    +0.000 OA
BRANCH  24  25
ATOM     25  C   UNL     1      53.585   0.817  17.420  0.00  0.00    +0.000 C 
ATOM     26  F   UNL     1      53.223   0.152  16.301  0.00  0.00    +0.000 F 
ATOM     27  F   UNL     1      54.215   1.951  17.033  0.00  0.00    +0.000 F 
ATOM     28  F   UNL     1      54.474   0.058  18.098  0.00  0.00    +0.000 F 
ENDBRANCH  24  25
ENDBRANCH  21  24
ENDBRANCH  15  18
ENDBRANCH   6  15
TORSDOF 5
ENDMDL
MODEL 6
REMARK VINA RESULT:    -5.874      2.899      4.378
REMARK INTER + INTRA:          -8.577
REMARK INTER:                  -8.425
REMARK INTRA:                  -0.152
REMARK UNBOUND:                -0.986
REMARK  Name = 
REMARK  6 active torsions:
REMARK  status: ('A' for Active; 'I' for Inactive)
REMARK    1  A    between atoms: C_1  and  C_2
REMARK    2  A    between atoms: N_6  and  C_7
REMARK    3  A    between atoms: C_7  and  C_8
REMARK    4  A    between atoms: C_11  and  O_12
REMARK    5  A    between atoms: O_12  and  C_13
REMARK    6  A    between atoms: C_22  and  C_23
REMARK                            x       y       z     vdW  Elec       q    Type
REMARK                         _______ _______ _______ _____ _____    ______ ____
ROOT
ATOM      1  C   UNL     1      49.874   7.293  19.197  0.00  0.00    +0.000 C 
ATOM      2  C   UNL     1      49.310   6.865  17.882  0.00  0.00    +0.000 A 
ATOM      3  C   UNL     1      48.929   7.777  16.923  0.00  0.00    +0.000 A 
ATOM      4  N   UNL     1      48.490   7.446  15.689  0.00  0.00    +0.000 NA
ATOM      5  C   UNL     1      48.427   6.146  15.389  0.00  0.00    +0.000 A 
ATOM      6  N   UNL     1      48.150   5.670  14.110  0.00  0.00    +0.000 N 
ATOM      7  N   UNL     1      48.715   5.175  16.259  0.00  0.00    +0.000 NA
ATOM      8  C   UNL     1      49.153   5.552  17.490  0.00  0.00    +0.000 A 
ATOM      9  H   UNL     1      48.026   4.669  14.174  0.00  0.00    +0.000 HD
ENDROOT
BRANCH   8  10
ATOM     10  C   UNL     1      49.471   4.388  18.391  0.00  0.00    +0.000 C 
ATOM     11  N   UNL     1      48.400   3.874  19.075  0.00  0.00    +0.000 N 
ATOM     12  O   UNL     1      50.592   3.913  18.536  0.00  0.00    +0.000 OA
ATOM     13  H   UNL     1      47.484   4.289  18.950  0.00  0.00    +0.000 HD
ATOM     14  H   UNL     1      48.529   3.097  19.702  0.00  0.00    +0.000 HD
ENDBRANCH   8  10
BRANCH   6  15
ATOM     15  C   UNL     1      47.458   6.386  13.051  0.00  0.00    +0.000 C 
ATOM     16  C   UNL     1      48.383   7.193  12.146  0.00  0.00    +0.000 C 
ATOM     17  C   UNL     1      47.334   7.895  12.933  0.00  0.00    +0.000 C 
BRANCH  15  18
ATOM     18  C   UNL     1      46.275   5.638  12.446  0.00  0.00    +0.000 A 
ATOM     19  C   UNL     1      45.727   6.069  11.225  0.00  0.00    +0.000 A 
ATOM     20  C   UNL     1      44.877   5.250  10.483  0.00  0.00    +0.000 A 
ATOM     21  C   UNL     1      44.582   3.970  10.940  0.00  0.00    +0.000 A 
ATOM     22  C   UNL     1      44.960   3.602  12.232  0.00  0.00    +0.000 A 
ATOM     23  C   UNL     1      45.789   4.437  12.983  0.00  0.00    +0.000 A 
BRANCH  21  24
ATOM     24  O   UNL     1      43.916   3.029  10.218  0.00  0.00    +0.000 OA
BRANCH  24  25
ATOM     25  C   UNL     1      44.630   2.397   9.159  0.00  0.00    +0.000 C 
ATOM     26  F   UNL     1      45.972   2.362   9.316  0.00  0.00    +0.000 F 
ATOM     27  F   UNL     1      44.201   1.119   9.039  0.00  0.00    +0.000 F 
ATOM     28  F   UNL     1      44.354   3.040   8.002  0.00  0.00    +0.000 F 
ENDBRANCH  24  25
ENDBRANCH  21  24
ENDBRANCH  15  18
ENDBRANCH   6  15
TORSDOF 5
ENDMDL
MODEL 7
REMARK VINA RESULT:    -5.873      4.419      6.056
REMARK INTER + INTRA:          -8.576
REMARK INTER:                  -7.520
REMARK INTRA:                  -1.056
REMARK UNBOUND:                -0.986
REMARK  Name = 
REMARK  6 active torsions:
REMARK  status: ('A' for Active; 'I' for Inactive)
REMARK    1  A    between atoms: C_1  and  C_2
REMARK    2  A    between atoms: N_6  and  C_7
REMARK    3  A    between atoms: C_7  and  C_8
REMARK    4  A    between atoms: C_11  and  O_12
REMARK    5  A    between atoms: O_12  and  C_13
REMARK    6  A    between atoms: C_22  and  C_23
REMARK                            x       y       z     vdW  Elec       q    Type
REMARK                         _______ _______ _______ _____ _____    ______ ____
ROOT
ATOM      1  C   UNL     1      48.889   7.001  20.072  0.00  0.00    +0.000 C 
ATOM      2  C   UNL     1      48.992   6.875  18.588  0.00  0.00    +0.000 A 
ATOM      3  C   UNL     1      48.514   7.850  17.740  0.00  0.00    +0.000 A 
ATOM      4  N   UNL     1      48.653   7.827  16.396  0.00  0.00    +0.000 NA
ATOM      5  C   UNL     1      49.298   6.785  15.865  0.00  0.00    +0.000 A 
ATOM      6  N   UNL     1      49.652   6.711  14.521  0.00  0.00    +0.000 N 
ATOM      7  N   UNL     1      49.750   5.755  16.584  0.00  0.00    +0.000 NA
ATOM      8  C   UNL     1      49.590   5.819  17.933  0.00  0.00    +0.000 A 
ATOM      9  H   UNL     1      50.002   5.780  14.344  0.00  0.00    +0.000 HD
ENDROOT
BRANCH   8  10
ATOM     10  C   UNL     1      50.150   4.622  18.656  0.00  0.00    +0.000 C 
ATOM     11  N   UNL     1      49.256   3.607  18.876  0.00  0.00    +0.000 N 
ATOM     12  O   UNL     1      51.310   4.530  19.043  0.00  0.00    +0.000 OA
ATOM     13  H   UNL     1      48.299   3.708  18.559  0.00  0.00    +0.000 HD
ATOM     14  H   UNL     1      49.550   2.773  19.358  0.00  0.00    +0.000 HD
ENDBRANCH   8  10
BRANCH   6  15
ATOM     15  C   UNL     1      49.035   7.437  13.422  0.00  0.00    +0.000 C 
ATOM     16  C   UNL     1      50.019   7.872  12.341  0.00  0.00    +0.000 C 
ATOM     17  C   UNL     1      49.254   8.903  13.091  0.00  0.00    +0.000 C 
BRANCH  15  18
ATOM     18  C   UNL     1      47.652   6.933  13.025  0.00  0.00    +0.000 A 
ATOM     19  C   UNL     1      47.360   5.561  13.104  0.00  0.00    +0.000 A 
ATOM     20  C   UNL     1      46.046   5.095  13.065  0.00  0.00    +0.000 A 
ATOM     21  C   UNL     1      44.997   6.004  12.972  0.00  0.00    +0.000 A 
ATOM     22  C   UNL     1      45.275   7.343  12.701  0.00  0.00    +0.000 A 
ATOM     23  C   UNL     1      46.594   7.801  12.715  0.00  0.00    +0.000 A 
BRANCH  21  24
ATOM     24  O   UNL     1      43.683   5.678  13.104  0.00  0.00    +0.000 OA
BRANCH  24  25
ATOM     25  C   UNL     1      43.027   5.147  11.956  0.00  0.00    +0.000 C 
ATOM     26  F   UNL     1      43.678   5.337  10.787  0.00  0.00    +0.000 F 
ATOM     27  F   UNL     1      42.864   3.813  12.118  0.00  0.00    +0.000 F 
ATOM     28  F   UNL     1      41.801   5.707  11.856  0.00  0.00    +0.000 F 
ENDBRANCH  24  25
ENDBRANCH  21  24
ENDBRANCH  15  18
ENDBRANCH   6  15
TORSDOF 5
ENDMDL
MODEL 8
REMARK VINA RESULT:    -5.596      3.833      5.511
REMARK INTER + INTRA:          -8.219
REMARK INTER:                  -7.488
REMARK INTRA:                  -0.731
REMARK UNBOUND:                -0.986
REMARK  Name = 
REMARK  6 active torsions:
REMARK  status: ('A' for Active; 'I' for Inactive)
REMARK    1  A    between atoms: C_1  and  C_2
REMARK    2  A    between atoms: N_6  and  C_7
REMARK    3  A    between atoms: C_7  and  C_8
REMARK    4  A    between atoms: C_11  and  O_12
REMARK    5  A    between atoms: O_12  and  C_13
REMARK    6  A    between atoms: C_22  and  C_23
REMARK                            x       y       z     vdW  Elec       q    Type
REMARK                         _______ _______ _______ _____ _____    ______ ____
ROOT
ATOM      1  C   UNL     1      50.439   7.392  19.310  0.00  0.00    +0.000 C 
ATOM      2  C   UNL     1      50.104   7.198  17.869  0.00  0.00    +0.000 A 
ATOM      3  C   UNL     1      49.022   7.818  17.284  0.00  0.00    +0.000 A 
ATOM      4  N   UNL     1      48.720   7.743  15.969  0.00  0.00    +0.000 NA
ATOM      5  C   UNL     1      49.531   7.018  15.194  0.00  0.00    +0.000 A 
ATOM      6  N   UNL     1      49.433   6.986  13.806  0.00  0.00    +0.000 N 
ATOM      7  N   UNL     1      50.573   6.327  15.663  0.00  0.00    +0.000 NA
ATOM      8  C   UNL     1      50.842   6.430  16.992  0.00  0.00    +0.000 A 
ATOM      9  H   UNL     1      50.061   6.270  13.468  0.00  0.00    +0.000 HD
ENDROOT
BRANCH   8  10
ATOM     10  C   UNL     1      52.046   5.633  17.420  0.00  0.00    +0.000 C 
ATOM     11  N   UNL     1      53.250   6.263  17.243  0.00  0.00    +0.000 N 
ATOM     12  O   UNL     1      51.994   4.501  17.887  0.00  0.00    +0.000 OA
ATOM     13  H   UNL     1      53.272   7.194  16.845  0.00  0.00    +0.000 HD
ATOM     14  H   UNL     1      54.105   5.796  17.501  0.00  0.00    +0.000 HD
ENDBRANCH   8  10
BRANCH   6  15
ATOM     15  C   UNL     1      48.256   7.302  13.014  0.00  0.00    +0.000 C 
ATOM     16  C   UNL     1      48.572   7.731  11.584  0.00  0.00    +0.000 C 
ATOM     17  C   UNL     1      47.876   8.679  12.495  0.00  0.00    +0.000 C 
BRANCH  15  18
ATOM     18  C   UNL     1      47.050   6.410  13.284  0.00  0.00    +0.000 A 
ATOM     19  C   UNL     1      45.763   6.846  12.925  0.00  0.00    +0.000 A 
ATOM     20  C   UNL     1      44.689   5.959  12.853  0.00  0.00    +0.000 A 
ATOM     21  C   UNL     1      44.894   4.609  13.117  0.00  0.00    +0.000 A 
ATOM     22  C   UNL     1      46.112   4.196  13.658  0.00  0.00    +0.000 A 
ATOM     23  C   UNL     1      47.177   5.093  13.753  0.00  0.00    +0.000 A 
BRANCH  21  24
ATOM     24  O   UNL     1      43.969   3.635  12.906  0.00  0.00    +0.000 OA
BRANCH  24  25
ATOM     25  C   UNL     1      43.782   3.196  11.563  0.00  0.00    +0.000 C 
ATOM     26  F   UNL     1      43.188   4.094  10.747  0.00  0.00    +0.000 F 
ATOM     27  F   UNL     1      44.987   2.893  11.027  0.00  0.00    +0.000 F 
ATOM     28  F   UNL     1      43.035   2.070  11.572  0.00  0.00    +0.000 F 
ENDBRANCH  24  25
ENDBRANCH  21  24
ENDBRANCH  15  18
ENDBRANCH   6  15
TORSDOF 5
ENDMDL
MODEL 9
REMARK VINA RESULT:    -5.564      4.007      5.631
REMARK INTER + INTRA:          -8.177
REMARK INTER:                  -7.480
REMARK INTRA:                  -0.697
REMARK UNBOUND:                -0.986
REMARK  Name = 
REMARK  6 active torsions:
REMARK  status: ('A' for Active; 'I' for Inactive)
REMARK    1  A    between atoms: C_1  and  C_2
REMARK    2  A    between atoms: N_6  and  C_7
REMARK    3  A    between atoms: C_7  and  C_8
REMARK    4  A    between atoms: C_11  and  O_12
REMARK    5  A    between atoms: O_12  and  C_13
REMARK    6  A    between atoms: C_22  and  C_23
REMARK                            x       y       z     vdW  Elec       q    Type
REMARK                         _______ _______ _______ _____ _____    ______ ____
ROOT
ATOM      1  C   UNL     1      48.182   9.640  19.340  0.00  0.00    +0.000 C 
ATOM      2  C   UNL     1      48.360   8.900  18.056  0.00  0.00    +0.000 A 
ATOM      3  C   UNL     1      47.915   9.408  16.855  0.00  0.00    +0.000 A 
ATOM      4  N   UNL     1      48.121   8.821  15.656  0.00  0.00    +0.000 NA
ATOM      5  C   UNL     1      48.804   7.673  15.645  0.00  0.00    +0.000 A 
ATOM      6  N   UNL     1      49.225   7.047  14.475  0.00  0.00    +0.000 N 
ATOM      7  N   UNL     1      49.231   7.060  16.751  0.00  0.00    +0.000 NA
ATOM      8  C   UNL     1      49.003   7.685  17.937  0.00  0.00    +0.000 A 
ATOM      9  H   UNL     1      49.595   6.141  14.725  0.00  0.00    +0.000 HD
ENDROOT
BRANCH   8  10
ATOM     10  C   UNL     1      49.540   6.927  19.123  0.00  0.00    +0.000 C 
ATOM     11  N   UNL     1      50.875   7.108  19.370  0.00  0.00    +0.000 N 
ATOM     12  O   UNL     1      48.866   6.188  19.832  0.00  0.00    +0.000 OA
ATOM     13  H   UNL     1      51.417   7.714  18.765  0.00  0.00    +0.000 HD
ATOM     14  H   UNL     1      51.313   6.633  20.143  0.00  0.00    +0.000 HD
ENDBRANCH   8  10
BRANCH   6  15
ATOM     15  C   UNL     1      48.656   7.219  13.148  0.00  0.00    +0.000 C 
ATOM     16  C   UNL     1      49.699   7.376  12.045  0.00  0.00    +0.000 C 
ATOM     17  C   UNL     1      48.735   8.479  12.303  0.00  0.00    +0.000 C 
BRANCH  15  18
ATOM     18  C   UNL     1      47.399   6.397  12.885  0.00  0.00    +0.000 A 
ATOM     19  C   UNL     1      46.580   6.707  11.786  0.00  0.00    +0.000 A 
ATOM     20  C   UNL     1      45.620   5.809  11.321  0.00  0.00    +0.000 A 
ATOM     21  C   UNL     1      45.482   4.570  11.937  0.00  0.00    +0.000 A 
ATOM     22  C   UNL     1      46.148   4.326  13.138  0.00  0.00    +0.000 A 
ATOM     23  C   UNL     1      47.090   5.240  13.615  0.00  0.00    +0.000 A 
BRANCH  21  24
ATOM     24  O   UNL     1      44.709   3.556  11.462  0.00  0.00    +0.000 OA
BRANCH  24  25
ATOM     25  C   UNL     1      43.365   3.488  11.933  0.00  0.00    +0.000 C 
ATOM     26  F   UNL     1      43.209   3.739  13.251  0.00  0.00    +0.000 F 
ATOM     27  F   UNL     1      42.614   4.387  11.255  0.00  0.00    +0.000 F 
ATOM     28  F   UNL     1      42.875   2.255  11.673  0.00  0.00    +0.000 F 
ENDBRANCH  24  25
ENDBRANCH  21  24
ENDBRANCH  15  18
ENDBRANCH   6  15
TORSDOF 5
ENDMDL
