MODEL 1
REMARK VINA RESULT:    -7.777      0.000      0.000
REMARK INTER + INTRA:         -12.106
REMARK INTER:                 -10.960
REMARK INTRA:                  -1.146
REMARK UNBOUND:                -1.146
REMARK  Name = 
REMARK  7 active torsions:
REMARK  status: ('A' for Active; 'I' for Inactive)
REMARK    1  A    between atoms: C_2  and  O_3
REMARK    2  A    between atoms: C_2  and  C_25
REMARK    3  A    between atoms: O_3  and  C_4
REMARK    4  A    between atoms: C_4  and  C_5
REMARK    5  A    between atoms: C_8  and  C_9
REMARK    6  A    between atoms: C_9  and  N_10
REMARK    7  A    between atoms: C_11  and  C_13
REMARK                            x       y       z     vdW  Elec       q    Type
REMARK                         _______ _______ _______ _____ _____    ______ ____
ROOT
ATOM      1  C   UNL     1      46.964   8.090  13.322  0.00  0.00    +0.000 C 
ENDROOT
BRANCH   1   5
ATOM      2  C   UNL     1      44.630   5.362  10.891  0.00  0.00    +0.000 A 
ATOM      3  C   UNL     1      44.142   5.810  12.127  0.00  0.00    +0.000 A 
ATOM      4  C   UNL     1      44.900   6.680  12.919  0.00  0.00    +0.000 A 
ATOM      5  C   UNL     1      46.154   7.128  12.488  0.00  0.00    +0.000 A 
ATOM      6  C   UNL     1      46.663   6.636  11.279  0.00  0.00    +0.000 A 
ATOM      7  C   UNL     1      45.907   5.767  10.486  0.00  0.00    +0.000 A 
BRANCH   2   8
ATOM      8  C   UNL     1      43.813   4.430  10.026  0.00  0.00    +0.000 C 
BRANCH   8   9
ATOM      9  O   UNL     1      44.532   4.118   8.825  0.00  0.00    +0.000 OA
BRANCH   9  11
ATOM     10  O   UNL     1      44.560   1.896   9.374  0.00  0.00    +0.000 OA
ATOM     11  C   UNL     1      44.974   2.833   8.696  0.00  0.00    +0.000 C 
BRANCH  11  12
ATOM     12  C   UNL     1      45.973   2.737   7.637  0.00  0.00    +0.000 A 
ATOM     13  N   UNL     1      46.215   3.671   6.733  0.00  0.00    +0.000 NA
ATOM     14  C   UNL     1      47.213   3.245   5.877  0.00  0.00    +0.000 A 
ATOM     15  C   UNL     1      47.722   1.990   6.130  0.00  0.00    +0.000 A 
ATOM     16  S   UNL     1      46.932   1.313   7.491  0.00  0.00    +0.000 S 
ENDBRANCH  11  12
ENDBRANCH   9  11
ENDBRANCH   8   9
ENDBRANCH   2   8
ENDBRANCH   1   5
BRANCH   1  17
ATOM     17  N   UNL     1      47.467   7.447  14.507  0.00  0.00    +0.000 N 
ATOM     18  C   UNL     1      48.702   6.855  14.540  0.00  0.00    +0.000 C 
ATOM     19  O   UNL     1      49.480   6.900  13.590  0.00  0.00    +0.000 OA
ATOM     20  H   UNL     1      46.774   7.179  15.197  0.00  0.00    +0.000 HD
BRANCH  18  21
ATOM     21  C   UNL     1      49.075   6.216  15.810  0.00  0.00    +0.000 A 
ATOM     22  C   UNL     1      50.149   6.698  16.545  0.00  0.00    +0.000 A 
ATOM     23  S   UNL     1      50.369   5.894  18.036  0.00  0.00    +0.000 S 
ATOM     24  C   UNL     1      49.072   4.838  17.722  0.00  0.00    +0.000 A 
ATOM     25  N   UNL     1      48.716   3.876  18.615  0.00  0.00    +0.000 NA
ATOM     26  C   UNL     1      47.734   3.129  18.233  0.00  0.00    +0.000 A 
ATOM     27  N   UNL     1      47.080   3.251  17.036  0.00  0.00    +0.000 N 
ATOM     28  C   UNL     1      47.397   4.213  16.108  0.00  0.00    +0.000 A 
ATOM     29  O   UNL     1      46.784   4.303  15.051  0.00  0.00    +0.000 OA
ATOM     30  C   UNL     1      48.484   5.091  16.496  0.00  0.00    +0.000 A 
ATOM     31  H   UNL     1      46.322   2.631  16.790  0.00  0.00    +0.000 HD
ENDBRANCH  18  21
ENDBRANCH   1  17
TORSDOF 7
ENDMDL
MODEL 2
REMARK VINA RESULT:    -7.466      2.010      2.421
REMARK INTER + INTRA:         -11.668
REMARK INTER:                 -10.748
REMARK INTRA:                  -0.920
REMARK UNBOUND:                -1.146
REMARK  Name = 
REMARK  7 active torsions:
REMARK  status: ('A' for Active; 'I' for Inactive)
REMARK    1  A    between atoms: C_2  and  O_3
REMARK    2  A    between atoms: C_2  and  C_25
REMARK    3  A    between atoms: O_3  and  C_4
REMARK    4  A    between atoms: C_4  and  C_5
REMARK    5  A    between atoms: C_8  and  C_9
REMARK    6  A    between atoms: C_9  and  N_10
REMARK    7  A    between atoms: C_11  and  C_13
REMARK                            x       y       z     vdW  Elec       q    Type
REMARK                         _______ _______ _______ _____ _____    ______ ____
ROOT
ATOM      1  C   UNL     1      48.384   6.637  13.716  0.00  0.00    +0.000 C 
ENDROOT
BRANCH   1   5
ATOM      2  C   UNL     1      44.750   5.486  11.649  0.00  0.00    +0.000 A 
ATOM      3  C   UNL     1      45.682   6.335  11.034  0.00  0.00    +0.000 A 
ATOM      4  C   UNL     1      46.849   6.718  11.705  0.00  0.00    +0.000 A 
ATOM      5  C   UNL     1      47.114   6.253  12.998  0.00  0.00    +0.000 A 
ATOM      6  C   UNL     1      46.157   5.450  13.632  0.00  0.00    +0.000 A 
ATOM      7  C   UNL     1      44.990   5.066  12.963  0.00  0.00    +0.000 A 
BRANCH   2   8
ATOM      8  C   UNL     1      43.493   5.061  10.927  0.00  0.00    +0.000 C 
BRANCH   8   9
ATOM      9  O   UNL     1      43.832   4.354   9.725  0.00  0.00    +0.000 OA
BRANCH   9  11
ATOM     10  O   UNL     1      43.636   2.284  10.683  0.00  0.00    +0.000 OA
ATOM     11  C   UNL     1      44.160   3.036   9.864  0.00  0.00    +0.000 C 
BRANCH  11  12
ATOM     12  C   UNL     1      45.187   2.658   8.899  0.00  0.00    +0.000 A 
ATOM     13  N   UNL     1      45.652   1.433   8.725  0.00  0.00    +0.000 NA
ATOM     14  C   UNL     1      46.623   1.438   7.742  0.00  0.00    +0.000 A 
ATOM     15  C   UNL     1      46.895   2.664   7.177  0.00  0.00    +0.000 A 
ATOM     16  S   UNL     1      45.900   3.861   7.893  0.00  0.00    +0.000 S 
ENDBRANCH  11  12
ENDBRANCH   9  11
ENDBRANCH   8   9
ENDBRANCH   2   8
ENDBRANCH   1   5
BRANCH   1  17
ATOM     17  N   UNL     1      48.138   6.858  15.116  0.00  0.00    +0.000 N 
ATOM     18  C   UNL     1      49.095   6.618  16.066  0.00  0.00    +0.000 C 
ATOM     19  O   UNL     1      50.238   6.270  15.777  0.00  0.00    +0.000 OA
ATOM     20  H   UNL     1      47.165   6.896  15.397  0.00  0.00    +0.000 HD
BRANCH  18  21
ATOM     21  C   UNL     1      48.696   6.865  17.459  0.00  0.00    +0.000 A 
ATOM     22  C   UNL     1      48.309   8.137  17.859  0.00  0.00    +0.000 A 
ATOM     23  S   UNL     1      47.786   8.210  19.483  0.00  0.00    +0.000 S 
ATOM     24  C   UNL     1      48.113   6.557  19.721  0.00  0.00    +0.000 A 
ATOM     25  N   UNL     1      47.886   5.961  20.923  0.00  0.00    +0.000 NA
ATOM     26  C   UNL     1      48.208   4.711  20.969  0.00  0.00    +0.000 A 
ATOM     27  N   UNL     1      48.743   4.003  19.925  0.00  0.00    +0.000 N 
ATOM     28  C   UNL     1      48.980   4.560  18.692  0.00  0.00    +0.000 A 
ATOM     29  O   UNL     1      49.449   3.895  17.775  0.00  0.00    +0.000 OA
ATOM     30  C   UNL     1      48.619   5.960  18.581  0.00  0.00    +0.000 A 
ATOM     31  H   UNL     1      48.981   3.028  20.024  0.00  0.00    +0.000 HD
ENDBRANCH  18  21
ENDBRANCH   1  17
TORSDOF 7
ENDMDL
MODEL 3
REMARK VINA RESULT:    -7.417      2.475      2.926
REMARK INTER + INTRA:         -11.598
REMARK INTER:                 -10.514
REMARK INTRA:                  -1.085
REMARK UNBOUND:                -1.146
REMARK  Name = 
REMARK  7 active torsions:
REMARK  status: ('A' for Active; 'I' for Inactive)
REMARK    1  A    between atoms: C_2  and  O_3
REMARK    2  A    between atoms: C_2  and  C_25
REMARK    3  A    between atoms: O_3  and  C_4
REMARK    4  A    between atoms: C_4  and  C_5
REMARK    5  A    between atoms: C_8  and  C_9
REMARK    6  A    between atoms: C_9  and  N_10
REMARK    7  A    between atoms: C_11  and  C_13
REMARK                            x       y       z     vdW  Elec       q    Type
REMARK                         _______ _______ _______ _____ _____    ______ ____
ROOT
ATOM      1  C   UNL     1      48.382   6.703  13.848  0.00  0.00    +0.000 C 
ENDROOT
BRANCH   1   5
ATOM      2  C   UNL     1      44.969   5.362  11.533  0.00  0.00    +0.000 A 
ATOM      3  C   UNL     1      45.193   4.866  12.826  0.00  0.00    +0.000 A 
ATOM      4  C   UNL     1      46.302   5.287  13.569  0.00  0.00    +0.000 A 
ATOM      5  C   UNL     1      47.202   6.220  13.042  0.00  0.00    +0.000 A 
ATOM      6  C   UNL     1      47.007   6.674  11.730  0.00  0.00    +0.000 A 
ATOM      7  C   UNL     1      45.900   6.254  10.986  0.00  0.00    +0.000 A 
BRANCH   2   8
ATOM      8  C   UNL     1      43.769   4.919  10.729  0.00  0.00    +0.000 C 
BRANCH   8   9
ATOM      9  O   UNL     1      44.198   4.272   9.523  0.00  0.00    +0.000 OA
BRANCH   9  11
ATOM     10  O   UNL     1      43.792   2.176  10.349  0.00  0.00    +0.000 OA
ATOM     11  C   UNL     1      44.410   2.925   9.596  0.00  0.00    +0.000 C 
BRANCH  11  12
ATOM     12  C   UNL     1      45.439   2.515   8.647  0.00  0.00    +0.000 A 
ATOM     13  N   UNL     1      45.912   1.287   8.522  0.00  0.00    +0.000 NA
ATOM     14  C   UNL     1      46.884   1.259   7.539  0.00  0.00    +0.000 A 
ATOM     15  C   UNL     1      47.149   2.464   6.927  0.00  0.00    +0.000 A 
ATOM     16  S   UNL     1      46.146   3.682   7.594  0.00  0.00    +0.000 S 
ENDBRANCH  11  12
ENDBRANCH   9  11
ENDBRANCH   8   9
ENDBRANCH   2   8
ENDBRANCH   1   5
BRANCH   1  17
ATOM     17  N   UNL     1      48.112   6.617  15.259  0.00  0.00    +0.000 N 
ATOM     18  C   UNL     1      49.108   6.398  16.173  0.00  0.00    +0.000 C 
ATOM     19  O   UNL     1      50.292   6.333  15.856  0.00  0.00    +0.000 OA
ATOM     20  H   UNL     1      47.153   6.417  15.517  0.00  0.00    +0.000 HD
BRANCH  18  21
ATOM     21  C   UNL     1      48.682   6.310  17.578  0.00  0.00    +0.000 A 
ATOM     22  C   UNL     1      48.750   5.099  18.253  0.00  0.00    +0.000 A 
ATOM     23  S   UNL     1      48.310   5.212  19.899  0.00  0.00    +0.000 S 
ATOM     24  C   UNL     1      47.959   6.870  19.750  0.00  0.00    +0.000 A 
ATOM     25  N   UNL     1      47.520   7.595  20.813  0.00  0.00    +0.000 NA
ATOM     26  C   UNL     1      47.266   8.834  20.548  0.00  0.00    +0.000 A 
ATOM     27  N   UNL     1      47.403   9.412  19.313  0.00  0.00    +0.000 N 
ATOM     28  C   UNL     1      47.852   8.722  18.214  0.00  0.00    +0.000 A 
ATOM     29  O   UNL     1      47.976   9.273  17.126  0.00  0.00    +0.000 OA
ATOM     30  C   UNL     1      48.170   7.330  18.462  0.00  0.00    +0.000 A 
ATOM     31  H   UNL     1      47.182  10.386  19.166  0.00  0.00    +0.000 HD
ENDBRANCH  18  21
ENDBRANCH   1  17
TORSDOF 7
ENDMDL
MODEL 4
REMARK VINA RESULT:    -6.907      4.765      9.402
REMARK INTER + INTRA:         -10.880
REMARK INTER:                 -10.074
REMARK INTRA:                  -0.806
REMARK UNBOUND:                -1.146
REMARK  Name = 
REMARK  7 active torsions:
REMARK  status: ('A' for Active; 'I' for Inactive)
REMARK    1  A    between atoms: C_2  and  O_3
REMARK    2  A    between atoms: C_2  and  C_25
REMARK    3  A    between atoms: O_3  and  C_4
REMARK    4  A    between atoms: C_4  and  C_5
REMARK    5  A    between atoms: C_8  and  C_9
REMARK    6  A    between atoms: C_9  and  N_10
REMARK    7  A    between atoms: C_11  and  C_13
REMARK                            x       y       z     vdW  Elec       q    Type
REMARK                         _______ _______ _______ _____ _____    ______ ____
ROOT
ATOM      1  C   UNL     1      47.160   3.344  16.826  0.00  0.00    +0.000 C 
ENDROOT
BRANCH   1   5
ATOM      2  C   UNL     1      51.416   3.547  17.634  0.00  0.00    +0.000 A 
ATOM      3  C   UNL     1      50.633   4.711  17.640  0.00  0.00    +0.000 A 
ATOM      4  C   UNL     1      49.262   4.649  17.366  0.00  0.00    +0.000 A 
ATOM      5  C   UNL     1      48.643   3.424  17.092  0.00  0.00    +0.000 A 
ATOM      6  C   UNL     1      49.437   2.270  17.033  0.00  0.00    +0.000 A 
ATOM      7  C   UNL     1      50.806   2.330  17.306  0.00  0.00    +0.000 A 
BRANCH   2   8
ATOM      8  C   UNL     1      52.894   3.606  17.938  0.00  0.00    +0.000 C 
BRANCH   8   9
ATOM      9  O   UNL     1      53.505   2.339  17.653  0.00  0.00    +0.000 OA
BRANCH   9  11
ATOM     10  O   UNL     1      54.112   2.116  19.849  0.00  0.00    +0.000 OA
ATOM     11  C   UNL     1      53.991   1.642  18.722  0.00  0.00    +0.000 C 
BRANCH  11  12
ATOM     12  C   UNL     1      54.314   0.272  18.337  0.00  0.00    +0.000 A 
ATOM     13  N   UNL     1      54.169  -0.789  19.112  0.00  0.00    +0.000 NA
ATOM     14  C   UNL     1      54.584  -1.921  18.435  0.00  0.00    +0.000 A 
ATOM     15  C   UNL     1      55.046  -1.715  17.154  0.00  0.00    +0.000 A 
ATOM     16  S   UNL     1      54.957  -0.048  16.771  0.00  0.00    +0.000 S 
ENDBRANCH  11  12
ENDBRANCH   9  11
ENDBRANCH   8   9
ENDBRANCH   2   8
ENDBRANCH   1   5
BRANCH   1  17
ATOM     17  N   UNL     1      46.755   4.338  15.868  0.00  0.00    +0.000 N 
ATOM     18  C   UNL     1      46.844   4.120  14.519  0.00  0.00    +0.000 C 
ATOM     19  O   UNL     1      47.204   3.044  14.047  0.00  0.00    +0.000 OA
ATOM     20  H   UNL     1      46.699   5.291  16.210  0.00  0.00    +0.000 HD
BRANCH  18  21
ATOM     21  C   UNL     1      46.417   5.232  13.658  0.00  0.00    +0.000 A 
ATOM     22  C   UNL     1      47.267   6.306  13.431  0.00  0.00    +0.000 A 
ATOM     23  S   UNL     1      46.639   7.450  12.329  0.00  0.00    +0.000 S 
ATOM     24  C   UNL     1      45.188   6.577  12.162  0.00  0.00    +0.000 A 
ATOM     25  N   UNL     1      44.192   7.017  11.347  0.00  0.00    +0.000 NA
ATOM     26  C   UNL     1      43.138   6.271  11.341  0.00  0.00    +0.000 A 
ATOM     27  N   UNL     1      42.985   5.129  12.081  0.00  0.00    +0.000 N 
ATOM     28  C   UNL     1      43.966   4.641  12.910  0.00  0.00    +0.000 A 
ATOM     29  O   UNL     1      43.801   3.609  13.550  0.00  0.00    +0.000 OA
ATOM     30  C   UNL     1      45.180   5.433  12.940  0.00  0.00    +0.000 A 
ATOM     31  H   UNL     1      42.132   4.590  12.039  0.00  0.00    +0.000 HD
ENDBRANCH  18  21
ENDBRANCH   1  17
TORSDOF 7
ENDMDL
MODEL 5
REMARK VINA RESULT:    -6.886      2.342      3.827
REMARK INTER + INTRA:         -10.851
REMARK INTER:                  -9.841
REMARK INTRA:                  -1.010
REMARK UNBOUND:                -1.146
REMARK  Name = 
REMARK  7 active torsions:
REMARK  status: ('A' for Active; 'I' for Inactive)
REMARK    1  A    between atoms: C_2  and  O_3
REMARK    2  A    between atoms: C_2  and  C_25
REMARK    3  A    between atoms: O_3  and  C_4
REMARK    4  A    between atoms: C_4  and  C_5
REMARK    5  A    between atoms: C_8  and  C_9
REMARK    6  A    between atoms: C_9  and  N_10
REMARK    7  A    between atoms: C_11  and  C_13
REMARK                            x       y       z     vdW  Elec       q    Type
REMARK                         _______ _______ _______ _____ _____    ______ ____
ROOT
ATOM      1  C   UNL     1      47.383   4.557  14.826  0.00  0.00    +0.000 C 
ENDROOT
BRANCH   1   5
ATOM      2  C   UNL     1      44.737   4.545  11.391  0.00  0.00    +0.000 A 
ATOM      3  C   UNL     1      45.139   3.340  11.985  0.00  0.00    +0.000 A 
ATOM      4  C   UNL     1      46.004   3.342  13.086  0.00  0.00    +0.000 A 
ATOM      5  C   UNL     1      46.475   4.546  13.621  0.00  0.00    +0.000 A 
ATOM      6  C   UNL     1      46.116   5.746  12.993  0.00  0.00    +0.000 A 
ATOM      7  C   UNL     1      45.253   5.746  11.894  0.00  0.00    +0.000 A 
BRANCH   2   8
ATOM      8  C   UNL     1      43.796   4.552  10.209  0.00  0.00    +0.000 C 
BRANCH   8   9
ATOM      9  O   UNL     1      44.229   3.596   9.231  0.00  0.00    +0.000 OA
BRANCH   9  11
ATOM     10  O   UNL     1      45.711   5.081   8.314  0.00  0.00    +0.000 OA
ATOM     11  C   UNL     1      45.338   3.926   8.506  0.00  0.00    +0.000 C 
BRANCH  11  12
ATOM     12  C   UNL     1      46.012   2.725   8.023  0.00  0.00    +0.000 A 
ATOM     13  N   UNL     1      45.867   1.515   8.535  0.00  0.00    +0.000 NA
ATOM     14  C   UNL     1      46.661   0.619   7.844  0.00  0.00    +0.000 A 
ATOM     15  C   UNL     1      47.408   1.151   6.816  0.00  0.00    +0.000 A 
ATOM     16  S   UNL     1      47.109   2.833   6.698  0.00  0.00    +0.000 S 
ENDBRANCH  11  12
ENDBRANCH   9  11
ENDBRANCH   8   9
ENDBRANCH   2   8
ENDBRANCH   1   5
BRANCH   1  17
ATOM     17  N   UNL     1      47.637   5.902  15.268  0.00  0.00    +0.000 N 
ATOM     18  C   UNL     1      48.677   6.204  16.107  0.00  0.00    +0.000 C 
ATOM     19  O   UNL     1      49.495   5.363  16.471  0.00  0.00    +0.000 OA
ATOM     20  H   UNL     1      46.859   6.549  15.196  0.00  0.00    +0.000 HD
BRANCH  18  21
ATOM     21  C   UNL     1      48.801   7.616  16.496  0.00  0.00    +0.000 A 
ATOM     22  C   UNL     1      48.841   7.970  17.837  0.00  0.00    +0.000 A 
ATOM     23  S   UNL     1      49.087   9.640  18.094  0.00  0.00    +0.000 S 
ATOM     24  C   UNL     1      49.091   9.954  16.421  0.00  0.00    +0.000 A 
ATOM     25  N   UNL     1      49.259  11.216  15.943  0.00  0.00    +0.000 NA
ATOM     26  C   UNL     1      49.211  11.310  14.656  0.00  0.00    +0.000 A 
ATOM     27  N   UNL     1      49.003  10.258  13.803  0.00  0.00    +0.000 N 
ATOM     28  C   UNL     1      48.838   8.966  14.239  0.00  0.00    +0.000 A 
ATOM     29  O   UNL     1      48.667   8.046  13.449  0.00  0.00    +0.000 OA
ATOM     30  C   UNL     1      48.902   8.802  15.679  0.00  0.00    +0.000 A 
ATOM     31  H   UNL     1      48.969  10.396  12.803  0.00  0.00    +0.000 HD
ENDBRANCH  18  21
ENDBRANCH   1  17
TORSDOF 7
ENDMDL
MODEL 6
REMARK VINA RESULT:    -6.876      2.830      3.486
REMARK INTER + INTRA:         -10.836
REMARK INTER:                 -10.070
REMARK INTRA:                  -0.766
REMARK UNBOUND:                -1.146
REMARK  Name = 
REMARK  7 active torsions:
REMARK  status: ('A' for Active; 'I' for Inactive)
REMARK    1  A    between atoms: C_2  and  O_3
REMARK    2  A    between atoms: C_2  and  C_25
REMARK    3  A    between atoms: O_3  and  C_4
REMARK    4  A    between atoms: C_4  and  C_5
REMARK    5  A    between atoms: C_8  and  C_9
REMARK    6  A    between atoms: C_9  and  N_10
REMARK    7  A    between atoms: C_11  and  C_13
REMARK                            x       y       z     vdW  Elec       q    Type
REMARK                         _______ _______ _______ _____ _____    ______ ____
ROOT
ATOM      1  C   UNL     1      47.357   4.612  14.853  0.00  0.00    +0.000 C 
ENDROOT
BRANCH   1   5
ATOM      2  C   UNL     1      44.747   4.561  11.390  0.00  0.00    +0.000 A 
ATOM      3  C   UNL     1      45.151   3.363  11.996  0.00  0.00    +0.000 A 
ATOM      4  C   UNL     1      46.004   3.376  13.105  0.00  0.00    +0.000 A 
ATOM      5  C   UNL     1      46.462   4.587  13.639  0.00  0.00    +0.000 A 
ATOM      6  C   UNL     1      46.101   5.781  12.999  0.00  0.00    +0.000 A 
ATOM      7  C   UNL     1      45.249   5.769  11.891  0.00  0.00    +0.000 A 
BRANCH   2   8
ATOM      8  C   UNL     1      43.818   4.554  10.198  0.00  0.00    +0.000 C 
BRANCH   8   9
ATOM      9  O   UNL     1      44.263   3.589   9.235  0.00  0.00    +0.000 OA
BRANCH   9  11
ATOM     10  O   UNL     1      45.749   5.075   8.327  0.00  0.00    +0.000 OA
ATOM     11  C   UNL     1      45.369   3.920   8.505  0.00  0.00    +0.000 C 
BRANCH  11  12
ATOM     12  C   UNL     1      46.029   2.721   8.000  0.00  0.00    +0.000 A 
ATOM     13  N   UNL     1      45.900   1.509   8.512  0.00  0.00    +0.000 NA
ATOM     14  C   UNL     1      46.674   0.616   7.796  0.00  0.00    +0.000 A 
ATOM     15  C   UNL     1      47.389   1.151   6.748  0.00  0.00    +0.000 A 
ATOM     16  S   UNL     1      47.085   2.833   6.643  0.00  0.00    +0.000 S 
ENDBRANCH  11  12
ENDBRANCH   9  11
ENDBRANCH   8   9
ENDBRANCH   2   8
ENDBRANCH   1   5
BRANCH   1  17
ATOM     17  N   UNL     1      47.636   5.963  15.260  0.00  0.00    +0.000 N 
ATOM     18  C   UNL     1      48.680   6.266  16.093  0.00  0.00    +0.000 C 
ATOM     19  O   UNL     1      49.480   5.419  16.483  0.00  0.00    +0.000 OA
ATOM     20  H   UNL     1      46.872   6.623  15.167  0.00  0.00    +0.000 HD
BRANCH  18  21
ATOM     21  C   UNL     1      48.831   7.686  16.445  0.00  0.00    +0.000 A 
ATOM     22  C   UNL     1      49.503   8.549  15.590  0.00  0.00    +0.000 A 
ATOM     23  S   UNL     1      49.492  10.173  16.116  0.00  0.00    +0.000 S 
ATOM     24  C   UNL     1      48.639   9.768  17.532  0.00  0.00    +0.000 A 
ATOM     25  N   UNL     1      48.299  10.717  18.445  0.00  0.00    +0.000 NA
ATOM     26  C   UNL     1      47.681  10.262  19.483  0.00  0.00    +0.000 A 
ATOM     27  N   UNL     1      47.377   8.943  19.696  0.00  0.00    +0.000 N 
ATOM     28  C   UNL     1      47.691   7.952  18.799  0.00  0.00    +0.000 A 
ATOM     29  O   UNL     1      47.393   6.783  19.014  0.00  0.00    +0.000 OA
ATOM     30  C   UNL     1      48.371   8.412  17.604  0.00  0.00    +0.000 A 
ATOM     31  H   UNL     1      46.896   8.647  20.533  0.00  0.00    +0.000 HD
ENDBRANCH  18  21
ENDBRANCH   1  17
TORSDOF 7
ENDMDL
MODEL 7
REMARK VINA RESULT:    -6.688      2.498      8.202
REMARK INTER + INTRA:         -10.571
REMARK INTER:                  -9.358
REMARK INTRA:                  -1.213
REMARK UNBOUND:                -1.146
REMARK  Name = 
REMARK  7 active torsions:
REMARK  status: ('A' for Active; 'I' for Inactive)
REMARK    1  A    between atoms: C_2  and  O_3
REMARK    2  A    between atoms: C_2  and  C_25
REMARK    3  A    between atoms: O_3  and  C_4
REMARK    4  A    between atoms: C_4  and  C_5
REMARK    5  A    between atoms: C_8  and  C_9
REMARK    6  A    between atoms: C_9  and  N_10
REMARK    7  A    between atoms: C_11  and  C_13
REMARK                            x       y       z     vdW  Elec       q    Type
REMARK                         _______ _______ _______ _____ _____    ______ ____
ROOT
ATOM      1  C   UNL     1      47.183   8.072  11.910  0.00  0.00    +0.000 C 
ENDROOT
BRANCH   1   5
ATOM      2  C   UNL     1      49.626   8.011  15.492  0.00  0.00    +0.000 A 
ATOM      3  C   UNL     1      48.385   8.664  15.487  0.00  0.00    +0.000 A 
ATOM      4  C   UNL     1      47.601   8.696  14.328  0.00  0.00    +0.000 A 
ATOM      5  C   UNL     1      48.035   8.068  13.154  0.00  0.00    +0.000 A 
ATOM      6  C   UNL     1      49.300   7.464  13.146  0.00  0.00    +0.000 A 
ATOM      7  C   UNL     1      50.084   7.431  14.303  0.00  0.00    +0.000 A 
BRANCH   2   8
ATOM      8  C   UNL     1      50.473   7.965  16.742  0.00  0.00    +0.000 C 
BRANCH   8   9
ATOM      9  O   UNL     1      49.978   6.956  17.633  0.00  0.00    +0.000 OA
BRANCH   9  11
ATOM     10  O   UNL     1      51.522   5.299  17.301  0.00  0.00    +0.000 OA
ATOM     11  C   UNL     1      50.352   5.670  17.368  0.00  0.00    +0.000 C 
BRANCH  11  12
ATOM     12  C   UNL     1      49.180   4.817  17.204  0.00  0.00    +0.000 A 
ATOM     13  N   UNL     1      48.369   4.832  16.160  0.00  0.00    +0.000 NA
ATOM     14  C   UNL     1      47.358   3.907  16.341  0.00  0.00    +0.000 A 
ATOM     15  C   UNL     1      47.402   3.197  17.521  0.00  0.00    +0.000 A 
ATOM     16  S   UNL     1      48.758   3.695  18.442  0.00  0.00    +0.000 S 
ENDBRANCH  11  12
ENDBRANCH   9  11
ENDBRANCH   8   9
ENDBRANCH   2   8
ENDBRANCH   1   5
BRANCH   1  17
ATOM     17  N   UNL     1      46.577   6.784  11.696  0.00  0.00    +0.000 N 
ATOM     18  C   UNL     1      45.219   6.628  11.614  0.00  0.00    +0.000 C 
ATOM     19  O   UNL     1      44.443   7.580  11.646  0.00  0.00    +0.000 OA
ATOM     20  H   UNL     1      47.153   5.979  11.916  0.00  0.00    +0.000 HD
BRANCH  18  21
ATOM     21  C   UNL     1      44.740   5.252  11.418  0.00  0.00    +0.000 A 
ATOM     22  C   UNL     1      44.038   4.607  12.427  0.00  0.00    +0.000 A 
ATOM     23  S   UNL     1      43.479   3.056  11.981  0.00  0.00    +0.000 S 
ATOM     24  C   UNL     1      44.204   3.173  10.446  0.00  0.00    +0.000 A 
ATOM     25  N   UNL     1      44.108   2.160   9.544  0.00  0.00    +0.000 NA
ATOM     26  C   UNL     1      44.731   2.374   8.433  0.00  0.00    +0.000 A 
ATOM     27  N   UNL     1      45.449   3.505   8.144  0.00  0.00    +0.000 N 
ATOM     28  C   UNL     1      45.566   4.556   9.020  0.00  0.00    +0.000 A 
ATOM     29  O   UNL     1      46.206   5.559   8.727  0.00  0.00    +0.000 OA
ATOM     30  C   UNL     1      44.868   4.375  10.279  0.00  0.00    +0.000 A 
ATOM     31  H   UNL     1      45.921   3.611   7.259  0.00  0.00    +0.000 HD
ENDBRANCH  18  21
ENDBRANCH   1  17
TORSDOF 7
ENDMDL
MODEL 8
REMARK VINA RESULT:    -6.493      2.288      3.395
REMARK INTER + INTRA:         -10.296
REMARK INTER:                  -9.438
REMARK INTRA:                  -0.858
REMARK UNBOUND:                -1.146
REMARK  Name = 
REMARK  7 active torsions:
REMARK  status: ('A' for Active; 'I' for Inactive)
REMARK    1  A    between atoms: C_2  and  O_3
REMARK    2  A    between atoms: C_2  and  C_25
REMARK    3  A    between atoms: O_3  and  C_4
REMARK    4  A    between atoms: C_4  and  C_5
REMARK    5  A    between atoms: C_8  and  C_9
REMARK    6  A    between atoms: C_9  and  N_10
REMARK    7  A    between atoms: C_11  and  C_13
REMARK                            x       y       z     vdW  Elec       q    Type
REMARK                         _______ _______ _______ _____ _____    ______ ____
ROOT
ATOM      1  C   UNL     1      47.368   3.626  15.233  0.00  0.00    +0.000 C 
ENDROOT
BRANCH   1   5
ATOM      2  C   UNL     1      45.943   5.432  11.557  0.00  0.00    +0.000 A 
ATOM      3  C   UNL     1      46.877   6.098  12.364  0.00  0.00    +0.000 A 
ATOM      4  C   UNL     1      47.328   5.523  13.557  0.00  0.00    +0.000 A 
ATOM      5  C   UNL     1      46.864   4.266  13.963  0.00  0.00    +0.000 A 
ATOM      6  C   UNL     1      45.891   3.626  13.184  0.00  0.00    +0.000 A 
ATOM      7  C   UNL     1      45.439   4.200  11.992  0.00  0.00    +0.000 A 
BRANCH   2   8
ATOM      8  C   UNL     1      45.460   6.042  10.263  0.00  0.00    +0.000 C 
BRANCH   8   9
ATOM      9  O   UNL     1      46.021   5.337   9.147  0.00  0.00    +0.000 OA
BRANCH   9  11
ATOM     10  O   UNL     1      44.034   4.300   8.681  0.00  0.00    +0.000 OA
ATOM     11  C   UNL     1      45.260   4.337   8.612  0.00  0.00    +0.000 C 
BRANCH  11  12
ATOM     12  C   UNL     1      46.103   3.353   7.942  0.00  0.00    +0.000 A 
ATOM     13  N   UNL     1      46.997   3.628   7.008  0.00  0.00    +0.000 NA
ATOM     14  C   UNL     1      47.603   2.460   6.584  0.00  0.00    +0.000 A 
ATOM     15  C   UNL     1      47.165   1.305   7.192  0.00  0.00    +0.000 A 
ATOM     16  S   UNL     1      45.954   1.683   8.343  0.00  0.00    +0.000 S 
ENDBRANCH  11  12
ENDBRANCH   9  11
ENDBRANCH   8   9
ENDBRANCH   2   8
ENDBRANCH   1   5
BRANCH   1  17
ATOM     17  N   UNL     1      47.800   4.622  16.177  0.00  0.00    +0.000 N 
ATOM     18  C   UNL     1      47.536   4.511  17.516  0.00  0.00    +0.000 C 
ATOM     19  O   UNL     1      46.984   3.527  18.001  0.00  0.00    +0.000 OA
ATOM     20  H   UNL     1      48.021   5.533  15.792  0.00  0.00    +0.000 HD
BRANCH  18  21
ATOM     21  C   UNL     1      48.016   5.616  18.360  0.00  0.00    +0.000 A 
ATOM     22  C   UNL     1      47.134   6.295  19.189  0.00  0.00    +0.000 A 
ATOM     23  S   UNL     1      47.890   7.476  20.163  0.00  0.00    +0.000 S 
ATOM     24  C   UNL     1      49.410   7.158  19.469  0.00  0.00    +0.000 A 
ATOM     25  N   UNL     1      50.519   7.841  19.861  0.00  0.00    +0.000 NA
ATOM     26  C   UNL     1      51.598   7.516  19.229  0.00  0.00    +0.000 A 
ATOM     27  N   UNL     1      51.668   6.577  18.235  0.00  0.00    +0.000 N 
ATOM     28  C   UNL     1      50.577   5.857  17.813  0.00  0.00    +0.000 A 
ATOM     29  O   UNL     1      50.676   5.014  16.928  0.00  0.00    +0.000 OA
ATOM     30  C   UNL     1      49.342   6.170  18.504  0.00  0.00    +0.000 A 
ATOM     31  H   UNL     1      52.541   6.371  17.772  0.00  0.00    +0.000 HD
ENDBRANCH  18  21
ENDBRANCH   1  17
TORSDOF 7
ENDMDL
MODEL 9
REMARK VINA RESULT:    -6.451      4.690      9.418
REMARK INTER + INTRA:         -10.237
REMARK INTER:                  -9.177
REMARK INTRA:                  -1.060
REMARK UNBOUND:                -1.146
REMARK  Name = 
REMARK  7 active torsions:
REMARK  status: ('A' for Active; 'I' for Inactive)
REMARK    1  A    between atoms: C_2  and  O_3
REMARK    2  A    between atoms: C_2  and  C_25
REMARK    3  A    between atoms: O_3  and  C_4
REMARK    4  A    between atoms: C_4  and  C_5
REMARK    5  A    between atoms: C_8  and  C_9
REMARK    6  A    between atoms: C_9  and  N_10
REMARK    7  A    between atoms: C_11  and  C_13
REMARK                            x       y       z     vdW  Elec       q    Type
REMARK                         _______ _______ _______ _____ _____    ______ ____
ROOT
ATOM      1  C   UNL     1      47.278   3.453  16.989  0.00  0.00    +0.000 C 
ENDROOT
BRANCH   1   5
ATOM      2  C   UNL     1      51.548   3.398  17.743  0.00  0.00    +0.000 A 
ATOM      3  C   UNL     1      50.807   4.574  17.928  0.00  0.00    +0.000 A 
ATOM      4  C   UNL     1      49.431   4.597  17.672  0.00  0.00    +0.000 A 
ATOM      5  C   UNL     1      48.766   3.444  17.238  0.00  0.00    +0.000 A 
ATOM      6  C   UNL     1      49.518   2.286  17.002  0.00  0.00    +0.000 A 
ATOM      7  C   UNL     1      50.892   2.261  17.257  0.00  0.00    +0.000 A 
BRANCH   2   8
ATOM      8  C   UNL     1      53.032   3.364  18.027  0.00  0.00    +0.000 C 
BRANCH   8   9
ATOM      9  O   UNL     1      53.561   2.066  17.719  0.00  0.00    +0.000 OA
BRANCH   9  11
ATOM     10  O   UNL     1      54.300   1.840  19.873  0.00  0.00    +0.000 OA
ATOM     11  C   UNL     1      54.095   1.363  18.759  0.00  0.00    +0.000 C 
BRANCH  11  12
ATOM     12  C   UNL     1      54.359  -0.017  18.365  0.00  0.00    +0.000 A 
ATOM     13  N   UNL     1      54.220  -1.072  19.149  0.00  0.00    +0.000 NA
ATOM     14  C   UNL     1      54.568  -2.217  18.458  0.00  0.00    +0.000 A 
ATOM     15  C   UNL     1      54.972  -2.028  17.155  0.00  0.00    +0.000 A 
ATOM     16  S   UNL     1      54.915  -0.360  16.770  0.00  0.00    +0.000 S 
ENDBRANCH  11  12
ENDBRANCH   9  11
ENDBRANCH   8   9
ENDBRANCH   2   8
ENDBRANCH   1   5
BRANCH   1  17
ATOM     17  N   UNL     1      46.929   4.425  15.988  0.00  0.00    +0.000 N 
ATOM     18  C   UNL     1      47.026   4.150  14.649  0.00  0.00    +0.000 C 
ATOM     19  O   UNL     1      47.345   3.043  14.225  0.00  0.00    +0.000 OA
ATOM     20  H   UNL     1      46.910   5.392  16.292  0.00  0.00    +0.000 HD
BRANCH  18  21
ATOM     21  C   UNL     1      46.658   5.246  13.740  0.00  0.00    +0.000 A 
ATOM     22  C   UNL     1      45.516   5.150  12.957  0.00  0.00    +0.000 A 
ATOM     23  S   UNL     1      45.199   6.556  12.041  0.00  0.00    +0.000 S 
ATOM     24  C   UNL     1      46.607   7.318  12.618  0.00  0.00    +0.000 A 
ATOM     25  N   UNL     1      46.941   8.573  12.217  0.00  0.00    +0.000 NA
ATOM     26  C   UNL     1      48.050   9.014  12.712  0.00  0.00    +0.000 A 
ATOM     27  N   UNL     1      48.859   8.311  13.565  0.00  0.00    +0.000 N 
ATOM     28  C   UNL     1      48.558   7.045  14.003  0.00  0.00    +0.000 A 
ATOM     29  O   UNL     1      49.297   6.448  14.777  0.00  0.00    +0.000 OA
ATOM     30  C   UNL     1      47.312   6.509  13.491  0.00  0.00    +0.000 A 
ATOM     31  H   UNL     1      49.720   8.708  13.913  0.00  0.00    +0.000 HD
ENDBRANCH  18  21
ENDBRANCH   1  17
TORSDOF 7
ENDMDL
