MODEL 1
REMARK VINA RESULT:    -8.182      0.000      0.000
REMARK INTER + INTRA:         -11.958
REMARK INTER:                 -11.052
REMARK INTRA:                  -0.906
REMARK UNBOUND:                -0.906
REMARK  Name = 
REMARK  6 active torsions:
REMARK  status: ('A' for Active; 'I' for Inactive)
REMARK    1  A    between atoms: C_2  and  C_25
REMARK    2  A    between atoms: N_3  and  C_4
REMARK    3  A    between atoms: C_4  and  C_5
REMARK    4  A    between atoms: C_8  and  C_9
REMARK    5  A    between atoms: C_9  and  N_10
REMARK    6  A    between atoms: C_11  and  C_13
REMARK                            x       y       z     vdW  Elec       q    Type
REMARK                         _______ _______ _______ _____ _____    ______ ____
ROOT
ATOM      1  C   UNL     1      44.804   6.003  11.140  0.00  0.00    +0.000 A 
ATOM      2  C   UNL     1      44.409   7.310  11.422  0.00  0.00    +0.000 A 
ATOM      3  C   UNL     1      45.206   8.098  12.255  0.00  0.00    +0.000 A 
ATOM      4  C   UNL     1      46.369   7.565  12.815  0.00  0.00    +0.000 A 
ATOM      5  C   UNL     1      46.686   6.255  12.473  0.00  0.00    +0.000 A 
ATOM      6  N   UNL     1      45.936   5.467  11.662  0.00  0.00    +0.000 NA
ENDROOT
BRANCH   1   7
ATOM      7  C   UNL     1      43.981   5.139  10.205  0.00  0.00    +0.000 C 
BRANCH   7  10
ATOM      8  O   UNL     1      44.728   2.426   9.981  0.00  0.00    +0.000 OA
ATOM      9  C   UNL     1      45.075   3.215   9.108  0.00  0.00    +0.000 C 
ATOM     10  N   UNL     1      44.752   4.551   9.127  0.00  0.00    +0.000 N 
ATOM     11  H   UNL     1      45.120   5.148   8.392  0.00  0.00    +0.000 HD
BRANCH   9  12
ATOM     12  C   UNL     1      45.885   2.752   7.946  0.00  0.00    +0.000 A 
ATOM     13  C   UNL     1      46.441   1.480   7.974  0.00  0.00    +0.000 A 
ATOM     14  N   UNL     1      47.203   0.993   6.962  0.00  0.00    +0.000 NA
ATOM     15  C   UNL     1      47.385   1.840   5.924  0.00  0.00    +0.000 A 
ATOM     16  C   UNL     1      46.824   3.109   5.890  0.00  0.00    +0.000 A 
ATOM     17  N   UNL     1      46.056   3.603   6.893  0.00  0.00    +0.000 NA
ENDBRANCH   9  12
ENDBRANCH   7  10
ENDBRANCH   1   7
BRANCH   4  18
ATOM     18  C   UNL     1      47.263   8.377  13.710  0.00  0.00    +0.000 C 
BRANCH  18  19
ATOM     19  N   UNL     1      47.712   7.604  14.840  0.00  0.00    +0.000 N 
ATOM     20  C   UNL     1      48.948   7.004  14.874  0.00  0.00    +0.000 C 
ATOM     21  O   UNL     1      49.764   7.130  13.967  0.00  0.00    +0.000 OA
ATOM     22  H   UNL     1      46.989   7.254  15.457  0.00  0.00    +0.000 HD
BRANCH  20  23
ATOM     23  C   UNL     1      49.260   6.260  16.104  0.00  0.00    +0.000 A 
ATOM     24  C   UNL     1      50.319   6.656  16.911  0.00  0.00    +0.000 A 
ATOM     25  S   UNL     1      50.470   5.732  18.338  0.00  0.00    +0.000 S 
ATOM     26  C   UNL     1      49.168   4.729  17.897  0.00  0.00    +0.000 A 
ATOM     27  N   UNL     1      48.772   3.700  18.692  0.00  0.00    +0.000 NA
ATOM     28  C   UNL     1      47.788   3.007  18.222  0.00  0.00    +0.000 A 
ATOM     29  N   UNL     1      47.165   3.247  17.028  0.00  0.00    +0.000 N 
ATOM     30  C   UNL     1      47.517   4.290  16.201  0.00  0.00    +0.000 A 
ATOM     31  O   UNL     1      46.917   4.498  15.152  0.00  0.00    +0.000 OA
ATOM     32  C   UNL     1      48.617   5.102  16.684  0.00  0.00    +0.000 A 
ATOM     33  H   UNL     1      46.398   2.673  16.713  0.00  0.00    +0.000 HD
ENDBRANCH  20  23
ENDBRANCH  18  19
ENDBRANCH   4  18
TORSDOF 6
ENDMDL
MODEL 2
REMARK VINA RESULT:    -7.123      3.166      8.674
REMARK INTER + INTRA:         -10.528
REMARK INTER:                  -9.617
REMARK INTRA:                  -0.911
REMARK UNBOUND:                -0.906
REMARK  Name = 
REMARK  6 active torsions:
REMARK  status: ('A' for Active; 'I' for Inactive)
REMARK    1  A    between atoms: C_2  and  C_25
REMARK    2  A    between atoms: N_3  and  C_4
REMARK    3  A    between atoms: C_4  and  C_5
REMARK    4  A    between atoms: C_8  and  C_9
REMARK    5  A    between atoms: C_9  and  N_10
REMARK    6  A    between atoms: C_11  and  C_13
REMARK                            x       y       z     vdW  Elec       q    Type
REMARK                         _______ _______ _______ _____ _____    ______ ____
ROOT
ATOM      1  C   UNL     1      49.611   7.182  15.662  0.00  0.00    +0.000 A 
ATOM      2  C   UNL     1      49.720   8.385  14.967  0.00  0.00    +0.000 A 
ATOM      3  C   UNL     1      48.963   8.576  13.809  0.00  0.00    +0.000 A 
ATOM      4  C   UNL     1      48.131   7.555  13.346  0.00  0.00    +0.000 A 
ATOM      5  C   UNL     1      48.082   6.391  14.106  0.00  0.00    +0.000 A 
ATOM      6  N   UNL     1      48.800   6.179  15.238  0.00  0.00    +0.000 NA
ENDROOT
BRANCH   1   7
ATOM      7  C   UNL     1      50.388   6.964  16.945  0.00  0.00    +0.000 C 
BRANCH   7  10
ATOM      8  O   UNL     1      49.375   4.728  18.340  0.00  0.00    +0.000 OA
ATOM      9  C   UNL     1      50.444   4.628  17.746  0.00  0.00    +0.000 C 
ATOM     10  N   UNL     1      51.011   5.658  17.033  0.00  0.00    +0.000 N 
ATOM     11  H   UNL     1      51.923   5.509  16.610  0.00  0.00    +0.000 HD
BRANCH   9  12
ATOM     12  C   UNL     1      51.203   3.345  17.762  0.00  0.00    +0.000 A 
ATOM     13  C   UNL     1      50.590   2.192  17.291  0.00  0.00    +0.000 A 
ATOM     14  N   UNL     1      51.210   0.985  17.288  0.00  0.00    +0.000 NA
ATOM     15  C   UNL     1      52.469   0.985  17.783  0.00  0.00    +0.000 A 
ATOM     16  C   UNL     1      53.086   2.139  18.248  0.00  0.00    +0.000 A 
ATOM     17  N   UNL     1      52.478   3.352  18.249  0.00  0.00    +0.000 NA
ENDBRANCH   9  12
ENDBRANCH   7  10
ENDBRANCH   1   7
BRANCH   4  18
ATOM     18  C   UNL     1      47.291   7.716  12.109  0.00  0.00    +0.000 C 
BRANCH  18  19
ATOM     19  N   UNL     1      46.625   6.485  11.766  0.00  0.00    +0.000 N 
ATOM     20  C   UNL     1      45.256   6.383  11.706  0.00  0.00    +0.000 C 
ATOM     21  O   UNL     1      44.517   7.344  11.893  0.00  0.00    +0.000 OA
ATOM     22  H   UNL     1      47.168   5.637  11.882  0.00  0.00    +0.000 HD
BRANCH  20  23
ATOM     23  C   UNL     1      44.733   5.061  11.330  0.00  0.00    +0.000 A 
ATOM     24  C   UNL     1      43.943   4.342  12.217  0.00  0.00    +0.000 A 
ATOM     25  S   UNL     1      43.353   2.876  11.573  0.00  0.00    +0.000 S 
ATOM     26  C   UNL     1      44.186   3.117  10.108  0.00  0.00    +0.000 A 
ATOM     27  N   UNL     1      44.119   2.204   9.102  0.00  0.00    +0.000 NA
ATOM     28  C   UNL     1      44.820   2.503   8.060  0.00  0.00    +0.000 A 
ATOM     29  N   UNL     1      45.584   3.631   7.930  0.00  0.00    +0.000 N 
ATOM     30  C   UNL     1      45.665   4.592   8.912  0.00  0.00    +0.000 A 
ATOM     31  O   UNL     1      46.333   5.607   8.752  0.00  0.00    +0.000 OA
ATOM     32  C   UNL     1      44.894   4.305  10.107  0.00  0.00    +0.000 A 
ATOM     33  H   UNL     1      46.109   3.813   7.088  0.00  0.00    +0.000 HD
ENDBRANCH  20  23
ENDBRANCH  18  19
ENDBRANCH   4  18
TORSDOF 6
ENDMDL
MODEL 3
REMARK VINA RESULT:    -7.009      1.586      2.055
REMARK INTER + INTRA:         -10.374
REMARK INTER:                  -9.502
REMARK INTRA:                  -0.871
REMARK UNBOUND:                -0.906
REMARK  Name = 
REMARK  6 active torsions:
REMARK  status: ('A' for Active; 'I' for Inactive)
REMARK    1  A    between atoms: C_2  and  C_25
REMARK    2  A    between atoms: N_3  and  C_4
REMARK    3  A    between atoms: C_4  and  C_5
REMARK    4  A    between atoms: C_8  and  C_9
REMARK    5  A    between atoms: C_9  and  N_10
REMARK    6  A    between atoms: C_11  and  C_13
REMARK                            x       y       z     vdW  Elec       q    Type
REMARK                         _______ _______ _______ _____ _____    ______ ____
ROOT
ATOM      1  C   UNL     1      45.154   6.096  11.333  0.00  0.00    +0.000 A 
ATOM      2  C   UNL     1      46.237   5.514  11.990  0.00  0.00    +0.000 A 
ATOM      3  C   UNL     1      46.980   6.279  12.893  0.00  0.00    +0.000 A 
ATOM      4  C   UNL     1      46.649   7.618  13.107  0.00  0.00    +0.000 A 
ATOM      5  C   UNL     1      45.550   8.112  12.411  0.00  0.00    +0.000 A 
ATOM      6  N   UNL     1      44.806   7.392  11.534  0.00  0.00    +0.000 NA
ENDROOT
BRANCH   1   7
ATOM      7  C   UNL     1      44.305   5.278  10.381  0.00  0.00    +0.000 C 
BRANCH   7  10
ATOM      8  O   UNL     1      44.298   2.526   9.748  0.00  0.00    +0.000 OA
ATOM      9  C   UNL     1      45.003   3.289   9.094  0.00  0.00    +0.000 C 
ATOM     10  N   UNL     1      45.066   4.643   9.323  0.00  0.00    +0.000 N 
ATOM     11  H   UNL     1      45.712   5.197   8.769  0.00  0.00    +0.000 HD
BRANCH   9  12
ATOM     12  C   UNL     1      45.850   2.771   7.982  0.00  0.00    +0.000 A 
ATOM     13  C   UNL     1      46.376   1.489   8.074  0.00  0.00    +0.000 A 
ATOM     14  N   UNL     1      47.168   0.955   7.110  0.00  0.00    +0.000 NA
ATOM     15  C   UNL     1      47.412   1.763   6.054  0.00  0.00    +0.000 A 
ATOM     16  C   UNL     1      46.881   3.042   5.957  0.00  0.00    +0.000 A 
ATOM     17  N   UNL     1      46.082   3.584   6.911  0.00  0.00    +0.000 NA
ENDBRANCH   9  12
ENDBRANCH   7  10
ENDBRANCH   1   7
BRANCH   4  18
ATOM     18  C   UNL     1      47.413   8.479  14.074  0.00  0.00    +0.000 C 
BRANCH  18  19
ATOM     19  N   UNL     1      48.561   7.782  14.598  0.00  0.00    +0.000 N 
ATOM     20  C   UNL     1      49.630   8.444  15.152  0.00  0.00    +0.000 C 
ATOM     21  O   UNL     1      49.654   9.664  15.279  0.00  0.00    +0.000 OA
ATOM     22  H   UNL     1      48.698   6.836  14.265  0.00  0.00    +0.000 HD
BRANCH  20  23
ATOM     23  C   UNL     1      50.717   7.589  15.652  0.00  0.00    +0.000 A 
ATOM     24  C   UNL     1      52.040   7.897  15.362  0.00  0.00    +0.000 A 
ATOM     25  S   UNL     1      53.163   6.847  16.102  0.00  0.00    +0.000 S 
ATOM     26  C   UNL     1      51.921   5.903  16.783  0.00  0.00    +0.000 A 
ATOM     27  N   UNL     1      52.203   4.811  17.542  0.00  0.00    +0.000 NA
ATOM     28  C   UNL     1      51.165   4.175  17.972  0.00  0.00    +0.000 A 
ATOM     29  N   UNL     1      49.869   4.529  17.712  0.00  0.00    +0.000 N 
ATOM     30  C   UNL     1      49.535   5.638  16.967  0.00  0.00    +0.000 A 
ATOM     31  O   UNL     1      48.364   5.947  16.778  0.00  0.00    +0.000 OA
ATOM     32  C   UNL     1      50.667   6.390  16.460  0.00  0.00    +0.000 A 
ATOM     33  H   UNL     1      49.096   3.995  18.079  0.00  0.00    +0.000 HD
ENDBRANCH  20  23
ENDBRANCH  18  19
ENDBRANCH   4  18
TORSDOF 6
ENDMDL
MODEL 4
REMARK VINA RESULT:    -7.008      1.905      2.317
REMARK INTER + INTRA:         -10.372
REMARK INTER:                  -9.435
REMARK INTRA:                  -0.938
REMARK UNBOUND:                -0.906
REMARK  Name = 
REMARK  6 active torsions:
REMARK  status: ('A' for Active; 'I' for Inactive)
REMARK    1  A    between atoms: C_2  and  C_25
REMARK    2  A    between atoms: N_3  and  C_4
REMARK    3  A    between atoms: C_4  and  C_5
REMARK    4  A    between atoms: C_8  and  C_9
REMARK    5  A    between atoms: C_9  and  N_10
REMARK    6  A    between atoms: C_11  and  C_13
REMARK                            x       y       z     vdW  Elec       q    Type
REMARK                         _______ _______ _______ _____ _____    ______ ____
ROOT
ATOM      1  C   UNL     1      45.494   5.774  11.545  0.00  0.00    +0.000 A 
ATOM      2  C   UNL     1      45.972   5.142  12.691  0.00  0.00    +0.000 A 
ATOM      3  C   UNL     1      46.783   5.856  13.576  0.00  0.00    +0.000 A 
ATOM      4  C   UNL     1      47.127   7.180  13.291  0.00  0.00    +0.000 A 
ATOM      5  C   UNL     1      46.599   7.729  12.128  0.00  0.00    +0.000 A 
ATOM      6  N   UNL     1      45.803   7.063  11.253  0.00  0.00    +0.000 NA
ENDROOT
BRANCH   1   7
ATOM      7  C   UNL     1      44.577   5.037  10.589  0.00  0.00    +0.000 C 
BRANCH   7  10
ATOM      8  O   UNL     1      44.573   2.325   9.802  0.00  0.00    +0.000 OA
ATOM      9  C   UNL     1      45.207   3.140   9.139  0.00  0.00    +0.000 C 
ATOM     10  N   UNL     1      45.261   4.480   9.439  0.00  0.00    +0.000 N 
ATOM     11  H   UNL     1      45.850   5.080   8.868  0.00  0.00    +0.000 HD
BRANCH   9  12
ATOM     12  C   UNL     1      45.972   2.705   7.935  0.00  0.00    +0.000 A 
ATOM     13  C   UNL     1      46.518   1.429   7.906  0.00  0.00    +0.000 A 
ATOM     14  N   UNL     1      47.239   0.968   6.853  0.00  0.00    +0.000 NA
ATOM     15  C   UNL     1      47.392   1.844   5.834  0.00  0.00    +0.000 A 
ATOM     16  C   UNL     1      46.840   3.117   5.858  0.00  0.00    +0.000 A 
ATOM     17  N   UNL     1      46.112   3.586   6.902  0.00  0.00    +0.000 NA
ENDBRANCH   9  12
ENDBRANCH   7  10
ENDBRANCH   1   7
BRANCH   4  18
ATOM     18  C   UNL     1      47.990   7.991  14.217  0.00  0.00    +0.000 C 
BRANCH  18  19
ATOM     19  N   UNL     1      48.166   7.326  15.484  0.00  0.00    +0.000 N 
ATOM     20  C   UNL     1      49.404   6.959  15.953  0.00  0.00    +0.000 C 
ATOM     21  O   UNL     1      50.439   7.217  15.348  0.00  0.00    +0.000 OA
ATOM     22  H   UNL     1      47.349   6.861  15.860  0.00  0.00    +0.000 HD
BRANCH  20  23
ATOM     23  C   UNL     1      49.415   6.300  17.268  0.00  0.00    +0.000 A 
ATOM     24  C   UNL     1      50.064   5.084  17.436  0.00  0.00    +0.000 A 
ATOM     25  S   UNL     1      50.050   4.520  19.046  0.00  0.00    +0.000 S 
ATOM     26  C   UNL     1      49.121   5.847  19.565  0.00  0.00    +0.000 A 
ATOM     27  N   UNL     1      48.738   5.974  20.864  0.00  0.00    +0.000 NA
ATOM     28  C   UNL     1      48.015   7.015  21.111  0.00  0.00    +0.000 A 
ATOM     29  N   UNL     1      47.639   7.943  20.179  0.00  0.00    +0.000 N 
ATOM     30  C   UNL     1      48.020   7.868  18.858  0.00  0.00    +0.000 A 
ATOM     31  O   UNL     1      47.692   8.733  18.053  0.00  0.00    +0.000 OA
ATOM     32  C   UNL     1      48.836   6.715  18.527  0.00  0.00    +0.000 A 
ATOM     33  H   UNL     1      47.075   8.740  20.432  0.00  0.00    +0.000 HD
ENDBRANCH  20  23
ENDBRANCH  18  19
ENDBRANCH   4  18
TORSDOF 6
ENDMDL
MODEL 5
REMARK VINA RESULT:    -6.977      3.829      8.745
REMARK INTER + INTRA:         -10.330
REMARK INTER:                  -9.351
REMARK INTRA:                  -0.979
REMARK UNBOUND:                -0.906
REMARK  Name = 
REMARK  6 active torsions:
REMARK  status: ('A' for Active; 'I' for Inactive)
REMARK    1  A    between atoms: C_2  and  C_25
REMARK    2  A    between atoms: N_3  and  C_4
REMARK    3  A    between atoms: C_4  and  C_5
REMARK    4  A    between atoms: C_8  and  C_9
REMARK    5  A    between atoms: C_9  and  N_10
REMARK    6  A    between atoms: C_11  and  C_13
REMARK                            x       y       z     vdW  Elec       q    Type
REMARK                         _______ _______ _______ _____ _____    ______ ____
ROOT
ATOM      1  C   UNL     1      49.015   4.777  17.168  0.00  0.00    +0.000 A 
ATOM      2  C   UNL     1      49.721   5.930  16.829  0.00  0.00    +0.000 A 
ATOM      3  C   UNL     1      49.361   6.638  15.681  0.00  0.00    +0.000 A 
ATOM      4  C   UNL     1      48.322   6.173  14.873  0.00  0.00    +0.000 A 
ATOM      5  C   UNL     1      47.671   5.017  15.292  0.00  0.00    +0.000 A 
ATOM      6  N   UNL     1      47.993   4.312  16.406  0.00  0.00    +0.000 NA
ENDROOT
BRANCH   1   7
ATOM      7  C   UNL     1      49.356   4.012  18.431  0.00  0.00    +0.000 C 
BRANCH   7  10
ATOM      8  O   UNL     1      50.230   1.754  16.979  0.00  0.00    +0.000 OA
ATOM      9  C   UNL     1      51.028   2.349  17.697  0.00  0.00    +0.000 C 
ATOM     10  N   UNL     1      50.697   3.461  18.434  0.00  0.00    +0.000 N 
ATOM     11  H   UNL     1      51.404   3.866  19.042  0.00  0.00    +0.000 HD
BRANCH   9  12
ATOM     12  C   UNL     1      52.440   1.884  17.807  0.00  0.00    +0.000 A 
ATOM     13  C   UNL     1      53.467   2.813  17.700  0.00  0.00    +0.000 A 
ATOM     14  N   UNL     1      54.776   2.465  17.773  0.00  0.00    +0.000 NA
ATOM     15  C   UNL     1      55.010   1.145  17.954  0.00  0.00    +0.000 A 
ATOM     16  C   UNL     1      53.985   0.216  18.069  0.00  0.00    +0.000 A 
ATOM     17  N   UNL     1      52.672   0.554  18.004  0.00  0.00    +0.000 NA
ENDBRANCH   9  12
ENDBRANCH   7  10
ENDBRANCH   1   7
BRANCH   4  18
ATOM     18  C   UNL     1      47.892   6.905  13.632  0.00  0.00    +0.000 C 
BRANCH  18  19
ATOM     19  N   UNL     1      47.196   6.029  12.724  0.00  0.00    +0.000 N 
ATOM     20  C   UNL     1      46.245   6.489  11.845  0.00  0.00    +0.000 C 
ATOM     21  O   UNL     1      45.964   7.680  11.746  0.00  0.00    +0.000 OA
ATOM     22  H   UNL     1      47.194   5.046  12.966  0.00  0.00    +0.000 HD
BRANCH  20  23
ATOM     23  C   UNL     1      45.636   5.471  10.977  0.00  0.00    +0.000 A 
ATOM     24  C   UNL     1      45.759   5.563   9.597  0.00  0.00    +0.000 A 
ATOM     25  S   UNL     1      45.068   4.245   8.761  0.00  0.00    +0.000 S 
ATOM     26  C   UNL     1      44.522   3.537  10.209  0.00  0.00    +0.000 A 
ATOM     27  N   UNL     1      43.827   2.368  10.203  0.00  0.00    +0.000 NA
ATOM     28  C   UNL     1      43.454   1.960  11.370  0.00  0.00    +0.000 A 
ATOM     29  N   UNL     1      43.710   2.614  12.544  0.00  0.00    +0.000 N 
ATOM     30  C   UNL     1      44.428   3.787  12.602  0.00  0.00    +0.000 A 
ATOM     31  O   UNL     1      44.668   4.332  13.673  0.00  0.00    +0.000 OA
ATOM     32  C   UNL     1      44.873   4.289  11.316  0.00  0.00    +0.000 A 
ATOM     33  H   UNL     1      43.395   2.245  13.428  0.00  0.00    +0.000 HD
ENDBRANCH  20  23
ENDBRANCH  18  19
ENDBRANCH   4  18
TORSDOF 6
ENDMDL
MODEL 6
REMARK VINA RESULT:    -6.907      3.444      4.812
REMARK INTER + INTRA:         -10.236
REMARK INTER:                  -9.175
REMARK INTRA:                  -1.062
REMARK UNBOUND:                -0.906
REMARK  Name = 
REMARK  6 active torsions:
REMARK  status: ('A' for Active; 'I' for Inactive)
REMARK    1  A    between atoms: C_2  and  C_25
REMARK    2  A    between atoms: N_3  and  C_4
REMARK    3  A    between atoms: C_4  and  C_5
REMARK    4  A    between atoms: C_8  and  C_9
REMARK    5  A    between atoms: C_9  and  N_10
REMARK    6  A    between atoms: C_11  and  C_13
REMARK                            x       y       z     vdW  Elec       q    Type
REMARK                         _______ _______ _______ _____ _____    ______ ____
ROOT
ATOM      1  C   UNL     1      44.886   6.056  11.412  0.00  0.00    +0.000 A 
ATOM      2  C   UNL     1      44.630   7.426  11.389  0.00  0.00    +0.000 A 
ATOM      3  C   UNL     1      45.382   8.275  12.205  0.00  0.00    +0.000 A 
ATOM      4  C   UNL     1      46.358   7.743  13.050  0.00  0.00    +0.000 A 
ATOM      5  C   UNL     1      46.547   6.366  13.002  0.00  0.00    +0.000 A 
ATOM      6  N   UNL     1      45.838   5.517  12.216  0.00  0.00    +0.000 NA
ENDROOT
BRANCH   1   7
ATOM      7  C   UNL     1      44.116   5.117  10.506  0.00  0.00    +0.000 C 
BRANCH   7  10
ATOM      8  O   UNL     1      44.344   2.387   9.824  0.00  0.00    +0.000 OA
ATOM      9  C   UNL     1      44.966   3.219   9.172  0.00  0.00    +0.000 C 
ATOM     10  N   UNL     1      44.911   4.570   9.424  0.00  0.00    +0.000 N 
ATOM     11  H   UNL     1      45.495   5.189   8.869  0.00  0.00    +0.000 HD
BRANCH   9  12
ATOM     12  C   UNL     1      45.836   2.798   8.038  0.00  0.00    +0.000 A 
ATOM     13  C   UNL     1      46.382   1.521   8.043  0.00  0.00    +0.000 A 
ATOM     14  N   UNL     1      47.195   1.071   7.055  0.00  0.00    +0.000 NA
ATOM     15  C   UNL     1      47.440   1.958   6.064  0.00  0.00    +0.000 A 
ATOM     16  C   UNL     1      46.889   3.232   6.053  0.00  0.00    +0.000 A 
ATOM     17  N   UNL     1      46.069   3.690   7.032  0.00  0.00    +0.000 NA
ENDBRANCH   9  12
ENDBRANCH   7  10
ENDBRANCH   1   7
BRANCH   4  18
ATOM     18  C   UNL     1      47.198   8.617  13.940  0.00  0.00    +0.000 C 
BRANCH  18  19
ATOM     19  N   UNL     1      48.492   8.865  13.356  0.00  0.00    +0.000 N 
ATOM     20  C   UNL     1      48.789  10.035  12.700  0.00  0.00    +0.000 C 
ATOM     21  O   UNL     1      47.988  10.960  12.612  0.00  0.00    +0.000 OA
ATOM     22  H   UNL     1      49.060   8.048  13.166  0.00  0.00    +0.000 HD
BRANCH  20  23
ATOM     23  C   UNL     1      50.157  10.139  12.171  0.00  0.00    +0.000 A 
ATOM     24  C   UNL     1      50.842  11.345  12.233  0.00  0.00    +0.000 A 
ATOM     25  S   UNL     1      52.446  11.249  11.657  0.00  0.00    +0.000 S 
ATOM     26  C   UNL     1      52.262   9.608  11.245  0.00  0.00    +0.000 A 
ATOM     27  N   UNL     1      53.280   8.907  10.679  0.00  0.00    +0.000 NA
ATOM     28  C   UNL     1      52.993   7.680  10.396  0.00  0.00    +0.000 A 
ATOM     29  N   UNL     1      51.780   7.090  10.624  0.00  0.00    +0.000 N 
ATOM     30  C   UNL     1      50.728   7.754  11.213  0.00  0.00    +0.000 A 
ATOM     31  O   UNL     1      49.663   7.187  11.433  0.00  0.00    +0.000 OA
ATOM     32  C   UNL     1      50.999   9.137  11.553  0.00  0.00    +0.000 A 
ATOM     33  H   UNL     1      51.614   6.124  10.384  0.00  0.00    +0.000 HD
ENDBRANCH  20  23
ENDBRANCH  18  19
ENDBRANCH   4  18
TORSDOF 6
ENDMDL
MODEL 7
REMARK VINA RESULT:    -6.867      3.625      8.343
REMARK INTER + INTRA:         -10.181
REMARK INTER:                  -9.275
REMARK INTRA:                  -0.906
REMARK UNBOUND:                -0.906
REMARK  Name = 
REMARK  6 active torsions:
REMARK  status: ('A' for Active; 'I' for Inactive)
REMARK    1  A    between atoms: C_2  and  C_25
REMARK    2  A    between atoms: N_3  and  C_4
REMARK    3  A    between atoms: C_4  and  C_5
REMARK    4  A    between atoms: C_8  and  C_9
REMARK    5  A    between atoms: C_9  and  N_10
REMARK    6  A    between atoms: C_11  and  C_13
REMARK                            x       y       z     vdW  Elec       q    Type
REMARK                         _______ _______ _______ _____ _____    ______ ____
ROOT
ATOM      1  C   UNL     1      49.908   7.012  15.927  0.00  0.00    +0.000 A 
ATOM      2  C   UNL     1      48.612   6.641  15.570  0.00  0.00    +0.000 A 
ATOM      3  C   UNL     1      48.150   6.930  14.284  0.00  0.00    +0.000 A 
ATOM      4  C   UNL     1      48.974   7.607  13.384  0.00  0.00    +0.000 A 
ATOM      5  C   UNL     1      50.252   7.933  13.826  0.00  0.00    +0.000 A 
ATOM      6  N   UNL     1      50.732   7.659  15.065  0.00  0.00    +0.000 NA
ENDROOT
BRANCH   1   7
ATOM      7  C   UNL     1      50.451   6.673  17.301  0.00  0.00    +0.000 C 
BRANCH   7  10
ATOM      8  O   UNL     1      49.422   4.125  17.949  0.00  0.00    +0.000 OA
ATOM      9  C   UNL     1      50.612   4.236  17.676  0.00  0.00    +0.000 C 
ATOM     10  N   UNL     1      51.201   5.432  17.340  0.00  0.00    +0.000 N 
ATOM     11  H   UNL     1      52.204   5.449  17.175  0.00  0.00    +0.000 HD
BRANCH   9  12
ATOM     12  C   UNL     1      51.508   3.045  17.689  0.00  0.00    +0.000 A 
ATOM     13  C   UNL     1      50.983   1.802  17.363  0.00  0.00    +0.000 A 
ATOM     14  N   UNL     1      51.731   0.670  17.368  0.00  0.00    +0.000 NA
ATOM     15  C   UNL     1      53.026   0.839  17.720  0.00  0.00    +0.000 A 
ATOM     16  C   UNL     1      53.554   2.082  18.039  0.00  0.00    +0.000 A 
ATOM     17  N   UNL     1      52.817   3.221  18.031  0.00  0.00    +0.000 NA
ENDBRANCH   9  12
ENDBRANCH   7  10
ENDBRANCH   1   7
BRANCH   4  18
ATOM     18  C   UNL     1      48.524   7.932  11.987  0.00  0.00    +0.000 C 
BRANCH  18  19
ATOM     19  N   UNL     1      47.728   6.866  11.433  0.00  0.00    +0.000 N 
ATOM     20  C   UNL     1      46.357   6.932  11.369  0.00  0.00    +0.000 C 
ATOM     21  O   UNL     1      45.729   7.921  11.733  0.00  0.00    +0.000 OA
ATOM     22  H   UNL     1      48.170   5.956  11.389  0.00  0.00    +0.000 HD
BRANCH  20  23
ATOM     23  C   UNL     1      45.692   5.767  10.765  0.00  0.00    +0.000 A 
ATOM     24  C   UNL     1      45.819   5.516   9.405  0.00  0.00    +0.000 A 
ATOM     25  S   UNL     1      45.057   4.073   8.904  0.00  0.00    +0.000 S 
ATOM     26  C   UNL     1      44.475   3.767  10.474  0.00  0.00    +0.000 A 
ATOM     27  N   UNL     1      43.717   2.670  10.741  0.00  0.00    +0.000 NA
ATOM     28  C   UNL     1      43.323   2.577  11.967  0.00  0.00    +0.000 A 
ATOM     29  N   UNL     1      43.615   3.480  12.952  0.00  0.00    +0.000 N 
ATOM     30  C   UNL     1      44.396   4.593  12.733  0.00  0.00    +0.000 A 
ATOM     31  O   UNL     1      44.666   5.367  13.644  0.00  0.00    +0.000 OA
ATOM     32  C   UNL     1      44.867   4.745  11.370  0.00  0.00    +0.000 A 
ATOM     33  H   UNL     1      43.281   3.353  13.895  0.00  0.00    +0.000 HD
ENDBRANCH  20  23
ENDBRANCH  18  19
ENDBRANCH   4  18
TORSDOF 6
ENDMDL
MODEL 8
REMARK VINA RESULT:    -6.817      2.225      3.149
REMARK INTER + INTRA:         -10.115
REMARK INTER:                  -9.292
REMARK INTRA:                  -0.823
REMARK UNBOUND:                -0.906
REMARK  Name = 
REMARK  6 active torsions:
REMARK  status: ('A' for Active; 'I' for Inactive)
REMARK    1  A    between atoms: C_2  and  C_25
REMARK    2  A    between atoms: N_3  and  C_4
REMARK    3  A    between atoms: C_4  and  C_5
REMARK    4  A    between atoms: C_8  and  C_9
REMARK    5  A    between atoms: C_9  and  N_10
REMARK    6  A    between atoms: C_11  and  C_13
REMARK                            x       y       z     vdW  Elec       q    Type
REMARK                         _______ _______ _______ _____ _____    ______ ____
ROOT
ATOM      1  C   UNL     1      45.309   5.088  11.482  0.00  0.00    +0.000 A 
ATOM      2  C   UNL     1      46.279   5.950  11.989  0.00  0.00    +0.000 A 
ATOM      3  C   UNL     1      46.824   5.699  13.251  0.00  0.00    +0.000 A 
ATOM      4  C   UNL     1      46.374   4.608  13.998  0.00  0.00    +0.000 A 
ATOM      5  C   UNL     1      45.407   3.800  13.409  0.00  0.00    +0.000 A 
ATOM      6  N   UNL     1      44.865   4.014  12.183  0.00  0.00    +0.000 NA
ENDROOT
BRANCH   1   7
ATOM      7  C   UNL     1      44.733   5.312  10.098  0.00  0.00    +0.000 C 
BRANCH   7  10
ATOM      8  O   UNL     1      44.356   2.734   9.012  0.00  0.00    +0.000 OA
ATOM      9  C   UNL     1      45.261   3.439   8.577  0.00  0.00    +0.000 C 
ATOM     10  N   UNL     1      45.516   4.710   9.037  0.00  0.00    +0.000 N 
ATOM     11  H   UNL     1      46.315   5.210   8.659  0.00  0.00    +0.000 HD
BRANCH   9  12
ATOM     12  C   UNL     1      46.155   2.942   7.493  0.00  0.00    +0.000 A 
ATOM     13  C   UNL     1      46.819   1.735   7.665  0.00  0.00    +0.000 A 
ATOM     14  N   UNL     1      47.661   1.225   6.731  0.00  0.00    +0.000 NA
ATOM     15  C   UNL     1      47.811   1.982   5.620  0.00  0.00    +0.000 A 
ATOM     16  C   UNL     1      47.143   3.185   5.443  0.00  0.00    +0.000 A 
ATOM     17  N   UNL     1      46.294   3.701   6.367  0.00  0.00    +0.000 NA
ENDBRANCH   9  12
ENDBRANCH   7  10
ENDBRANCH   1   7
BRANCH   4  18
ATOM     18  C   UNL     1      46.935   4.292  15.356  0.00  0.00    +0.000 C 
BRANCH  18  19
ATOM     19  N   UNL     1      47.837   5.324  15.802  0.00  0.00    +0.000 N 
ATOM     20  C   UNL     1      48.129   5.520  17.130  0.00  0.00    +0.000 C 
ATOM     21  O   UNL     1      47.680   4.798  18.015  0.00  0.00    +0.000 OA
ATOM     22  H   UNL     1      47.995   6.088  15.155  0.00  0.00    +0.000 HD
BRANCH  20  23
ATOM     23  C   UNL     1      49.076   6.607  17.419  0.00  0.00    +0.000 A 
ATOM     24  C   UNL     1      48.615   7.902  17.619  0.00  0.00    +0.000 A 
ATOM     25  S   UNL     1      49.847   9.008  18.033  0.00  0.00    +0.000 S 
ATOM     26  C   UNL     1      51.049   7.811  17.897  0.00  0.00    +0.000 A 
ATOM     27  N   UNL     1      52.360   8.101  18.114  0.00  0.00    +0.000 NA
ATOM     28  C   UNL     1      53.164   7.104  17.950  0.00  0.00    +0.000 A 
ATOM     29  N   UNL     1      52.779   5.842  17.589  0.00  0.00    +0.000 N 
ATOM     30  C   UNL     1      51.463   5.496  17.380  0.00  0.00    +0.000 A 
ATOM     31  O   UNL     1      51.147   4.348  17.088  0.00  0.00    +0.000 OA
ATOM     32  C   UNL     1      50.516   6.582  17.552  0.00  0.00    +0.000 A 
ATOM     33  H   UNL     1      53.453   5.100  17.479  0.00  0.00    +0.000 HD
ENDBRANCH  20  23
ENDBRANCH  18  19
ENDBRANCH   4  18
TORSDOF 6
ENDMDL
MODEL 9
REMARK VINA RESULT:    -6.437      3.223      4.702
REMARK INTER + INTRA:          -9.601
REMARK INTER:                  -8.635
REMARK INTRA:                  -0.967
REMARK UNBOUND:                -0.906
REMARK  Name = 
REMARK  6 active torsions:
REMARK  status: ('A' for Active; 'I' for Inactive)
REMARK    1  A    between atoms: C_2  and  C_25
REMARK    2  A    between atoms: N_3  and  C_4
REMARK    3  A    between atoms: C_4  and  C_5
REMARK    4  A    between atoms: C_8  and  C_9
REMARK    5  A    between atoms: C_9  and  N_10
REMARK    6  A    between atoms: C_11  and  C_13
REMARK                            x       y       z     vdW  Elec       q    Type
REMARK                         _______ _______ _______ _____ _____    ______ ____
ROOT
ATOM      1  C   UNL     1      48.169   7.910  13.327  0.00  0.00    +0.000 A 
ATOM      2  C   UNL     1      49.174   7.009  13.673  0.00  0.00    +0.000 A 
ATOM      3  C   UNL     1      49.731   7.066  14.953  0.00  0.00    +0.000 A 
ATOM      4  C   UNL     1      49.297   8.037  15.858  0.00  0.00    +0.000 A 
ATOM      5  C   UNL     1      48.287   8.891  15.426  0.00  0.00    +0.000 A 
ATOM      6  N   UNL     1      47.722   8.855  14.193  0.00  0.00    +0.000 NA
ENDROOT
BRANCH   1   7
ATOM      7  C   UNL     1      47.517   7.843  11.960  0.00  0.00    +0.000 C 
BRANCH   7  10
ATOM      8  O   UNL     1      44.900   7.361  12.903  0.00  0.00    +0.000 OA
ATOM      9  C   UNL     1      45.471   6.491  12.252  0.00  0.00    +0.000 C 
ATOM     10  N   UNL     1      46.740   6.638  11.745  0.00  0.00    +0.000 N 
ATOM     11  H   UNL     1      47.161   5.851  11.259  0.00  0.00    +0.000 HD
BRANCH   9  12
ATOM     12  C   UNL     1      44.796   5.194  11.966  0.00  0.00    +0.000 A 
ATOM     13  C   UNL     1      44.265   4.461  13.019  0.00  0.00    +0.000 A 
ATOM     14  N   UNL     1      43.650   3.265  12.839  0.00  0.00    +0.000 NA
ATOM     15  C   UNL     1      43.595   2.835  11.558  0.00  0.00    +0.000 A 
ATOM     16  C   UNL     1      44.119   3.569  10.503  0.00  0.00    +0.000 A 
ATOM     17  N   UNL     1      44.729   4.769  10.670  0.00  0.00    +0.000 NA
ENDBRANCH   9  12
ENDBRANCH   7  10
ENDBRANCH   1   7
BRANCH   4  18
ATOM     18  C   UNL     1      49.860   8.132  17.249  0.00  0.00    +0.000 C 
BRANCH  18  19
ATOM     19  N   UNL     1      50.767   7.046  17.520  0.00  0.00    +0.000 N 
ATOM     20  C   UNL     1      50.441   6.012  18.364  0.00  0.00    +0.000 C 
ATOM     21  O   UNL     1      49.342   5.924  18.901  0.00  0.00    +0.000 OA
ATOM     22  H   UNL     1      51.746   7.224  17.331  0.00  0.00    +0.000 HD
BRANCH  20  23
ATOM     23  C   UNL     1      51.472   4.975  18.527  0.00  0.00    +0.000 A 
ATOM     24  C   UNL     1      52.656   5.264  19.192  0.00  0.00    +0.000 A 
ATOM     25  S   UNL     1      53.688   3.915  19.363  0.00  0.00    +0.000 S 
ATOM     26  C   UNL     1      52.619   2.913  18.498  0.00  0.00    +0.000 A 
ATOM     27  N   UNL     1      52.912   1.605  18.267  0.00  0.00    +0.000 NA
ATOM     28  C   UNL     1      52.023   0.971  17.578  0.00  0.00    +0.000 A 
ATOM     29  N   UNL     1      50.868   1.523  17.096  0.00  0.00    +0.000 N 
ATOM     30  C   UNL     1      50.519   2.836  17.323  0.00  0.00    +0.000 A 
ATOM     31  O   UNL     1      49.462   3.293  16.905  0.00  0.00    +0.000 OA
ATOM     32  C   UNL     1      51.485   3.594  18.096  0.00  0.00    +0.000 A 
ATOM     33  H   UNL     1      50.208   0.976  16.565  0.00  0.00    +0.000 HD
ENDBRANCH  20  23
ENDBRANCH  18  19
ENDBRANCH   4  18
TORSDOF 6
ENDMDL
