MODEL 1
REMARK VINA RESULT:    -7.879      0.000      0.000
REMARK INTER + INTRA:         -12.288
REMARK INTER:                 -11.564
REMARK INTRA:                  -0.724
REMARK UNBOUND:                -0.724
REMARK  Name = 
REMARK  10 active torsions:
REMARK  status: ('A' for Active; 'I' for Inactive)
REMARK    1  A    between atoms: C_1  and  C_2
REMARK    2  A    between atoms: C_2  and  N_3
REMARK    3  A    between atoms: C_2  and  C_20
REMARK    4  A    between atoms: N_3  and  C_4
REMARK    5  A    between atoms: C_4  and  C_5
REMARK    6  A    between atoms: C_8  and  C_9
REMARK    7  A    between atoms: C_9  and  C_10
REMARK    8  A    between atoms: C_10  and  N_11
REMARK    9  A    between atoms: N_11  and  C_12
REMARK   10  A    between atoms: N_15  and  C_16
REMARK                            x       y       z     vdW  Elec       q    Type
REMARK                         _______ _______ _______ _____ _____    ______ ____
ROOT
ATOM      1  C   UNL     1      47.690   5.533  14.682  0.00  0.00    +0.000 C 
ENDROOT
BRANCH   1   2
ATOM      2  C   UNL     1      46.585   5.114  13.739  0.00  0.00    +0.000 A 
ATOM      3  C   UNL     1      45.745   6.074  13.160  0.00  0.00    +0.000 A 
ATOM      4  C   UNL     1      44.783   5.704  12.219  0.00  0.00    +0.000 A 
ATOM      5  C   UNL     1      44.649   4.366  11.824  0.00  0.00    +0.000 A 
ATOM      6  C   UNL     1      45.474   3.403  12.417  0.00  0.00    +0.000 A 
ATOM      7  C   UNL     1      46.431   3.773  13.366  0.00  0.00    +0.000 A 
BRANCH   5   8
ATOM      8  C   UNL     1      43.645   3.965  10.769  0.00  0.00    +0.000 C 
BRANCH   8   9
ATOM      9  C   UNL     1      44.115   4.360   9.363  0.00  0.00    +0.000 C 
BRANCH   9  10
ATOM     10  N   UNL     1      44.352   3.182   8.520  0.00  0.00    +0.000 NA
ATOM     11  H   UNL     1      43.968   3.345   7.589  0.00  0.00    +0.000 HD
BRANCH  10  12
ATOM     12  C   UNL     1      45.791   2.898   8.410  0.00  0.00    +0.000 C 
ATOM     13  C   UNL     1      46.088   1.392   8.459  0.00  0.00    +0.000 C 
ATOM     14  C   UNL     1      46.847   1.091   7.172  0.00  0.00    +0.000 C 
ATOM     15  N   UNL     1      47.485   2.368   6.849  0.00  0.00    +0.000 NA
ATOM     16  C   UNL     1      47.976   2.423   5.480  0.00  0.00    +0.000 C 
ATOM     17  C   UNL     1      46.439   3.361   7.090  0.00  0.00    +0.000 C 
ENDBRANCH  10  12
ENDBRANCH   9  10
ENDBRANCH   8   9
ENDBRANCH   5   8
ENDBRANCH   1   2
BRANCH   1  18
ATOM     18  N   UNL     1      48.194   4.403  15.458  0.00  0.00    +0.000 NA
ATOM     19  H   UNL     1      49.202   4.342  15.300  0.00  0.00    +0.000 HD
BRANCH  18  21
ATOM     20  C   UNL     1      47.026   3.495  17.493  0.00  0.00    +0.000 C 
ATOM     21  C   UNL     1      47.969   4.552  16.902  0.00  0.00    +0.000 C 
BRANCH  21  22
ATOM     22  C   UNL     1      49.334   4.469  17.557  0.00  0.00    +0.000 A 
ATOM     23  C   UNL     1      49.888   5.479  18.334  0.00  0.00    +0.000 A 
ATOM     24  S   UNL     1      51.441   5.100  18.929  0.00  0.00    +0.000 S 
ATOM     25  C   UNL     1      51.421   3.574  18.178  0.00  0.00    +0.000 A 
ATOM     26  N   UNL     1      52.470   2.717  18.295  0.00  0.00    +0.000 NA
ATOM     27  C   UNL     1      52.311   1.596  17.675  0.00  0.00    +0.000 A 
ATOM     28  N   UNL     1      51.203   1.252  16.944  0.00  0.00    +0.000 N 
ATOM     29  C   UNL     1      50.117   2.086  16.786  0.00  0.00    +0.000 A 
ATOM     30  O   UNL     1      49.150   1.751  16.115  0.00  0.00    +0.000 OA
ATOM     31  C   UNL     1      50.248   3.359  17.474  0.00  0.00    +0.000 A 
ATOM     32  H   UNL     1      51.144   0.359  16.480  0.00  0.00    +0.000 HD
ENDBRANCH  21  22
ENDBRANCH  18  21
ENDBRANCH   1  18
TORSDOF 8
ENDMDL
MODEL 2
REMARK VINA RESULT:    -7.629      2.170      2.946
REMARK INTER + INTRA:         -11.921
REMARK INTER:                 -10.878
REMARK INTRA:                  -1.043
REMARK UNBOUND:                -0.724
REMARK  Name = 
REMARK  10 active torsions:
REMARK  status: ('A' for Active; 'I' for Inactive)
REMARK    1  A    between atoms: C_1  and  C_2
REMARK    2  A    between atoms: C_2  and  N_3
REMARK    3  A    between atoms: C_2  and  C_20
REMARK    4  A    between atoms: N_3  and  C_4
REMARK    5  A    between atoms: C_4  and  C_5
REMARK    6  A    between atoms: C_8  and  C_9
REMARK    7  A    between atoms: C_9  and  C_10
REMARK    8  A    between atoms: C_10  and  N_11
REMARK    9  A    between atoms: N_11  and  C_12
REMARK   10  A    between atoms: N_15  and  C_16
REMARK                            x       y       z     vdW  Elec       q    Type
REMARK                         _______ _______ _______ _____ _____    ______ ____
ROOT
ATOM      1  C   UNL     1      48.375   6.668  13.470  0.00  0.00    +0.000 C 
ENDROOT
BRANCH   1   2
ATOM      2  C   UNL     1      47.046   6.141  12.980  0.00  0.00    +0.000 A 
ATOM      3  C   UNL     1      46.448   6.680  11.833  0.00  0.00    +0.000 A 
ATOM      4  C   UNL     1      45.268   6.137  11.323  0.00  0.00    +0.000 A 
ATOM      5  C   UNL     1      44.667   5.031  11.940  0.00  0.00    +0.000 A 
ATOM      6  C   UNL     1      45.252   4.505  13.097  0.00  0.00    +0.000 A 
ATOM      7  C   UNL     1      46.429   5.055  13.613  0.00  0.00    +0.000 A 
BRANCH   5   8
ATOM      8  C   UNL     1      43.418   4.407  11.364  0.00  0.00    +0.000 C 
BRANCH   8   9
ATOM      9  C   UNL     1      43.647   2.940  10.977  0.00  0.00    +0.000 C 
BRANCH   9  10
ATOM     10  N   UNL     1      45.004   2.722  10.459  0.00  0.00    +0.000 NA
ATOM     11  H   UNL     1      45.380   1.854  10.843  0.00  0.00    +0.000 HD
BRANCH  10  12
ATOM     12  C   UNL     1      44.996   2.642   8.990  0.00  0.00    +0.000 C 
ATOM     13  C   UNL     1      45.299   3.999   8.337  0.00  0.00    +0.000 C 
ATOM     14  C   UNL     1      46.511   3.754   7.446  0.00  0.00    +0.000 C 
ATOM     15  N   UNL     1      46.410   2.330   7.122  0.00  0.00    +0.000 NA
ATOM     16  C   UNL     1      47.644   1.788   6.572  0.00  0.00    +0.000 C 
ATOM     17  C   UNL     1      46.058   1.698   8.392  0.00  0.00    +0.000 C 
ENDBRANCH  10  12
ENDBRANCH   9  10
ENDBRANCH   8   9
ENDBRANCH   5   8
ENDBRANCH   1   2
BRANCH   1  18
ATOM     18  N   UNL     1      48.734   6.105  14.769  0.00  0.00    +0.000 NA
ATOM     19  H   UNL     1      49.197   5.210  14.603  0.00  0.00    +0.000 HD
BRANCH  18  21
ATOM     20  C   UNL     1      49.857   8.352  14.919  0.00  0.00    +0.000 C 
ATOM     21  C   UNL     1      49.655   6.959  15.531  0.00  0.00    +0.000 C 
BRANCH  21  22
ATOM     22  C   UNL     1      49.072   7.073  16.927  0.00  0.00    +0.000 A 
ATOM     23  C   UNL     1      48.463   8.218  17.425  0.00  0.00    +0.000 A 
ATOM     24  S   UNL     1      47.912   8.048  19.030  0.00  0.00    +0.000 S 
ATOM     25  C   UNL     1      48.461   6.440  19.109  0.00  0.00    +0.000 A 
ATOM     26  N   UNL     1      48.294   5.693  20.234  0.00  0.00    +0.000 NA
ATOM     27  C   UNL     1      48.755   4.491  20.146  0.00  0.00    +0.000 A 
ATOM     28  N   UNL     1      49.374   3.965  19.040  0.00  0.00    +0.000 N 
ATOM     29  C   UNL     1      49.575   4.681  17.879  0.00  0.00    +0.000 A 
ATOM     30  O   UNL     1      50.143   4.183  16.916  0.00  0.00    +0.000 OA
ATOM     31  C   UNL     1      49.064   6.039  17.930  0.00  0.00    +0.000 A 
ATOM     32  H   UNL     1      49.715   3.016  19.038  0.00  0.00    +0.000 HD
ENDBRANCH  21  22
ENDBRANCH  18  21
ENDBRANCH   1  18
TORSDOF 8
ENDMDL
MODEL 3
REMARK VINA RESULT:    -6.979      1.987      2.932
REMARK INTER + INTRA:         -10.967
REMARK INTER:                  -9.959
REMARK INTRA:                  -1.008
REMARK UNBOUND:                -0.724
REMARK  Name = 
REMARK  10 active torsions:
REMARK  status: ('A' for Active; 'I' for Inactive)
REMARK    1  A    between atoms: C_1  and  C_2
REMARK    2  A    between atoms: C_2  and  N_3
REMARK    3  A    between atoms: C_2  and  C_20
REMARK    4  A    between atoms: N_3  and  C_4
REMARK    5  A    between atoms: C_4  and  C_5
REMARK    6  A    between atoms: C_8  and  C_9
REMARK    7  A    between atoms: C_9  and  C_10
REMARK    8  A    between atoms: C_10  and  N_11
REMARK    9  A    between atoms: N_11  and  C_12
REMARK   10  A    between atoms: N_15  and  C_16
REMARK                            x       y       z     vdW  Elec       q    Type
REMARK                         _______ _______ _______ _____ _____    ______ ____
ROOT
ATOM      1  C   UNL     1      48.912   7.390  15.074  0.00  0.00    +0.000 C 
ENDROOT
BRANCH   1   2
ATOM      2  C   UNL     1      47.792   7.338  14.061  0.00  0.00    +0.000 A 
ATOM      3  C   UNL     1      47.304   6.107  13.605  0.00  0.00    +0.000 A 
ATOM      4  C   UNL     1      46.210   6.050  12.740  0.00  0.00    +0.000 A 
ATOM      5  C   UNL     1      45.568   7.224  12.324  0.00  0.00    +0.000 A 
ATOM      6  C   UNL     1      46.067   8.456  12.763  0.00  0.00    +0.000 A 
ATOM      7  C   UNL     1      47.169   8.513  13.621  0.00  0.00    +0.000 A 
BRANCH   5   8
ATOM      8  C   UNL     1      44.352   7.168  11.429  0.00  0.00    +0.000 C 
BRANCH   8   9
ATOM      9  C   UNL     1      43.640   5.812  11.529  0.00  0.00    +0.000 C 
BRANCH   9  10
ATOM     10  N   UNL     1      43.564   5.143  10.225  0.00  0.00    +0.000 NA
ATOM     11  H   UNL     1      43.507   5.842   9.484  0.00  0.00    +0.000 HD
BRANCH  10  12
ATOM     12  C   UNL     1      44.746   4.295  10.003  0.00  0.00    +0.000 C 
ATOM     13  C   UNL     1      44.404   2.799  10.066  0.00  0.00    +0.000 C 
ATOM     14  C   UNL     1      44.859   2.227   8.728  0.00  0.00    +0.000 C 
ATOM     15  N   UNL     1      45.933   3.134   8.321  0.00  0.00    +0.000 NA
ATOM     16  C   UNL     1      46.283   2.998   6.914  0.00  0.00    +0.000 C 
ATOM     17  C   UNL     1      45.411   4.466   8.622  0.00  0.00    +0.000 C 
ENDBRANCH  10  12
ENDBRANCH   9  10
ENDBRANCH   8   9
ENDBRANCH   5   8
ENDBRANCH   1   2
BRANCH   1  18
ATOM     18  N   UNL     1      48.409   7.287  16.441  0.00  0.00    +0.000 NA
ATOM     19  H   UNL     1      47.552   6.731  16.417  0.00  0.00    +0.000 HD
BRANCH  18  21
ATOM     20  C   UNL     1      49.212   7.070  18.816  0.00  0.00    +0.000 C 
ATOM     21  C   UNL     1      49.353   6.627  17.353  0.00  0.00    +0.000 C 
BRANCH  21  22
ATOM     22  C   UNL     1      49.099   5.138  17.224  0.00  0.00    +0.000 A 
ATOM     23  C   UNL     1      47.853   4.580  16.969  0.00  0.00    +0.000 A 
ATOM     24  S   UNL     1      47.879   2.876  16.886  0.00  0.00    +0.000 S 
ATOM     25  C   UNL     1      49.554   2.829  17.179  0.00  0.00    +0.000 A 
ATOM     26  N   UNL     1      50.227   1.649  17.231  0.00  0.00    +0.000 NA
ATOM     27  C   UNL     1      51.492   1.769  17.456  0.00  0.00    +0.000 A 
ATOM     28  N   UNL     1      52.148   2.959  17.639  0.00  0.00    +0.000 N 
ATOM     29  C   UNL     1      51.513   4.182  17.604  0.00  0.00    +0.000 A 
ATOM     30  O   UNL     1      52.129   5.224  17.786  0.00  0.00    +0.000 OA
ATOM     31  C   UNL     1      50.086   4.096  17.346  0.00  0.00    +0.000 A 
ATOM     32  H   UNL     1      53.141   2.983  17.815  0.00  0.00    +0.000 HD
ENDBRANCH  21  22
ENDBRANCH  18  21
ENDBRANCH   1  18
TORSDOF 8
ENDMDL
MODEL 4
REMARK VINA RESULT:    -6.849      4.454      5.433
REMARK INTER + INTRA:         -10.776
REMARK INTER:                  -9.551
REMARK INTRA:                  -1.225
REMARK UNBOUND:                -0.724
REMARK  Name = 
REMARK  10 active torsions:
REMARK  status: ('A' for Active; 'I' for Inactive)
REMARK    1  A    between atoms: C_1  and  C_2
REMARK    2  A    between atoms: C_2  and  N_3
REMARK    3  A    between atoms: C_2  and  C_20
REMARK    4  A    between atoms: N_3  and  C_4
REMARK    5  A    between atoms: C_4  and  C_5
REMARK    6  A    between atoms: C_8  and  C_9
REMARK    7  A    between atoms: C_9  and  C_10
REMARK    8  A    between atoms: C_10  and  N_11
REMARK    9  A    between atoms: N_11  and  C_12
REMARK   10  A    between atoms: N_15  and  C_16
REMARK                            x       y       z     vdW  Elec       q    Type
REMARK                         _______ _______ _______ _____ _____    ______ ____
ROOT
ATOM      1  C   UNL     1      48.728   7.077  13.115  0.00  0.00    +0.000 C 
ENDROOT
BRANCH   1   2
ATOM      2  C   UNL     1      47.535   6.196  12.824  0.00  0.00    +0.000 A 
ATOM      3  C   UNL     1      47.224   5.121  13.668  0.00  0.00    +0.000 A 
ATOM      4  C   UNL     1      46.074   4.360  13.459  0.00  0.00    +0.000 A 
ATOM      5  C   UNL     1      45.197   4.667  12.409  0.00  0.00    +0.000 A 
ATOM      6  C   UNL     1      45.516   5.728  11.553  0.00  0.00    +0.000 A 
ATOM      7  C   UNL     1      46.674   6.484  11.758  0.00  0.00    +0.000 A 
BRANCH   5   8
ATOM      8  C   UNL     1      43.923   3.880  12.207  0.00  0.00    +0.000 C 
BRANCH   8   9
ATOM      9  C   UNL     1      43.726   3.494  10.735  0.00  0.00    +0.000 C 
BRANCH   9  10
ATOM     10  N   UNL     1      44.642   2.420  10.329  0.00  0.00    +0.000 NA
ATOM     11  H   UNL     1      44.266   1.520  10.627  0.00  0.00    +0.000 HD
BRANCH  10  12
ATOM     12  C   UNL     1      44.825   2.414   8.869  0.00  0.00    +0.000 C 
ATOM     13  C   UNL     1      45.038   3.827   8.308  0.00  0.00    +0.000 C 
ATOM     14  C   UNL     1      46.372   3.768   7.571  0.00  0.00    +0.000 C 
ATOM     15  N   UNL     1      46.484   2.360   7.187  0.00  0.00    +0.000 NA
ATOM     16  C   UNL     1      47.833   1.992   6.781  0.00  0.00    +0.000 C 
ATOM     17  C   UNL     1      46.058   1.629   8.379  0.00  0.00    +0.000 C 
ENDBRANCH  10  12
ENDBRANCH   9  10
ENDBRANCH   8   9
ENDBRANCH   5   8
ENDBRANCH   1   2
BRANCH   1  18
ATOM     18  N   UNL     1      48.417   8.490  12.915  0.00  0.00    +0.000 NA
ATOM     19  H   UNL     1      48.583   8.974  13.799  0.00  0.00    +0.000 HD
BRANCH  18  21
ATOM     20  C   UNL     1      48.666  10.425  11.326  0.00  0.00    +0.000 C 
ATOM     21  C   UNL     1      49.254   9.123  11.887  0.00  0.00    +0.000 C 
BRANCH  21  22
ATOM     22  C   UNL     1      50.599   9.385  12.535  0.00  0.00    +0.000 A 
ATOM     23  C   UNL     1      50.801  10.284  13.574  0.00  0.00    +0.000 A 
ATOM     24  S   UNL     1      52.424  10.369  14.091  0.00  0.00    +0.000 S 
ATOM     25  C   UNL     1      52.909   9.204  12.951  0.00  0.00    +0.000 A 
ATOM     26  N   UNL     1      54.205   8.802  12.861  0.00  0.00    +0.000 NA
ATOM     27  C   UNL     1      54.423   7.910  11.955  0.00  0.00    +0.000 A 
ATOM     28  N   UNL     1      53.467   7.384  11.124  0.00  0.00    +0.000 N 
ATOM     29  C   UNL     1      52.141   7.762  11.167  0.00  0.00    +0.000 A 
ATOM     30  O   UNL     1      51.318   7.281  10.400  0.00  0.00    +0.000 OA
ATOM     31  C   UNL     1      51.848   8.761  12.180  0.00  0.00    +0.000 A 
ATOM     32  H   UNL     1      53.705   6.690  10.432  0.00  0.00    +0.000 HD
ENDBRANCH  21  22
ENDBRANCH  18  21
ENDBRANCH   1  18
TORSDOF 8
ENDMDL
MODEL 5
REMARK VINA RESULT:    -6.761      2.030      2.522
REMARK INTER + INTRA:         -10.646
REMARK INTER:                  -9.772
REMARK INTRA:                  -0.875
REMARK UNBOUND:                -0.724
REMARK  Name = 
REMARK  10 active torsions:
REMARK  status: ('A' for Active; 'I' for Inactive)
REMARK    1  A    between atoms: C_1  and  C_2
REMARK    2  A    between atoms: C_2  and  N_3
REMARK    3  A    between atoms: C_2  and  C_20
REMARK    4  A    between atoms: N_3  and  C_4
REMARK    5  A    between atoms: C_4  and  C_5
REMARK    6  A    between atoms: C_8  and  C_9
REMARK    7  A    between atoms: C_9  and  C_10
REMARK    8  A    between atoms: C_10  and  N_11
REMARK    9  A    between atoms: N_11  and  C_12
REMARK   10  A    between atoms: N_15  and  C_16
REMARK                            x       y       z     vdW  Elec       q    Type
REMARK                         _______ _______ _______ _____ _____    ______ ____
ROOT
ATOM      1  C   UNL     1      47.843   7.242  13.993  0.00  0.00    +0.000 C 
ENDROOT
BRANCH   1   2
ATOM      2  C   UNL     1      46.875   6.385  13.210  0.00  0.00    +0.000 A 
ATOM      3  C   UNL     1      46.464   6.769  11.927  0.00  0.00    +0.000 A 
ATOM      4  C   UNL     1      45.644   5.939  11.163  0.00  0.00    +0.000 A 
ATOM      5  C   UNL     1      45.229   4.695  11.658  0.00  0.00    +0.000 A 
ATOM      6  C   UNL     1      45.623   4.318  12.947  0.00  0.00    +0.000 A 
ATOM      7  C   UNL     1      46.437   5.155  13.716  0.00  0.00    +0.000 A 
BRANCH   5   8
ATOM      8  C   UNL     1      44.384   3.768  10.816  0.00  0.00    +0.000 C 
BRANCH   8   9
ATOM      9  C   UNL     1      44.098   4.365   9.432  0.00  0.00    +0.000 C 
BRANCH   9  10
ATOM     10  N   UNL     1      44.366   3.399   8.359  0.00  0.00    +0.000 NA
ATOM     11  H   UNL     1      44.067   3.790   7.465  0.00  0.00    +0.000 HD
BRANCH  10  12
ATOM     12  C   UNL     1      45.799   3.074   8.295  0.00  0.00    +0.000 C 
ATOM     13  C   UNL     1      46.055   1.566   8.432  0.00  0.00    +0.000 C 
ATOM     14  C   UNL     1      46.830   1.175   7.179  0.00  0.00    +0.000 C 
ATOM     15  N   UNL     1      47.507   2.416   6.800  0.00  0.00    +0.000 NA
ATOM     16  C   UNL     1      48.025   2.383   5.439  0.00  0.00    +0.000 C 
ATOM     17  C   UNL     1      46.484   3.447   6.965  0.00  0.00    +0.000 C 
ENDBRANCH  10  12
ENDBRANCH   9  10
ENDBRANCH   8   9
ENDBRANCH   5   8
ENDBRANCH   1   2
BRANCH   1  18
ATOM     18  N   UNL     1      49.132   6.578  14.169  0.00  0.00    +0.000 NA
ATOM     19  H   UNL     1      49.646   6.658  13.289  0.00  0.00    +0.000 HD
BRANCH  18  21
ATOM     20  C   UNL     1      49.421   8.537  15.722  0.00  0.00    +0.000 C 
ATOM     21  C   UNL     1      49.950   7.183  15.229  0.00  0.00    +0.000 C 
BRANCH  21  22
ATOM     22  C   UNL     1      49.980   6.181  16.367  0.00  0.00    +0.000 A 
ATOM     23  C   UNL     1      48.846   5.623  16.944  0.00  0.00    +0.000 A 
ATOM     24  S   UNL     1      49.196   4.534  18.208  0.00  0.00    +0.000 S 
ATOM     25  C   UNL     1      50.871   4.764  18.021  0.00  0.00    +0.000 A 
ATOM     26  N   UNL     1      51.765   4.105  18.807  0.00  0.00    +0.000 NA
ATOM     27  C   UNL     1      53.000   4.376  18.547  0.00  0.00    +0.000 A 
ATOM     28  N   UNL     1      53.426   5.247  17.578  0.00  0.00    +0.000 N 
ATOM     29  C   UNL     1      52.563   5.945  16.761  0.00  0.00    +0.000 A 
ATOM     30  O   UNL     1      52.980   6.726  15.915  0.00  0.00    +0.000 OA
ATOM     31  C   UNL     1      51.160   5.666  17.013  0.00  0.00    +0.000 A 
ATOM     32  H   UNL     1      54.409   5.417  17.428  0.00  0.00    +0.000 HD
ENDBRANCH  21  22
ENDBRANCH  18  21
ENDBRANCH   1  18
TORSDOF 8
ENDMDL
MODEL 6
REMARK VINA RESULT:    -6.584      3.378      9.090
REMARK INTER + INTRA:         -10.387
REMARK INTER:                  -9.131
REMARK INTRA:                  -1.256
REMARK UNBOUND:                -0.724
REMARK  Name = 
REMARK  10 active torsions:
REMARK  status: ('A' for Active; 'I' for Inactive)
REMARK    1  A    between atoms: C_1  and  C_2
REMARK    2  A    between atoms: C_2  and  N_3
REMARK    3  A    between atoms: C_2  and  C_20
REMARK    4  A    between atoms: N_3  and  C_4
REMARK    5  A    between atoms: C_4  and  C_5
REMARK    6  A    between atoms: C_8  and  C_9
REMARK    7  A    between atoms: C_9  and  C_10
REMARK    8  A    between atoms: C_10  and  N_11
REMARK    9  A    between atoms: N_11  and  C_12
REMARK   10  A    between atoms: N_15  and  C_16
REMARK                            x       y       z     vdW  Elec       q    Type
REMARK                         _______ _______ _______ _____ _____    ______ ____
ROOT
ATOM      1  C   UNL     1      47.759   7.598  12.113  0.00  0.00    +0.000 C 
ENDROOT
BRANCH   1   2
ATOM      2  C   UNL     1      48.106   7.721  13.578  0.00  0.00    +0.000 A 
ATOM      3  C   UNL     1      48.813   6.701  14.229  0.00  0.00    +0.000 A 
ATOM      4  C   UNL     1      49.216   6.848  15.556  0.00  0.00    +0.000 A 
ATOM      5  C   UNL     1      48.937   8.027  16.260  0.00  0.00    +0.000 A 
ATOM      6  C   UNL     1      48.214   9.040  15.618  0.00  0.00    +0.000 A 
ATOM      7  C   UNL     1      47.802   8.888  14.291  0.00  0.00    +0.000 A 
BRANCH   5   8
ATOM      8  C   UNL     1      49.416   8.214  17.681  0.00  0.00    +0.000 C 
BRANCH   8   9
ATOM      9  C   UNL     1      48.456   7.569  18.689  0.00  0.00    +0.000 C 
BRANCH   9  10
ATOM     10  N   UNL     1      49.122   6.528  19.482  0.00  0.00    +0.000 NA
ATOM     11  H   UNL     1      49.139   6.804  20.464  0.00  0.00    +0.000 HD
BRANCH  10  12
ATOM     12  C   UNL     1      48.421   5.241  19.349  0.00  0.00    +0.000 C 
ATOM     13  C   UNL     1      47.103   5.380  18.573  0.00  0.00    +0.000 C 
ATOM     14  C   UNL     1      47.222   4.410  17.403  0.00  0.00    +0.000 C 
ATOM     15  N   UNL     1      48.151   3.393  17.901  0.00  0.00    +0.000 NA
ATOM     16  C   UNL     1      48.690   2.555  16.840  0.00  0.00    +0.000 C 
ATOM     17  C   UNL     1      49.199   4.162  18.570  0.00  0.00    +0.000 C 
ENDBRANCH  10  12
ENDBRANCH   9  10
ENDBRANCH   8   9
ENDBRANCH   5   8
ENDBRANCH   1   2
BRANCH   1  18
ATOM     18  N   UNL     1      46.972   6.397  11.844  0.00  0.00    +0.000 NA
ATOM     19  H   UNL     1      47.365   5.636  12.401  0.00  0.00    +0.000 HD
BRANCH  18  21
ATOM     20  C   UNL     1      44.831   7.657  11.441  0.00  0.00    +0.000 C 
ATOM     21  C   UNL     1      45.556   6.544  12.209  0.00  0.00    +0.000 C 
BRANCH  21  22
ATOM     22  C   UNL     1      44.905   5.201  11.936  0.00  0.00    +0.000 A 
ATOM     23  C   UNL     1      44.193   4.475  12.882  0.00  0.00    +0.000 A 
ATOM     24  S   UNL     1      43.584   2.999  12.283  0.00  0.00    +0.000 S 
ATOM     25  C   UNL     1      44.243   3.285  10.741  0.00  0.00    +0.000 A 
ATOM     26  N   UNL     1      44.081   2.392   9.728  0.00  0.00    +0.000 NA
ATOM     27  C   UNL     1      44.631   2.746   8.616  0.00  0.00    +0.000 A 
ATOM     28  N   UNL     1      45.335   3.907   8.421  0.00  0.00    +0.000 N 
ATOM     29  C   UNL     1      45.536   4.841   9.415  0.00  0.00    +0.000 A 
ATOM     30  O   UNL     1      46.181   5.860   9.208  0.00  0.00    +0.000 OA
ATOM     31  C   UNL     1      44.926   4.488  10.685  0.00  0.00    +0.000 A 
ATOM     32  H   UNL     1      45.744   4.122   7.525  0.00  0.00    +0.000 HD
ENDBRANCH  21  22
ENDBRANCH  18  21
ENDBRANCH   1  18
TORSDOF 8
ENDMDL
MODEL 7
REMARK VINA RESULT:    -6.556      4.012      8.946
REMARK INTER + INTRA:         -10.346
REMARK INTER:                  -8.319
REMARK INTRA:                  -2.027
REMARK UNBOUND:                -0.724
REMARK  Name = 
REMARK  10 active torsions:
REMARK  status: ('A' for Active; 'I' for Inactive)
REMARK    1  A    between atoms: C_1  and  C_2
REMARK    2  A    between atoms: C_2  and  N_3
REMARK    3  A    between atoms: C_2  and  C_20
REMARK    4  A    between atoms: N_3  and  C_4
REMARK    5  A    between atoms: C_4  and  C_5
REMARK    6  A    between atoms: C_8  and  C_9
REMARK    7  A    between atoms: C_9  and  C_10
REMARK    8  A    between atoms: C_10  and  N_11
REMARK    9  A    between atoms: N_11  and  C_12
REMARK   10  A    between atoms: N_15  and  C_16
REMARK                            x       y       z     vdW  Elec       q    Type
REMARK                         _______ _______ _______ _____ _____    ______ ____
ROOT
ATOM      1  C   UNL     1      47.997   8.987  14.257  0.00  0.00    +0.000 C 
ENDROOT
BRANCH   1   2
ATOM      2  C   UNL     1      48.679   8.460  15.498  0.00  0.00    +0.000 A 
ATOM      3  C   UNL     1      49.566   7.378  15.415  0.00  0.00    +0.000 A 
ATOM      4  C   UNL     1      50.268   6.945  16.540  0.00  0.00    +0.000 A 
ATOM      5  C   UNL     1      50.114   7.595  17.772  0.00  0.00    +0.000 A 
ATOM      6  C   UNL     1      49.214   8.664  17.861  0.00  0.00    +0.000 A 
ATOM      7  C   UNL     1      48.503   9.091  16.736  0.00  0.00    +0.000 A 
BRANCH   5   8
ATOM      8  C   UNL     1      50.910   7.164  18.982  0.00  0.00    +0.000 C 
BRANCH   8   9
ATOM      9  C   UNL     1      50.439   5.804  19.512  0.00  0.00    +0.000 C 
BRANCH   9  10
ATOM     10  N   UNL     1      49.109   5.894  20.127  0.00  0.00    +0.000 NA
ATOM     11  H   UNL     1      48.709   6.815  19.946  0.00  0.00    +0.000 HD
BRANCH  10  12
ATOM     12  C   UNL     1      48.212   4.860  19.587  0.00  0.00    +0.000 C 
ATOM     13  C   UNL     1      47.197   5.439  18.590  0.00  0.00    +0.000 C 
ATOM     14  C   UNL     1      47.409   4.654  17.301  0.00  0.00    +0.000 C 
ATOM     15  N   UNL     1      47.944   3.374  17.769  0.00  0.00    +0.000 NA
ATOM     16  C   UNL     1      48.551   2.593  16.701  0.00  0.00    +0.000 C 
ATOM     17  C   UNL     1      48.921   3.746  18.790  0.00  0.00    +0.000 C 
ENDBRANCH  10  12
ENDBRANCH   9  10
ENDBRANCH   8   9
ENDBRANCH   5   8
ENDBRANCH   1   2
BRANCH   1  18
ATOM     18  N   UNL     1      46.768   8.254  13.964  0.00  0.00    +0.000 NA
ATOM     19  H   UNL     1      45.993   8.921  13.992  0.00  0.00    +0.000 HD
BRANCH  18  21
ATOM     20  C   UNL     1      48.113   7.764  11.895  0.00  0.00    +0.000 C 
ATOM     21  C   UNL     1      46.777   7.623  12.637  0.00  0.00    +0.000 C 
BRANCH  21  22
ATOM     22  C   UNL     1      46.446   6.160  12.860  0.00  0.00    +0.000 A 
ATOM     23  C   UNL     1      47.275   5.267  13.527  0.00  0.00    +0.000 A 
ATOM     24  S   UNL     1      46.637   3.688  13.613  0.00  0.00    +0.000 S 
ATOM     25  C   UNL     1      45.232   4.146  12.770  0.00  0.00    +0.000 A 
ATOM     26  N   UNL     1      44.245   3.249  12.504  0.00  0.00    +0.000 NA
ATOM     27  C   UNL     1      43.240   3.740  11.862  0.00  0.00    +0.000 A 
ATOM     28  N   UNL     1      43.129   5.046  11.456  0.00  0.00    +0.000 N 
ATOM     29  C   UNL     1      44.102   5.993  11.692  0.00  0.00    +0.000 A 
ATOM     30  O   UNL     1      43.975   7.146  11.303  0.00  0.00    +0.000 OA
ATOM     31  C   UNL     1      45.252   5.485  12.420  0.00  0.00    +0.000 A 
ATOM     32  H   UNL     1      42.315   5.366  10.954  0.00  0.00    +0.000 HD
ENDBRANCH  21  22
ENDBRANCH  18  21
ENDBRANCH   1  18
TORSDOF 8
ENDMDL
MODEL 8
REMARK VINA RESULT:    -6.546      2.024      2.911
REMARK INTER + INTRA:         -10.332
REMARK INTER:                  -9.305
REMARK INTRA:                  -1.027
REMARK UNBOUND:                -0.724
REMARK  Name = 
REMARK  10 active torsions:
REMARK  status: ('A' for Active; 'I' for Inactive)
REMARK    1  A    between atoms: C_1  and  C_2
REMARK    2  A    between atoms: C_2  and  N_3
REMARK    3  A    between atoms: C_2  and  C_20
REMARK    4  A    between atoms: N_3  and  C_4
REMARK    5  A    between atoms: C_4  and  C_5
REMARK    6  A    between atoms: C_8  and  C_9
REMARK    7  A    between atoms: C_9  and  C_10
REMARK    8  A    between atoms: C_10  and  N_11
REMARK    9  A    between atoms: N_11  and  C_12
REMARK   10  A    between atoms: N_15  and  C_16
REMARK                            x       y       z     vdW  Elec       q    Type
REMARK                         _______ _______ _______ _____ _____    ______ ____
ROOT
ATOM      1  C   UNL     1      48.089   4.983  15.232  0.00  0.00    +0.000 C 
ENDROOT
BRANCH   1   2
ATOM      2  C   UNL     1      47.102   5.085  14.093  0.00  0.00    +0.000 A 
ATOM      3  C   UNL     1      46.183   4.055  13.856  0.00  0.00    +0.000 A 
ATOM      4  C   UNL     1      45.210   4.182  12.864  0.00  0.00    +0.000 A 
ATOM      5  C   UNL     1      45.123   5.352  12.097  0.00  0.00    +0.000 A 
ATOM      6  C   UNL     1      46.052   6.374  12.319  0.00  0.00    +0.000 A 
ATOM      7  C   UNL     1      47.033   6.242  13.306  0.00  0.00    +0.000 A 
BRANCH   5   8
ATOM      8  C   UNL     1      44.039   5.518  11.056  0.00  0.00    +0.000 C 
BRANCH   8   9
ATOM      9  C   UNL     1      44.157   4.465   9.946  0.00  0.00    +0.000 C 
BRANCH   9  10
ATOM     10  N   UNL     1      45.439   4.567   9.237  0.00  0.00    +0.000 NA
ATOM     11  H   UNL     1      46.200   4.327   9.872  0.00  0.00    +0.000 HD
BRANCH  10  12
ATOM     12  C   UNL     1      45.467   3.662   8.077  0.00  0.00    +0.000 C 
ATOM     13  C   UNL     1      46.654   3.954   7.146  0.00  0.00    +0.000 C 
ATOM     14  C   UNL     1      47.423   2.641   7.052  0.00  0.00    +0.000 C 
ATOM     15  N   UNL     1      46.396   1.630   7.307  0.00  0.00    +0.000 NA
ATOM     16  C   UNL     1      46.957   0.322   7.616  0.00  0.00    +0.000 C 
ATOM     17  C   UNL     1      45.631   2.170   8.430  0.00  0.00    +0.000 C 
ENDBRANCH  10  12
ENDBRANCH   9  10
ENDBRANCH   8   9
ENDBRANCH   5   8
ENDBRANCH   1   2
BRANCH   1  18
ATOM     18  N   UNL     1      47.500   5.415  16.497  0.00  0.00    +0.000 NA
ATOM     19  H   UNL     1      46.488   5.470  16.367  0.00  0.00    +0.000 HD
BRANCH  18  21
ATOM     20  C   UNL     1      47.316   3.044  17.319  0.00  0.00    +0.000 C 
ATOM     21  C   UNL     1      47.766   4.484  17.602  0.00  0.00    +0.000 C 
BRANCH  21  22
ATOM     22  C   UNL     1      49.262   4.532  17.850  0.00  0.00    +0.000 A 
ATOM     23  C   UNL     1      50.126   3.473  17.604  0.00  0.00    +0.000 A 
ATOM     24  S   UNL     1      51.750   3.823  17.987  0.00  0.00    +0.000 S 
ATOM     25  C   UNL     1      51.354   5.400  18.486  0.00  0.00    +0.000 A 
ATOM     26  N   UNL     1      52.309   6.258  18.937  0.00  0.00    +0.000 NA
ATOM     27  C   UNL     1      51.861   7.420  19.275  0.00  0.00    +0.000 A 
ATOM     28  N   UNL     1      50.547   7.805  19.210  0.00  0.00    +0.000 N 
ATOM     29  C   UNL     1      49.540   6.974  18.768  0.00  0.00    +0.000 A 
ATOM     30  O   UNL     1      48.375   7.348  18.736  0.00  0.00    +0.000 OA
ATOM     31  C   UNL     1      49.999   5.655  18.369  0.00  0.00    +0.000 A 
ATOM     32  H   UNL     1      50.262   8.730  19.494  0.00  0.00    +0.000 HD
ENDBRANCH  21  22
ENDBRANCH  18  21
ENDBRANCH   1  18
TORSDOF 8
ENDMDL
MODEL 9
REMARK VINA RESULT:    -6.480      2.671      4.641
REMARK INTER + INTRA:         -10.234
REMARK INTER:                  -9.041
REMARK INTRA:                  -1.193
REMARK UNBOUND:                -0.724
REMARK  Name = 
REMARK  10 active torsions:
REMARK  status: ('A' for Active; 'I' for Inactive)
REMARK    1  A    between atoms: C_1  and  C_2
REMARK    2  A    between atoms: C_2  and  N_3
REMARK    3  A    between atoms: C_2  and  C_20
REMARK    4  A    between atoms: N_3  and  C_4
REMARK    5  A    between atoms: C_4  and  C_5
REMARK    6  A    between atoms: C_8  and  C_9
REMARK    7  A    between atoms: C_9  and  C_10
REMARK    8  A    between atoms: C_10  and  N_11
REMARK    9  A    between atoms: N_11  and  C_12
REMARK   10  A    between atoms: N_15  and  C_16
REMARK                            x       y       z     vdW  Elec       q    Type
REMARK                         _______ _______ _______ _____ _____    ______ ____
ROOT
ATOM      1  C   UNL     1      49.275   7.813  18.109  0.00  0.00    +0.000 C 
ENDROOT
BRANCH   1   2
ATOM      2  C   UNL     1      48.908   7.822  16.643  0.00  0.00    +0.000 A 
ATOM      3  C   UNL     1      49.173   6.707  15.838  0.00  0.00    +0.000 A 
ATOM      4  C   UNL     1      48.755   6.673  14.507  0.00  0.00    +0.000 A 
ATOM      5  C   UNL     1      48.046   7.749  13.955  0.00  0.00    +0.000 A 
ATOM      6  C   UNL     1      47.797   8.872  14.752  0.00  0.00    +0.000 A 
ATOM      7  C   UNL     1      48.225   8.909  16.082  0.00  0.00    +0.000 A 
BRANCH   5   8
ATOM      8  C   UNL     1      47.545   7.698  12.530  0.00  0.00    +0.000 C 
BRANCH   8   9
ATOM      9  C   UNL     1      46.681   6.455  12.280  0.00  0.00    +0.000 C 
BRANCH   9  10
ATOM     10  N   UNL     1      45.535   6.398  13.196  0.00  0.00    +0.000 NA
ATOM     11  H   UNL     1      44.868   7.132  12.955  0.00  0.00    +0.000 HD
BRANCH  10  12
ATOM     12  C   UNL     1      44.867   5.089  13.118  0.00  0.00    +0.000 C 
ATOM     13  C   UNL     1      43.349   5.226  12.932  0.00  0.00    +0.000 C 
ATOM     14  C   UNL     1      43.030   4.457  11.655  0.00  0.00    +0.000 C 
ATOM     15  N   UNL     1      44.102   3.463  11.583  0.00  0.00    +0.000 NA
ATOM     16  C   UNL     1      44.210   2.844  10.270  0.00  0.00    +0.000 C 
ATOM     17  C   UNL     1      45.309   4.212  11.929  0.00  0.00    +0.000 C 
ENDBRANCH  10  12
ENDBRANCH   9  10
ENDBRANCH   8   9
ENDBRANCH   5   8
ENDBRANCH   1   2
BRANCH   1  18
ATOM     18  N   UNL     1      48.435   6.892  18.870  0.00  0.00    +0.000 NA
ATOM     19  H   UNL     1      47.954   6.285  18.203  0.00  0.00    +0.000 HD
BRANCH  18  21
ATOM     20  C   UNL     1      48.359   5.430  20.917  0.00  0.00    +0.000 C 
ATOM     21  C   UNL     1      49.202   6.040  19.789  0.00  0.00    +0.000 C 
BRANCH  21  22
ATOM     22  C   UNL     1      49.820   4.946  18.939  0.00  0.00    +0.000 A 
ATOM     23  C   UNL     1      51.175   4.639  18.930  0.00  0.00    +0.000 A 
ATOM     24  S   UNL     1      51.572   3.365  17.868  0.00  0.00    +0.000 S 
ATOM     25  C   UNL     1      49.950   3.177  17.392  0.00  0.00    +0.000 A 
ATOM     26  N   UNL     1      49.587   2.231  16.486  0.00  0.00    +0.000 NA
ATOM     27  C   UNL     1      48.323   2.202  16.226  0.00  0.00    +0.000 A 
ATOM     28  N   UNL     1      47.387   3.035  16.784  0.00  0.00    +0.000 N 
ATOM     29  C   UNL     1      47.703   4.016  17.700  0.00  0.00    +0.000 A 
ATOM     30  O   UNL     1      46.842   4.750  18.167  0.00  0.00    +0.000 OA
ATOM     31  C   UNL     1      49.116   4.079  18.029  0.00  0.00    +0.000 A 
ATOM     32  H   UNL     1      46.413   2.962  16.534  0.00  0.00    +0.000 HD
ENDBRANCH  21  22
ENDBRANCH  18  21
ENDBRANCH   1  18
TORSDOF 8
ENDMDL
