MODEL 1
REMARK VINA RESULT:    -8.185      0.000      0.000
REMARK INTER + INTRA:         -12.741
REMARK INTER:                 -11.535
REMARK INTRA:                  -1.206
REMARK UNBOUND:                -1.206
REMARK  Name = 
REMARK  8 active torsions:
REMARK  status: ('A' for Active; 'I' for Inactive)
REMARK    1  A    between atoms: C_1  and  O_2
REMARK    2  A    between atoms: O_2  and  C_3
REMARK    3  A    between atoms: C_10  and  C_11
REMARK    4  A    between atoms: N_13  and  C_14
REMARK    5  A    between atoms: C_14  and  C_15
REMARK    6  A    between atoms: C_18  and  C_19
REMARK    7  A    between atoms: C_19  and  C_20
REMARK    8  A    between atoms: C_20  and  N_21
REMARK                            x       y       z     vdW  Elec       q    Type
REMARK                         _______ _______ _______ _____ _____    ______ ____
ROOT
ATOM      1  C   UNL     1      46.617   7.761  12.847  0.00  0.00    +0.000 A 
ATOM      2  C   UNL     1      46.927   6.531  12.259  0.00  0.00    +0.000 A 
ATOM      3  C   UNL     1      45.976   5.842  11.498  0.00  0.00    +0.000 A 
ATOM      4  C   UNL     1      44.692   6.366  11.292  0.00  0.00    +0.000 A 
ATOM      5  C   UNL     1      44.406   7.630  11.833  0.00  0.00    +0.000 A 
ATOM      6  C   UNL     1      45.359   8.321  12.595  0.00  0.00    +0.000 A 
ENDROOT
BRANCH   1   7
ATOM      7  C   UNL     1      47.623   8.455  13.731  0.00  0.00    +0.000 C 
BRANCH   7  10
ATOM      8  C   UNL     1      49.106   7.048  15.095  0.00  0.00    +0.000 C 
ATOM      9  O   UNL     1      49.992   7.098  14.241  0.00  0.00    +0.000 OA
ATOM     10  N   UNL     1      47.913   7.692  14.917  0.00  0.00    +0.000 N 
ATOM     11  H   UNL     1      47.193   7.638  15.623  0.00  0.00    +0.000 HD
BRANCH   8  19
ATOM     12  C   UNL     1      47.536   4.287  16.409  0.00  0.00    +0.000 A 
ATOM     13  N   UNL     1      47.142   3.205  17.108  0.00  0.00    +0.000 NA
ATOM     14  C   UNL     1      47.775   2.936  18.254  0.00  0.00    +0.000 A 
ATOM     15  N   UNL     1      48.765   3.632  18.806  0.00  0.00    +0.000 NA
ATOM     16  C   UNL     1      49.136   4.693  18.069  0.00  0.00    +0.000 A 
ATOM     17  S   UNL     1      50.380   5.706  18.622  0.00  0.00    +0.000 S 
ATOM     18  C   UNL     1      50.256   6.694  17.244  0.00  0.00    +0.000 A 
ATOM     19  C   UNL     1      49.285   6.278  16.339  0.00  0.00    +0.000 A 
ATOM     20  C   UNL     1      48.598   5.095  16.850  0.00  0.00    +0.000 A 
BRANCH  12  22
ATOM     21  C   UNL     1      47.115   3.596  14.211  0.00  0.00    +0.000 C 
ATOM     22  O   UNL     1      46.888   4.569  15.226  0.00  0.00    +0.000 OA
ENDBRANCH  12  22
ENDBRANCH   8  19
ENDBRANCH   7  10
ENDBRANCH   1   7
BRANCH   4  23
ATOM     23  C   UNL     1      43.598   5.618  10.543  0.00  0.00    +0.000 C 
BRANCH  23  24
ATOM     24  C   UNL     1      44.001   4.234  10.008  0.00  0.00    +0.000 C 
BRANCH  24  25
ATOM     25  N   UNL     1      44.188   4.238   8.564  0.00  0.00    +0.000 N 
ATOM     26  C   UNL     1      45.083   3.260   8.131  0.00  0.00    +0.000 A 
ATOM     27  N   UNL     1      45.184   2.098   8.798  0.00  0.00    +0.000 NA
ATOM     28  C   UNL     1      46.071   1.191   8.353  0.00  0.00    +0.000 A 
ATOM     29  C   UNL     1      46.867   1.400   7.263  0.00  0.00    +0.000 A 
ATOM     30  C   UNL     1      46.687   2.619   6.661  0.00  0.00    +0.000 A 
ATOM     31 CL   UNL     1      47.612   3.046   5.279  0.00  0.00    +0.000 Cl
ATOM     32  N   UNL     1      45.822   3.565   7.065  0.00  0.00    +0.000 NA
ATOM     33  H   UNL     1      44.508   5.110   8.155  0.00  0.00    +0.000 HD
ENDBRANCH  24  25
ENDBRANCH  23  24
ENDBRANCH   4  23
TORSDOF 7
ENDMDL
MODEL 2
REMARK VINA RESULT:    -7.765      1.647      2.135
REMARK INTER + INTRA:         -12.148
REMARK INTER:                 -10.984
REMARK INTRA:                  -1.164
REMARK UNBOUND:                -1.206
REMARK  Name = 
REMARK  8 active torsions:
REMARK  status: ('A' for Active; 'I' for Inactive)
REMARK    1  A    between atoms: C_1  and  O_2
REMARK    2  A    between atoms: O_2  and  C_3
REMARK    3  A    between atoms: C_10  and  C_11
REMARK    4  A    between atoms: N_13  and  C_14
REMARK    5  A    between atoms: C_14  and  C_15
REMARK    6  A    between atoms: C_18  and  C_19
REMARK    7  A    between atoms: C_19  and  C_20
REMARK    8  A    between atoms: C_20  and  N_21
REMARK                            x       y       z     vdW  Elec       q    Type
REMARK                         _______ _______ _______ _____ _____    ______ ____
ROOT
ATOM      1  C   UNL     1      46.535   6.857  13.191  0.00  0.00    +0.000 A 
ATOM      2  C   UNL     1      46.760   5.522  13.540  0.00  0.00    +0.000 A 
ATOM      3  C   UNL     1      45.777   4.551  13.326  0.00  0.00    +0.000 A 
ATOM      4  C   UNL     1      44.543   4.881  12.747  0.00  0.00    +0.000 A 
ATOM      5  C   UNL     1      44.345   6.210  12.341  0.00  0.00    +0.000 A 
ATOM      6  C   UNL     1      45.331   7.185  12.555  0.00  0.00    +0.000 A 
ENDROOT
BRANCH   1   7
ATOM      7  C   UNL     1      47.570   7.909  13.500  0.00  0.00    +0.000 C 
BRANCH   7  10
ATOM      8  C   UNL     1      49.171   7.409  15.297  0.00  0.00    +0.000 C 
ATOM      9  O   UNL     1      49.991   6.973  14.488  0.00  0.00    +0.000 OA
ATOM     10  N   UNL     1      47.959   7.890  14.886  0.00  0.00    +0.000 N 
ATOM     11  H   UNL     1      47.293   8.240  15.561  0.00  0.00    +0.000 HD
BRANCH   8  19
ATOM     12  C   UNL     1      49.150   4.973  17.721  0.00  0.00    +0.000 A 
ATOM     13  N   UNL     1      49.276   4.218  18.829  0.00  0.00    +0.000 NA
ATOM     14  C   UNL     1      49.664   4.820  19.957  0.00  0.00    +0.000 A 
ATOM     15  N   UNL     1      49.938   6.112  20.122  0.00  0.00    +0.000 NA
ATOM     16  C   UNL     1      49.815   6.825  18.989  0.00  0.00    +0.000 A 
ATOM     17  S   UNL     1      50.115   8.495  19.011  0.00  0.00    +0.000 S 
ATOM     18  C   UNL     1      49.786   8.626  17.348  0.00  0.00    +0.000 A 
ATOM     19  C   UNL     1      49.453   7.418  16.743  0.00  0.00    +0.000 A 
ATOM     20  C   UNL     1      49.446   6.347  17.735  0.00  0.00    +0.000 A 
BRANCH  12  22
ATOM     21  C   UNL     1      47.652   3.468  16.733  0.00  0.00    +0.000 C 
ATOM     22  O   UNL     1      48.751   4.356  16.555  0.00  0.00    +0.000 OA
ENDBRANCH  12  22
ENDBRANCH   8  19
ENDBRANCH   7  10
ENDBRANCH   1   7
BRANCH   4  23
ATOM     23  C   UNL     1      43.412   3.878  12.569  0.00  0.00    +0.000 C 
BRANCH  23  24
ATOM     24  C   UNL     1      43.317   3.240  11.175  0.00  0.00    +0.000 C 
BRANCH  24  25
ATOM     25  N   UNL     1      44.461   2.386  10.883  0.00  0.00    +0.000 N 
ATOM     26  C   UNL     1      45.109   2.736   9.699  0.00  0.00    +0.000 A 
ATOM     27  N   UNL     1      45.135   4.019   9.299  0.00  0.00    +0.000 NA
ATOM     28  C   UNL     1      45.759   4.307   8.143  0.00  0.00    +0.000 A 
ATOM     29  C   UNL     1      46.361   3.358   7.365  0.00  0.00    +0.000 A 
ATOM     30  C   UNL     1      46.271   2.084   7.863  0.00  0.00    +0.000 A 
ATOM     31 CL   UNL     1      46.970   0.770   7.006  0.00  0.00    +0.000 Cl
ATOM     32  N   UNL     1      45.655   1.737   9.006  0.00  0.00    +0.000 NA
ATOM     33  H   UNL     1      44.272   1.392  10.814  0.00  0.00    +0.000 HD
ENDBRANCH  24  25
ENDBRANCH  23  24
ENDBRANCH   4  23
TORSDOF 7
ENDMDL
MODEL 3
REMARK VINA RESULT:    -7.550      2.643      3.498
REMARK INTER + INTRA:         -11.845
REMARK INTER:                 -10.823
REMARK INTRA:                  -1.023
REMARK UNBOUND:                -1.206
REMARK  Name = 
REMARK  8 active torsions:
REMARK  status: ('A' for Active; 'I' for Inactive)
REMARK    1  A    between atoms: C_1  and  O_2
REMARK    2  A    between atoms: O_2  and  C_3
REMARK    3  A    between atoms: C_10  and  C_11
REMARK    4  A    between atoms: N_13  and  C_14
REMARK    5  A    between atoms: C_14  and  C_15
REMARK    6  A    between atoms: C_18  and  C_19
REMARK    7  A    between atoms: C_19  and  C_20
REMARK    8  A    between atoms: C_20  and  N_21
REMARK                            x       y       z     vdW  Elec       q    Type
REMARK                         _______ _______ _______ _____ _____    ______ ____
ROOT
ATOM      1  C   UNL     1      47.214   6.179  13.515  0.00  0.00    +0.000 A 
ATOM      2  C   UNL     1      46.412   5.081  13.842  0.00  0.00    +0.000 A 
ATOM      3  C   UNL     1      45.225   4.830  13.148  0.00  0.00    +0.000 A 
ATOM      4  C   UNL     1      44.806   5.662  12.100  0.00  0.00    +0.000 A 
ATOM      5  C   UNL     1      45.645   6.727  11.735  0.00  0.00    +0.000 A 
ATOM      6  C   UNL     1      46.836   6.979  12.430  0.00  0.00    +0.000 A 
ENDROOT
BRANCH   1   7
ATOM      7  C   UNL     1      48.450   6.485  14.323  0.00  0.00    +0.000 C 
BRANCH   7  10
ATOM      8  C   UNL     1      48.834   6.189  16.733  0.00  0.00    +0.000 C 
ATOM      9  O   UNL     1      49.771   5.418  16.522  0.00  0.00    +0.000 OA
ATOM     10  N   UNL     1      48.137   6.756  15.702  0.00  0.00    +0.000 N 
ATOM     11  H   UNL     1      47.367   7.383  15.890  0.00  0.00    +0.000 HD
BRANCH   8  19
ATOM     12  C   UNL     1      47.841   9.107  18.254  0.00  0.00    +0.000 A 
ATOM     13  N   UNL     1      47.370  10.075  19.063  0.00  0.00    +0.000 NA
ATOM     14  C   UNL     1      47.064   9.746  20.321  0.00  0.00    +0.000 A 
ATOM     15  N   UNL     1      47.184   8.548  20.888  0.00  0.00    +0.000 NA
ATOM     16  C   UNL     1      47.643   7.609  20.043  0.00  0.00    +0.000 A 
ATOM     17  S   UNL     1      47.870   6.020  20.594  0.00  0.00    +0.000 S 
ATOM     18  C   UNL     1      48.403   5.513  19.062  0.00  0.00    +0.000 A 
ATOM     19  C   UNL     1      48.413   6.522  18.105  0.00  0.00    +0.000 A 
ATOM     20  C   UNL     1      47.982   7.783  18.704  0.00  0.00    +0.000 A 
BRANCH  12  22
ATOM     21  C   UNL     1      48.879  10.664  16.845  0.00  0.00    +0.000 C 
ATOM     22  O   UNL     1      48.157   9.441  16.955  0.00  0.00    +0.000 OA
ENDBRANCH  12  22
ENDBRANCH   8  19
ENDBRANCH   7  10
ENDBRANCH   1   7
BRANCH   4  23
ATOM     23  C   UNL     1      43.483   5.480  11.370  0.00  0.00    +0.000 C 
BRANCH  23  24
ATOM     24  C   UNL     1      43.547   4.604  10.108  0.00  0.00    +0.000 C 
BRANCH  24  25
ATOM     25  N   UNL     1      44.409   3.443  10.290  0.00  0.00    +0.000 N 
ATOM     26  C   UNL     1      45.254   3.222   9.203  0.00  0.00    +0.000 A 
ATOM     27  N   UNL     1      45.704   4.259   8.478  0.00  0.00    +0.000 NA
ATOM     28  C   UNL     1      46.505   3.996   7.430  0.00  0.00    +0.000 A 
ATOM     29  C   UNL     1      46.876   2.730   7.076  0.00  0.00    +0.000 A 
ATOM     30  C   UNL     1      46.358   1.748   7.879  0.00  0.00    +0.000 A 
ATOM     31 CL   UNL     1      46.720   0.097   7.570  0.00  0.00    +0.000 Cl
ATOM     32  N   UNL     1      45.548   1.951   8.933  0.00  0.00    +0.000 NA
ATOM     33  H   UNL     1      43.941   2.560  10.464  0.00  0.00    +0.000 HD
ENDBRANCH  24  25
ENDBRANCH  23  24
ENDBRANCH   4  23
TORSDOF 7
ENDMDL
MODEL 4
REMARK VINA RESULT:    -7.088      2.401      3.050
REMARK INTER + INTRA:         -11.195
REMARK INTER:                 -10.896
REMARK INTRA:                  -0.299
REMARK UNBOUND:                -1.206
REMARK  Name = 
REMARK  8 active torsions:
REMARK  status: ('A' for Active; 'I' for Inactive)
REMARK    1  A    between atoms: C_1  and  O_2
REMARK    2  A    between atoms: O_2  and  C_3
REMARK    3  A    between atoms: C_10  and  C_11
REMARK    4  A    between atoms: N_13  and  C_14
REMARK    5  A    between atoms: C_14  and  C_15
REMARK    6  A    between atoms: C_18  and  C_19
REMARK    7  A    between atoms: C_19  and  C_20
REMARK    8  A    between atoms: C_20  and  N_21
REMARK                            x       y       z     vdW  Elec       q    Type
REMARK                         _______ _______ _______ _____ _____    ______ ____
ROOT
ATOM      1  C   UNL     1      48.099   6.336  14.821  0.00  0.00    +0.000 A 
ATOM      2  C   UNL     1      47.794   6.962  13.608  0.00  0.00    +0.000 A 
ATOM      3  C   UNL     1      46.930   6.359  12.690  0.00  0.00    +0.000 A 
ATOM      4  C   UNL     1      46.334   5.118  12.958  0.00  0.00    +0.000 A 
ATOM      5  C   UNL     1      46.594   4.523  14.202  0.00  0.00    +0.000 A 
ATOM      6  C   UNL     1      47.461   5.127  15.125  0.00  0.00    +0.000 A 
ENDROOT
BRANCH   1   7
ATOM      7  C   UNL     1      49.095   6.957  15.767  0.00  0.00    +0.000 C 
BRANCH   7  10
ATOM      8  C   UNL     1      50.504   6.058  17.570  0.00  0.00    +0.000 C 
ATOM      9  O   UNL     1      50.168   6.968  18.329  0.00  0.00    +0.000 OA
ATOM     10  N   UNL     1      50.015   5.984  16.295  0.00  0.00    +0.000 N 
ATOM     11  H   UNL     1      50.303   5.235  15.681  0.00  0.00    +0.000 HD
BRANCH   8  19
ATOM     12  C   UNL     1      50.559   2.635  17.258  0.00  0.00    +0.000 A 
ATOM     13  N   UNL     1      50.854   1.322  17.221  0.00  0.00    +0.000 NA
ATOM     14  C   UNL     1      52.007   0.924  17.768  0.00  0.00    +0.000 A 
ATOM     15  N   UNL     1      52.915   1.688  18.369  0.00  0.00    +0.000 NA
ATOM     16  C   UNL     1      52.588   2.991  18.370  0.00  0.00    +0.000 A 
ATOM     17  S   UNL     1      53.626   4.117  19.103  0.00  0.00    +0.000 S 
ATOM     18  C   UNL     1      52.595   5.406  18.696  0.00  0.00    +0.000 A 
ATOM     19  C   UNL     1      51.457   5.018  17.996  0.00  0.00    +0.000 A 
ATOM     20  C   UNL     1      51.444   3.568  17.825  0.00  0.00    +0.000 A 
BRANCH  12  22
ATOM     21  C   UNL     1      48.254   2.909  17.566  0.00  0.00    +0.000 C 
ATOM     22  O   UNL     1      49.372   3.052  16.696  0.00  0.00    +0.000 OA
ENDBRANCH  12  22
ENDBRANCH   8  19
ENDBRANCH   7  10
ENDBRANCH   1   7
BRANCH   4  23
ATOM     23  C   UNL     1      45.453   4.384  11.957  0.00  0.00    +0.000 C 
BRANCH  23  24
ATOM     24  C   UNL     1      44.274   5.199  11.403  0.00  0.00    +0.000 C 
BRANCH  24  25
ATOM     25  N   UNL     1      44.354   5.366   9.958  0.00  0.00    +0.000 N 
ATOM     26  C   UNL     1      44.770   4.208   9.301  0.00  0.00    +0.000 A 
ATOM     27  N   UNL     1      44.455   3.001   9.800  0.00  0.00    +0.000 NA
ATOM     28  C   UNL     1      44.889   1.913   9.141  0.00  0.00    +0.000 A 
ATOM     29  C   UNL     1      45.632   1.983   7.996  0.00  0.00    +0.000 A 
ATOM     30  C   UNL     1      45.900   3.261   7.578  0.00  0.00    +0.000 A 
ATOM     31 CL   UNL     1      46.828   3.529   6.158  0.00  0.00    +0.000 Cl
ATOM     32  N   UNL     1      45.499   4.383   8.200  0.00  0.00    +0.000 NA
ATOM     33  H   UNL     1      44.961   6.109   9.626  0.00  0.00    +0.000 HD
ENDBRANCH  24  25
ENDBRANCH  23  24
ENDBRANCH   4  23
TORSDOF 7
ENDMDL
MODEL 5
REMARK VINA RESULT:    -6.667      2.627      3.486
REMARK INTER + INTRA:         -10.601
REMARK INTER:                  -9.741
REMARK INTRA:                  -0.860
REMARK UNBOUND:                -1.206
REMARK  Name = 
REMARK  8 active torsions:
REMARK  status: ('A' for Active; 'I' for Inactive)
REMARK    1  A    between atoms: C_1  and  O_2
REMARK    2  A    between atoms: O_2  and  C_3
REMARK    3  A    between atoms: C_10  and  C_11
REMARK    4  A    between atoms: N_13  and  C_14
REMARK    5  A    between atoms: C_14  and  C_15
REMARK    6  A    between atoms: C_18  and  C_19
REMARK    7  A    between atoms: C_19  and  C_20
REMARK    8  A    between atoms: C_20  and  N_21
REMARK                            x       y       z     vdW  Elec       q    Type
REMARK                         _______ _______ _______ _____ _____    ______ ____
ROOT
ATOM      1  C   UNL     1      46.916   5.000  14.190  0.00  0.00    +0.000 A 
ATOM      2  C   UNL     1      45.749   4.241  14.060  0.00  0.00    +0.000 A 
ATOM      3  C   UNL     1      44.874   4.452  12.990  0.00  0.00    +0.000 A 
ATOM      4  C   UNL     1      45.143   5.418  12.010  0.00  0.00    +0.000 A 
ATOM      5  C   UNL     1      46.346   6.134  12.110  0.00  0.00    +0.000 A 
ATOM      6  C   UNL     1      47.224   5.924  13.183  0.00  0.00    +0.000 A 
ENDROOT
BRANCH   1   7
ATOM      7  C   UNL     1      47.809   4.820  15.391  0.00  0.00    +0.000 C 
BRANCH   7  10
ATOM      8  C   UNL     1      49.128   6.597  16.462  0.00  0.00    +0.000 C 
ATOM      9  O   UNL     1      50.182   6.093  16.072  0.00  0.00    +0.000 OA
ATOM     10  N   UNL     1      47.920   6.029  16.165  0.00  0.00    +0.000 N 
ATOM     11  H   UNL     1      47.063   6.450  16.496  0.00  0.00    +0.000 HD
BRANCH   8  19
ATOM     12  C   UNL     1      47.803   7.376  19.536  0.00  0.00    +0.000 A 
ATOM     13  N   UNL     1      47.447   7.917  20.717  0.00  0.00    +0.000 NA
ATOM     14  C   UNL     1      47.806   9.181  20.960  0.00  0.00    +0.000 A 
ATOM     15  N   UNL     1      48.481   9.993  20.150  0.00  0.00    +0.000 NA
ATOM     16  C   UNL     1      48.829   9.409  18.991  0.00  0.00    +0.000 A 
ATOM     17  S   UNL     1      49.688  10.296  17.827  0.00  0.00    +0.000 S 
ATOM     18  C   UNL     1      49.740   8.962  16.776  0.00  0.00    +0.000 A 
ATOM     19  C   UNL     1      49.122   7.822  17.280  0.00  0.00    +0.000 A 
ATOM     20  C   UNL     1      48.554   8.102  18.596  0.00  0.00    +0.000 A 
BRANCH  12  22
ATOM     21  C   UNL     1      48.363   5.116  19.781  0.00  0.00    +0.000 C 
ATOM     22  O   UNL     1      47.435   6.073  19.280  0.00  0.00    +0.000 OA
ENDBRANCH  12  22
ENDBRANCH   8  19
ENDBRANCH   7  10
ENDBRANCH   1   7
BRANCH   4  23
ATOM     23  C   UNL     1      44.183   5.741  10.873  0.00  0.00    +0.000 C 
BRANCH  23  24
ATOM     24  C   UNL     1      43.935   4.593   9.882  0.00  0.00    +0.000 C 
BRANCH  24  25
ATOM     25  N   UNL     1      44.835   3.470  10.106  0.00  0.00    +0.000 N 
ATOM     26  C   UNL     1      45.526   3.091   8.956  0.00  0.00    +0.000 A 
ATOM     27  N   UNL     1      45.851   4.012   8.033  0.00  0.00    +0.000 NA
ATOM     28  C   UNL     1      46.505   3.598   6.933  0.00  0.00    +0.000 A 
ATOM     29  C   UNL     1      46.847   2.294   6.716  0.00  0.00    +0.000 A 
ATOM     30  C   UNL     1      46.463   1.439   7.717  0.00  0.00    +0.000 A 
ATOM     31 CL   UNL     1      46.810  -0.239   7.600  0.00  0.00    +0.000 Cl
ATOM     32  N   UNL     1      45.803   1.794   8.832  0.00  0.00    +0.000 NA
ATOM     33  H   UNL     1      44.411   2.622  10.470  0.00  0.00    +0.000 HD
ENDBRANCH  24  25
ENDBRANCH  23  24
ENDBRANCH   4  23
TORSDOF 7
ENDMDL
MODEL 6
REMARK VINA RESULT:    -6.601      3.093      4.417
REMARK INTER + INTRA:         -10.508
REMARK INTER:                  -9.298
REMARK INTRA:                  -1.210
REMARK UNBOUND:                -1.206
REMARK  Name = 
REMARK  8 active torsions:
REMARK  status: ('A' for Active; 'I' for Inactive)
REMARK    1  A    between atoms: C_1  and  O_2
REMARK    2  A    between atoms: O_2  and  C_3
REMARK    3  A    between atoms: C_10  and  C_11
REMARK    4  A    between atoms: N_13  and  C_14
REMARK    5  A    between atoms: C_14  and  C_15
REMARK    6  A    between atoms: C_18  and  C_19
REMARK    7  A    between atoms: C_19  and  C_20
REMARK    8  A    between atoms: C_20  and  N_21
REMARK                            x       y       z     vdW  Elec       q    Type
REMARK                         _______ _______ _______ _____ _____    ______ ____
ROOT
ATOM      1  C   UNL     1      45.713   7.495  12.583  0.00  0.00    +0.000 A 
ATOM      2  C   UNL     1      46.161   6.378  13.296  0.00  0.00    +0.000 A 
ATOM      3  C   UNL     1      45.470   5.164  13.233  0.00  0.00    +0.000 A 
ATOM      4  C   UNL     1      44.318   5.024  12.447  0.00  0.00    +0.000 A 
ATOM      5  C   UNL     1      43.907   6.129  11.684  0.00  0.00    +0.000 A 
ATOM      6  C   UNL     1      44.599   7.347  11.748  0.00  0.00    +0.000 A 
ENDROOT
BRANCH   1   7
ATOM      7  C   UNL     1      46.419   8.819  12.724  0.00  0.00    +0.000 C 
BRANCH   7  10
ATOM      8  C   UNL     1      48.679   9.708  12.339  0.00  0.00    +0.000 C 
ATOM      9  O   UNL     1      48.229  10.821  12.064  0.00  0.00    +0.000 OA
ATOM     10  N   UNL     1      47.851   8.673  12.676  0.00  0.00    +0.000 N 
ATOM     11  H   UNL     1      48.234   7.764  12.894  0.00  0.00    +0.000 HD
BRANCH   8  19
ATOM     12  C   UNL     1      50.894   8.390  14.613  0.00  0.00    +0.000 A 
ATOM     13  N   UNL     1      51.939   7.861  15.277  0.00  0.00    +0.000 NA
ATOM     14  C   UNL     1      53.120   7.819  14.654  0.00  0.00    +0.000 A 
ATOM     15  N   UNL     1      53.397   8.259  13.429  0.00  0.00    +0.000 NA
ATOM     16  C   UNL     1      52.324   8.765  12.797  0.00  0.00    +0.000 A 
ATOM     17  S   UNL     1      52.489   9.384  11.226  0.00  0.00    +0.000 S 
ATOM     18  C   UNL     1      50.836   9.773  11.153  0.00  0.00    +0.000 A 
ATOM     19  C   UNL     1      50.126   9.438  12.301  0.00  0.00    +0.000 A 
ATOM     20  C   UNL     1      51.027   8.859  13.294  0.00  0.00    +0.000 A 
BRANCH  12  22
ATOM     21  C   UNL     1      49.130   7.147  15.523  0.00  0.00    +0.000 C 
ATOM     22  O   UNL     1      49.673   8.435  15.250  0.00  0.00    +0.000 OA
ENDBRANCH  12  22
ENDBRANCH   8  19
ENDBRANCH   7  10
ENDBRANCH   1   7
BRANCH   4  23
ATOM     23  C   UNL     1      43.486   3.750  12.408  0.00  0.00    +0.000 C 
BRANCH  23  24
ATOM     24  C   UNL     1      43.389   3.073  11.032  0.00  0.00    +0.000 C 
BRANCH  24  25
ATOM     25  N   UNL     1      44.576   2.287  10.723  0.00  0.00    +0.000 N 
ATOM     26  C   UNL     1      45.210   2.700   9.552  0.00  0.00    +0.000 A 
ATOM     27  N   UNL     1      45.172   3.993   9.187  0.00  0.00    +0.000 NA
ATOM     28  C   UNL     1      45.785   4.343   8.042  0.00  0.00    +0.000 A 
ATOM     29  C   UNL     1      46.437   3.447   7.243  0.00  0.00    +0.000 A 
ATOM     30  C   UNL     1      46.410   2.158   7.706  0.00  0.00    +0.000 A 
ATOM     31 CL   UNL     1      47.178   0.904   6.818  0.00  0.00    +0.000 Cl
ATOM     32  N   UNL     1      45.808   1.749   8.836  0.00  0.00    +0.000 NA
ATOM     33  H   UNL     1      44.438   1.286  10.628  0.00  0.00    +0.000 HD
ENDBRANCH  24  25
ENDBRANCH  23  24
ENDBRANCH   4  23
TORSDOF 7
ENDMDL
MODEL 7
REMARK VINA RESULT:    -6.396      2.158      3.812
REMARK INTER + INTRA:         -10.219
REMARK INTER:                  -9.404
REMARK INTRA:                  -0.815
REMARK UNBOUND:                -1.206
REMARK  Name = 
REMARK  8 active torsions:
REMARK  status: ('A' for Active; 'I' for Inactive)
REMARK    1  A    between atoms: C_1  and  O_2
REMARK    2  A    between atoms: O_2  and  C_3
REMARK    3  A    between atoms: C_10  and  C_11
REMARK    4  A    between atoms: N_13  and  C_14
REMARK    5  A    between atoms: C_14  and  C_15
REMARK    6  A    between atoms: C_18  and  C_19
REMARK    7  A    between atoms: C_19  and  C_20
REMARK    8  A    between atoms: C_20  and  N_21
REMARK                            x       y       z     vdW  Elec       q    Type
REMARK                         _______ _______ _______ _____ _____    ______ ____
ROOT
ATOM      1  C   UNL     1      46.718   4.796  14.188  0.00  0.00    +0.000 A 
ATOM      2  C   UNL     1      45.516   4.106  14.005  0.00  0.00    +0.000 A 
ATOM      3  C   UNL     1      44.706   4.362  12.894  0.00  0.00    +0.000 A 
ATOM      4  C   UNL     1      45.076   5.307  11.926  0.00  0.00    +0.000 A 
ATOM      5  C   UNL     1      46.314   5.953  12.082  0.00  0.00    +0.000 A 
ATOM      6  C   UNL     1      47.127   5.696  13.195  0.00  0.00    +0.000 A 
ENDROOT
BRANCH   1   7
ATOM      7  C   UNL     1      47.543   4.570  15.430  0.00  0.00    +0.000 C 
BRANCH   7  10
ATOM      8  C   UNL     1      49.059   6.027  16.702  0.00  0.00    +0.000 C 
ATOM      9  O   UNL     1      49.946   5.173  16.685  0.00  0.00    +0.000 OA
ATOM     10  N   UNL     1      47.850   5.804  16.104  0.00  0.00    +0.000 N 
ATOM     11  H   UNL     1      47.129   6.512  16.131  0.00  0.00    +0.000 HD
BRANCH   8  19
ATOM     12  C   UNL     1      48.986   9.292  15.631  0.00  0.00    +0.000 A 
ATOM     13  N   UNL     1      48.956  10.632  15.493  0.00  0.00    +0.000 NA
ATOM     14  C   UNL     1      49.162  11.378  16.582  0.00  0.00    +0.000 A 
ATOM     15  N   UNL     1      49.412  10.946  17.815  0.00  0.00    +0.000 NA
ATOM     16  C   UNL     1      49.418   9.605  17.911  0.00  0.00    +0.000 A 
ATOM     17  S   UNL     1      49.730   8.871  19.409  0.00  0.00    +0.000 S 
ATOM     18  C   UNL     1      49.557   7.318  18.740  0.00  0.00    +0.000 A 
ATOM     19  C   UNL     1      49.255   7.320  17.382  0.00  0.00    +0.000 A 
ATOM     20  C   UNL     1      49.198   8.691  16.884  0.00  0.00    +0.000 A 
BRANCH  12  22
ATOM     21  C   UNL     1      47.896   9.121  13.566  0.00  0.00    +0.000 C 
ATOM     22  O   UNL     1      48.773   8.518  14.512  0.00  0.00    +0.000 OA
ENDBRANCH  12  22
ENDBRANCH   8  19
ENDBRANCH   7  10
ENDBRANCH   1   7
BRANCH   4  23
ATOM     23  C   UNL     1      44.192   5.680  10.745  0.00  0.00    +0.000 C 
BRANCH  23  24
ATOM     24  C   UNL     1      43.877   4.531   9.776  0.00  0.00    +0.000 C 
BRANCH  24  25
ATOM     25  N   UNL     1      44.711   3.362  10.021  0.00  0.00    +0.000 N 
ATOM     26  C   UNL     1      45.497   3.017   8.922  0.00  0.00    +0.000 A 
ATOM     27  N   UNL     1      45.942   3.971   8.087  0.00  0.00    +0.000 NA
ATOM     28  C   UNL     1      46.684   3.590   7.033  0.00  0.00    +0.000 A 
ATOM     29  C   UNL     1      47.000   2.285   6.777  0.00  0.00    +0.000 A 
ATOM     30  C   UNL     1      46.491   1.396   7.687  0.00  0.00    +0.000 A 
ATOM     31 CL   UNL     1      46.789  -0.286   7.510  0.00  0.00    +0.000 Cl
ATOM     32  N   UNL     1      45.739   1.718   8.753  0.00  0.00    +0.000 NA
ATOM     33  H   UNL     1      44.225   2.514  10.294  0.00  0.00    +0.000 HD
ENDBRANCH  24  25
ENDBRANCH  23  24
ENDBRANCH   4  23
TORSDOF 7
ENDMDL
MODEL 8
REMARK VINA RESULT:    -6.303      5.630      7.435
REMARK INTER + INTRA:         -10.088
REMARK INTER:                  -9.236
REMARK INTRA:                  -0.851
REMARK UNBOUND:                -1.206
REMARK  Name = 
REMARK  8 active torsions:
REMARK  status: ('A' for Active; 'I' for Inactive)
REMARK    1  A    between atoms: C_1  and  O_2
REMARK    2  A    between atoms: O_2  and  C_3
REMARK    3  A    between atoms: C_10  and  C_11
REMARK    4  A    between atoms: N_13  and  C_14
REMARK    5  A    between atoms: C_14  and  C_15
REMARK    6  A    between atoms: C_18  and  C_19
REMARK    7  A    between atoms: C_19  and  C_20
REMARK    8  A    between atoms: C_20  and  N_21
REMARK                            x       y       z     vdW  Elec       q    Type
REMARK                         _______ _______ _______ _____ _____    ______ ____
ROOT
ATOM      1  C   UNL     1      49.751   9.114  11.710  0.00  0.00    +0.000 A 
ATOM      2  C   UNL     1      48.685  10.001  11.892  0.00  0.00    +0.000 A 
ATOM      3  C   UNL     1      47.394   9.527  12.141  0.00  0.00    +0.000 A 
ATOM      4  C   UNL     1      47.128   8.153  12.227  0.00  0.00    +0.000 A 
ATOM      5  C   UNL     1      48.211   7.268  12.106  0.00  0.00    +0.000 A 
ATOM      6  C   UNL     1      49.507   7.743  11.856  0.00  0.00    +0.000 A 
ENDROOT
BRANCH   1   7
ATOM      7  C   UNL     1      51.122   9.635  11.361  0.00  0.00    +0.000 C 
BRANCH   7  10
ATOM      8  C   UNL     1      52.896   9.135   9.735  0.00  0.00    +0.000 C 
ATOM      9  O   UNL     1      53.764   9.539  10.509  0.00  0.00    +0.000 OA
ATOM     10  N   UNL     1      51.574   9.148  10.084  0.00  0.00    +0.000 N 
ATOM     11  H   UNL     1      50.871   8.818   9.437  0.00  0.00    +0.000 HD
BRANCH   8  19
ATOM     12  C   UNL     1      53.473   5.994   8.463  0.00  0.00    +0.000 A 
ATOM     13  N   UNL     1      53.680   4.897   7.710  0.00  0.00    +0.000 NA
ATOM     14  C   UNL     1      53.906   5.067   6.404  0.00  0.00    +0.000 A 
ATOM     15  N   UNL     1      53.963   6.221   5.744  0.00  0.00    +0.000 NA
ATOM     16  C   UNL     1      53.735   7.288   6.529  0.00  0.00    +0.000 A 
ATOM     17  S   UNL     1      53.777   8.847   5.861  0.00  0.00    +0.000 S 
ATOM     18  C   UNL     1      53.411   9.554   7.363  0.00  0.00    +0.000 A 
ATOM     19  C   UNL     1      53.241   8.634   8.393  0.00  0.00    +0.000 A 
ATOM     20  C   UNL     1      53.462   7.279   7.895  0.00  0.00    +0.000 A 
BRANCH  12  22
ATOM     21  C   UNL     1      54.377   5.357  10.527  0.00  0.00    +0.000 C 
ATOM     22  O   UNL     1      53.238   5.824   9.810  0.00  0.00    +0.000 OA
ENDBRANCH  12  22
ENDBRANCH   8  19
ENDBRANCH   7  10
ENDBRANCH   1   7
BRANCH   4  23
ATOM     23  C   UNL     1      45.728   7.585  12.415  0.00  0.00    +0.000 C 
BRANCH  23  24
ATOM     24  C   UNL     1      45.508   6.181  11.831  0.00  0.00    +0.000 C 
BRANCH  24  25
ATOM     25  N   UNL     1      45.364   6.206  10.382  0.00  0.00    +0.000 N 
ATOM     26  C   UNL     1      45.163   4.938   9.837  0.00  0.00    +0.000 A 
ATOM     27  N   UNL     1      44.509   3.999  10.540  0.00  0.00    +0.000 NA
ATOM     28  C   UNL     1      44.351   2.787   9.979  0.00  0.00    +0.000 A 
ATOM     29  C   UNL     1      44.825   2.474   8.737  0.00  0.00    +0.000 A 
ATOM     30  C   UNL     1      45.480   3.502   8.110  0.00  0.00    +0.000 A 
ATOM     31 CL   UNL     1      46.143   3.276   6.542  0.00  0.00    +0.000 Cl
ATOM     32  N   UNL     1      45.673   4.729   8.624  0.00  0.00    +0.000 NA
ATOM     33  H   UNL     1      46.134   6.615   9.862  0.00  0.00    +0.000 HD
ENDBRANCH  24  25
ENDBRANCH  23  24
ENDBRANCH   4  23
TORSDOF 7
ENDMDL
MODEL 9
REMARK VINA RESULT:    -6.021      5.625      7.571
REMARK INTER + INTRA:          -9.691
REMARK INTER:                  -8.654
REMARK INTRA:                  -1.037
REMARK UNBOUND:                -1.206
REMARK  Name = 
REMARK  8 active torsions:
REMARK  status: ('A' for Active; 'I' for Inactive)
REMARK    1  A    between atoms: C_1  and  O_2
REMARK    2  A    between atoms: O_2  and  C_3
REMARK    3  A    between atoms: C_10  and  C_11
REMARK    4  A    between atoms: N_13  and  C_14
REMARK    5  A    between atoms: C_14  and  C_15
REMARK    6  A    between atoms: C_18  and  C_19
REMARK    7  A    between atoms: C_19  and  C_20
REMARK    8  A    between atoms: C_20  and  N_21
REMARK                            x       y       z     vdW  Elec       q    Type
REMARK                         _______ _______ _______ _____ _____    ______ ____
ROOT
ATOM      1  C   UNL     1      50.086   8.688  11.456  0.00  0.00    +0.000 A 
ATOM      2  C   UNL     1      49.164   9.680  11.805  0.00  0.00    +0.000 A 
ATOM      3  C   UNL     1      47.909   9.340  12.319  0.00  0.00    +0.000 A 
ATOM      4  C   UNL     1      47.539   8.001  12.510  0.00  0.00    +0.000 A 
ATOM      5  C   UNL     1      48.491   7.012  12.216  0.00  0.00    +0.000 A 
ATOM      6  C   UNL     1      49.751   7.351  11.701  0.00  0.00    +0.000 A 
ENDROOT
BRANCH   1   7
ATOM      7  C   UNL     1      51.404   9.064  10.828  0.00  0.00    +0.000 C 
BRANCH   7  10
ATOM      8  C   UNL     1      53.483   7.947  10.140  0.00  0.00    +0.000 C 
ATOM      9  O   UNL     1      54.129   8.984  10.294  0.00  0.00    +0.000 OA
ATOM     10  N   UNL     1      52.139   7.907  10.385  0.00  0.00    +0.000 N 
ATOM     11  H   UNL     1      51.620   7.051  10.249  0.00  0.00    +0.000 HD
BRANCH   8  19
ATOM     12  C   UNL     1      53.098   6.008   7.328  0.00  0.00    +0.000 A 
ATOM     13  N   UNL     1      53.190   5.124   6.317  0.00  0.00    +0.000 NA
ATOM     14  C   UNL     1      54.089   4.141   6.424  0.00  0.00    +0.000 A 
ATOM     15  N   UNL     1      54.918   3.920   7.442  0.00  0.00    +0.000 NA
ATOM     16  C   UNL     1      54.803   4.834   8.421  0.00  0.00    +0.000 A 
ATOM     17  S   UNL     1      55.775   4.706   9.807  0.00  0.00    +0.000 S 
ATOM     18  C   UNL     1      55.091   6.111  10.476  0.00  0.00    +0.000 A 
ATOM     19  C   UNL     1      54.127   6.708   9.670  0.00  0.00    +0.000 A 
ATOM     20  C   UNL     1      53.938   5.924   8.452  0.00  0.00    +0.000 A 
BRANCH  12  22
ATOM     21  C   UNL     1      52.655   8.155   6.505  0.00  0.00    +0.000 C 
ATOM     22  O   UNL     1      52.173   7.024   7.223  0.00  0.00    +0.000 OA
ENDBRANCH  12  22
ENDBRANCH   8  19
ENDBRANCH   7  10
ENDBRANCH   1   7
BRANCH   4  23
ATOM     23  C   UNL     1      46.158   7.578  12.988  0.00  0.00    +0.000 C 
BRANCH  23  24
ATOM     24  C   UNL     1      44.993   8.011  12.084  0.00  0.00    +0.000 C 
BRANCH  24  25
ATOM     25  N   UNL     1      44.864   7.160  10.909  0.00  0.00    +0.000 N 
ATOM     26  C   UNL     1      44.332   5.905  11.205  0.00  0.00    +0.000 A 
ATOM     27  N   UNL     1      43.449   5.769  12.208  0.00  0.00    +0.000 NA
ATOM     28  C   UNL     1      42.973   4.538  12.467  0.00  0.00    +0.000 A 
ATOM     29  C   UNL     1      43.349   3.431  11.760  0.00  0.00    +0.000 A 
ATOM     30  C   UNL     1      44.257   3.682  10.764  0.00  0.00    +0.000 A 
ATOM     31 CL   UNL     1      44.840   2.399   9.782  0.00  0.00    +0.000 Cl
ATOM     32  N   UNL     1      44.771   4.888  10.466  0.00  0.00    +0.000 NA
ATOM     33  H   UNL     1      45.716   6.986  10.386  0.00  0.00    +0.000 HD
ENDBRANCH  24  25
ENDBRANCH  23  24
ENDBRANCH   4  23
TORSDOF 7
ENDMDL
