MODEL 1
REMARK VINA RESULT:    -7.647      0.000      0.000
REMARK INTER + INTRA:         -11.185
REMARK INTER:                 -10.329
REMARK INTRA:                  -0.856
REMARK UNBOUND:                -0.856
REMARK  Name = 
REMARK  7 active torsions:
REMARK  status: ('A' for Active; 'I' for Inactive)
REMARK    1  A    between atoms: N_1  and  C_2
REMARK    2  A    between atoms: C_2  and  C_3
REMARK    3  A    between atoms: C_6  and  C_7
REMARK    4  A    between atoms: C_7  and  C_8
REMARK    5  A    between atoms: C_8  and  C_9
REMARK    6  A    between atoms: C_12  and  C_13
REMARK    7  A    between atoms: C_13  and  O_15
REMARK                            x       y       z     vdW  Elec       q    Type
REMARK                         _______ _______ _______ _____ _____    ______ ____
ROOT
ATOM      1  C   UNL     1      43.851   4.650  11.467  0.00  0.00    +0.000 C 
ENDROOT
BRANCH   1   5
ATOM      2  C   UNL     1      47.497   6.179  13.271  0.00  0.00    +0.000 A 
ATOM      3  C   UNL     1      47.008   6.728  12.077  0.00  0.00    +0.000 A 
ATOM      4  C   UNL     1      45.846   6.227  11.477  0.00  0.00    +0.000 A 
ATOM      5  C   UNL     1      45.141   5.168  12.063  0.00  0.00    +0.000 A 
ATOM      6  C   UNL     1      45.642   4.603  13.242  0.00  0.00    +0.000 A 
ATOM      7  C   UNL     1      46.803   5.110  13.844  0.00  0.00    +0.000 A 
BRANCH   2   8
ATOM      8  C   UNL     1      48.767   6.704  13.894  0.00  0.00    +0.000 C 
BRANCH   8   9
ATOM      9  N   UNL     1      49.795   6.996  12.901  0.00  0.00    +0.000 NA
ATOM     10  H   UNL     1      50.036   6.137  12.410  0.00  0.00    +0.000 HD
ATOM     11  H   UNL     1      50.641   7.299  13.383  0.00  0.00    +0.000 HD
ENDBRANCH   8   9
ENDBRANCH   2   8
ENDBRANCH   1   5
BRANCH   1  12
ATOM     12  C   UNL     1      43.761   4.816   9.945  0.00  0.00    +0.000 C 
BRANCH  12  13
ATOM     13  C   UNL     1      44.638   3.829   9.202  0.00  0.00    +0.000 A 
ATOM     14  C   UNL     1      45.572   4.281   8.258  0.00  0.00    +0.000 A 
ATOM     15  C   UNL     1      46.422   3.388   7.593  0.00  0.00    +0.000 A 
ATOM     16  C   UNL     1      46.335   2.016   7.856  0.00  0.00    +0.000 A 
ATOM     17  C   UNL     1      45.399   1.555   8.790  0.00  0.00    +0.000 A 
ATOM     18  C   UNL     1      44.555   2.449   9.453  0.00  0.00    +0.000 A 
BRANCH  16  19
ATOM     19  C   UNL     1      47.244   1.014   7.233  0.00  0.00    +0.000 C 
ATOM     20  O   UNL     1      48.106   1.322   6.425  0.00  0.00    +0.000 OA
BRANCH  19  21
ATOM     21  O   UNL     1      47.065  -0.253   7.658  0.00  0.00    +0.000 OA
ATOM     22  H   UNL     1      46.230  -0.427   8.130  0.00  0.00    +0.000 HD
ENDBRANCH  19  21
ENDBRANCH  16  19
ENDBRANCH  12  13
ENDBRANCH   1  12
TORSDOF 7
ENDMDL
MODEL 2
REMARK VINA RESULT:    -7.366      3.848      6.580
REMARK INTER + INTRA:         -10.806
REMARK INTER:                 -10.084
REMARK INTRA:                  -0.722
REMARK UNBOUND:                -0.856
REMARK  Name = 
REMARK  7 active torsions:
REMARK  status: ('A' for Active; 'I' for Inactive)
REMARK    1  A    between atoms: N_1  and  C_2
REMARK    2  A    between atoms: C_2  and  C_3
REMARK    3  A    between atoms: C_6  and  C_7
REMARK    4  A    between atoms: C_7  and  C_8
REMARK    5  A    between atoms: C_8  and  C_9
REMARK    6  A    between atoms: C_12  and  C_13
REMARK    7  A    between atoms: C_13  and  O_15
REMARK                            x       y       z     vdW  Elec       q    Type
REMARK                         _______ _______ _______ _____ _____    ______ ____
ROOT
ATOM      1  C   UNL     1      44.136   2.875  10.378  0.00  0.00    +0.000 C 
ENDROOT
BRANCH   1   5
ATOM      2  C   UNL     1      46.584   2.733   6.790  0.00  0.00    +0.000 A 
ATOM      3  C   UNL     1      46.422   1.591   7.588  0.00  0.00    +0.000 A 
ATOM      4  C   UNL     1      45.652   1.633   8.758  0.00  0.00    +0.000 A 
ATOM      5  C   UNL     1      45.021   2.819   9.152  0.00  0.00    +0.000 A 
ATOM      6  C   UNL     1      45.203   3.967   8.370  0.00  0.00    +0.000 A 
ATOM      7  C   UNL     1      45.969   3.921   7.197  0.00  0.00    +0.000 A 
BRANCH   2   8
ATOM      8  C   UNL     1      47.441   2.687   5.549  0.00  0.00    +0.000 C 
BRANCH   8   9
ATOM      9  N   UNL     1      48.583   1.790   5.693  0.00  0.00    +0.000 NA
ATOM     10  H   UNL     1      49.052   1.703   4.794  0.00  0.00    +0.000 HD
ATOM     11  H   UNL     1      48.242   0.859   5.930  0.00  0.00    +0.000 HD
ENDBRANCH   8   9
ENDBRANCH   2   8
ENDBRANCH   1   5
BRANCH   1  12
ATOM     12  C   UNL     1      43.825   4.299  10.853  0.00  0.00    +0.000 C 
BRANCH  12  13
ATOM     13  C   UNL     1      44.929   4.875  11.717  0.00  0.00    +0.000 A 
ATOM     14  C   UNL     1      45.281   4.256  12.925  0.00  0.00    +0.000 A 
ATOM     15  C   UNL     1      46.327   4.748  13.715  0.00  0.00    +0.000 A 
ATOM     16  C   UNL     1      47.031   5.888  13.309  0.00  0.00    +0.000 A 
ATOM     17  C   UNL     1      46.681   6.517  12.108  0.00  0.00    +0.000 A 
ATOM     18  C   UNL     1      45.638   6.022  11.322  0.00  0.00    +0.000 A 
BRANCH  16  19
ATOM     19  C   UNL     1      48.192   6.433  14.065  0.00  0.00    +0.000 C 
ATOM     20  O   UNL     1      49.262   6.685  13.533  0.00  0.00    +0.000 OA
BRANCH  19  21
ATOM     21  O   UNL     1      47.958   6.662  15.372  0.00  0.00    +0.000 OA
ATOM     22  H   UNL     1      47.437   7.460  15.575  0.00  0.00    +0.000 HD
ENDBRANCH  19  21
ENDBRANCH  16  19
ENDBRANCH  12  13
ENDBRANCH   1  12
TORSDOF 7
ENDMDL
MODEL 3
REMARK VINA RESULT:    -7.362      1.357      1.836
REMARK INTER + INTRA:         -10.801
REMARK INTER:                  -9.941
REMARK INTRA:                  -0.860
REMARK UNBOUND:                -0.856
REMARK  Name = 
REMARK  7 active torsions:
REMARK  status: ('A' for Active; 'I' for Inactive)
REMARK    1  A    between atoms: N_1  and  C_2
REMARK    2  A    between atoms: C_2  and  C_3
REMARK    3  A    between atoms: C_6  and  C_7
REMARK    4  A    between atoms: C_7  and  C_8
REMARK    5  A    between atoms: C_8  and  C_9
REMARK    6  A    between atoms: C_12  and  C_13
REMARK    7  A    between atoms: C_13  and  O_15
REMARK                            x       y       z     vdW  Elec       q    Type
REMARK                         _______ _______ _______ _____ _____    ______ ____
ROOT
ATOM      1  C   UNL     1      44.266   3.484  12.027  0.00  0.00    +0.000 C 
ENDROOT
BRANCH   1   5
ATOM      2  C   UNL     1      46.869   6.724  13.297  0.00  0.00    +0.000 A 
ATOM      3  C   UNL     1      47.190   5.393  13.597  0.00  0.00    +0.000 A 
ATOM      4  C   UNL     1      46.346   4.343  13.211  0.00  0.00    +0.000 A 
ATOM      5  C   UNL     1      45.163   4.603  12.509  0.00  0.00    +0.000 A 
ATOM      6  C   UNL     1      44.828   5.935  12.231  0.00  0.00    +0.000 A 
ATOM      7  C   UNL     1      45.677   6.983  12.613  0.00  0.00    +0.000 A 
BRANCH   2   8
ATOM      8  C   UNL     1      47.768   7.851  13.745  0.00  0.00    +0.000 C 
BRANCH   8   9
ATOM      9  N   UNL     1      47.033   8.912  14.426  0.00  0.00    +0.000 NA
ATOM     10  H   UNL     1      46.603   9.518  13.730  0.00  0.00    +0.000 HD
ATOM     11  H   UNL     1      47.695   9.492  14.941  0.00  0.00    +0.000 HD
ENDBRANCH   8   9
ENDBRANCH   2   8
ENDBRANCH   1   5
BRANCH   1  12
ATOM     12  C   UNL     1      43.679   3.718  10.630  0.00  0.00    +0.000 C 
BRANCH  12  13
ATOM     13  C   UNL     1      44.658   3.377   9.526  0.00  0.00    +0.000 A 
ATOM     14  C   UNL     1      45.246   4.393   8.759  0.00  0.00    +0.000 A 
ATOM     15  C   UNL     1      46.186   4.100   7.763  0.00  0.00    +0.000 A 
ATOM     16  C   UNL     1      46.542   2.770   7.510  0.00  0.00    +0.000 A 
ATOM     17  C   UNL     1      45.955   1.748   8.265  0.00  0.00    +0.000 A 
ATOM     18  C   UNL     1      45.018   2.045   9.259  0.00  0.00    +0.000 A 
BRANCH  16  19
ATOM     19  C   UNL     1      47.577   2.386   6.510  0.00  0.00    +0.000 C 
ATOM     20  O   UNL     1      48.317   1.428   6.666  0.00  0.00    +0.000 OA
BRANCH  19  21
ATOM     21  O   UNL     1      47.607   3.155   5.404  0.00  0.00    +0.000 OA
ATOM     22  H   UNL     1      48.339   2.978   4.785  0.00  0.00    +0.000 HD
ENDBRANCH  19  21
ENDBRANCH  16  19
ENDBRANCH  12  13
ENDBRANCH   1  12
TORSDOF 7
ENDMDL
MODEL 4
REMARK VINA RESULT:    -6.798      4.241      6.887
REMARK INTER + INTRA:         -10.039
REMARK INTER:                  -9.336
REMARK INTRA:                  -0.704
REMARK UNBOUND:                -0.856
REMARK  Name = 
REMARK  7 active torsions:
REMARK  status: ('A' for Active; 'I' for Inactive)
REMARK    1  A    between atoms: N_1  and  C_2
REMARK    2  A    between atoms: C_2  and  C_3
REMARK    3  A    between atoms: C_6  and  C_7
REMARK    4  A    between atoms: C_7  and  C_8
REMARK    5  A    between atoms: C_8  and  C_9
REMARK    6  A    between atoms: C_12  and  C_13
REMARK    7  A    between atoms: C_13  and  O_15
REMARK                            x       y       z     vdW  Elec       q    Type
REMARK                         _______ _______ _______ _____ _____    ______ ____
ROOT
ATOM      1  C   UNL     1      44.265   3.446  10.688  0.00  0.00    +0.000 C 
ENDROOT
BRANCH   1   5
ATOM      2  C   UNL     1      46.547   2.833   7.041  0.00  0.00    +0.000 A 
ATOM      3  C   UNL     1      46.156   1.741   7.828  0.00  0.00    +0.000 A 
ATOM      4  C   UNL     1      45.439   1.930   9.017  0.00  0.00    +0.000 A 
ATOM      5  C   UNL     1      45.091   3.219   9.440  0.00  0.00    +0.000 A 
ATOM      6  C   UNL     1      45.503   4.312   8.668  0.00  0.00    +0.000 A 
ATOM      7  C   UNL     1      46.216   4.119   7.476  0.00  0.00    +0.000 A 
BRANCH   2   8
ATOM      8  C   UNL     1      47.347   2.622   5.778  0.00  0.00    +0.000 C 
BRANCH   8   9
ATOM      9  N   UNL     1      48.592   1.902   6.022  0.00  0.00    +0.000 NA
ATOM     10  H   UNL     1      48.574   1.023   5.508  0.00  0.00    +0.000 HD
ATOM     11  H   UNL     1      48.642   1.655   7.011  0.00  0.00    +0.000 HD
ENDBRANCH   8   9
ENDBRANCH   2   8
ENDBRANCH   1   5
BRANCH   1  12
ATOM     12  C   UNL     1      45.093   3.855  11.912  0.00  0.00    +0.000 C 
BRANCH  12  13
ATOM     13  C   UNL     1      45.374   5.343  11.951  0.00  0.00    +0.000 A 
ATOM     14  C   UNL     1      44.382   6.263  11.576  0.00  0.00    +0.000 A 
ATOM     15  C   UNL     1      44.608   7.643  11.648  0.00  0.00    +0.000 A 
ATOM     16  C   UNL     1      45.848   8.125  12.085  0.00  0.00    +0.000 A 
ATOM     17  C   UNL     1      46.846   7.214  12.453  0.00  0.00    +0.000 A 
ATOM     18  C   UNL     1      46.616   5.838  12.382  0.00  0.00    +0.000 A 
BRANCH  16  19
ATOM     19  C   UNL     1      46.141   9.576  12.245  0.00  0.00    +0.000 C 
ATOM     20  O   UNL     1      47.263  10.038  12.109  0.00  0.00    +0.000 OA
BRANCH  19  21
ATOM     21  O   UNL     1      45.066  10.344  12.512  0.00  0.00    +0.000 OA
ATOM     22  H   UNL     1      44.460  10.001  13.193  0.00  0.00    +0.000 HD
ENDBRANCH  19  21
ENDBRANCH  16  19
ENDBRANCH  12  13
ENDBRANCH   1  12
TORSDOF 7
ENDMDL
MODEL 5
REMARK VINA RESULT:    -5.528      4.380      6.218
REMARK INTER + INTRA:          -8.324
REMARK INTER:                  -7.689
REMARK INTRA:                  -0.634
REMARK UNBOUND:                -0.856
REMARK  Name = 
REMARK  7 active torsions:
REMARK  status: ('A' for Active; 'I' for Inactive)
REMARK    1  A    between atoms: N_1  and  C_2
REMARK    2  A    between atoms: C_2  and  C_3
REMARK    3  A    between atoms: C_6  and  C_7
REMARK    4  A    between atoms: C_7  and  C_8
REMARK    5  A    between atoms: C_8  and  C_9
REMARK    6  A    between atoms: C_12  and  C_13
REMARK    7  A    between atoms: C_13  and  O_15
REMARK                            x       y       z     vdW  Elec       q    Type
REMARK                         _______ _______ _______ _____ _____    ______ ____
ROOT
ATOM      1  C   UNL     1      47.514   4.689  16.338  0.00  0.00    +0.000 C 
ENDROOT
BRANCH   1   5
ATOM      2  C   UNL     1      51.094   2.517  17.501  0.00  0.00    +0.000 A 
ATOM      3  C   UNL     1      49.975   1.833  17.007  0.00  0.00    +0.000 A 
ATOM      4  C   UNL     1      48.808   2.523  16.650  0.00  0.00    +0.000 A 
ATOM      5  C   UNL     1      48.740   3.916  16.773  0.00  0.00    +0.000 A 
ATOM      6  C   UNL     1      49.848   4.598  17.290  0.00  0.00    +0.000 A 
ATOM      7  C   UNL     1      51.016   3.906  17.641  0.00  0.00    +0.000 A 
BRANCH   2   8
ATOM      8  C   UNL     1      52.335   1.764  17.913  0.00  0.00    +0.000 C 
BRANCH   8   9
ATOM      9  N   UNL     1      52.070   0.351  18.163  0.00  0.00    +0.000 NA
ATOM     10  H   UNL     1      51.064   0.205  18.213  0.00  0.00    +0.000 HD
ATOM     11  H   UNL     1      52.442   0.104  19.080  0.00  0.00    +0.000 HD
ENDBRANCH   8   9
ENDBRANCH   2   8
ENDBRANCH   1   5
BRANCH   1  12
ATOM     12  C   UNL     1      47.689   5.426  15.005  0.00  0.00    +0.000 C 
BRANCH  12  13
ATOM     13  C   UNL     1      46.749   4.915  13.932  0.00  0.00    +0.000 A 
ATOM     14  C   UNL     1      46.726   3.552  13.600  0.00  0.00    +0.000 A 
ATOM     15  C   UNL     1      45.833   3.054  12.643  0.00  0.00    +0.000 A 
ATOM     16  C   UNL     1      44.955   3.925  11.988  0.00  0.00    +0.000 A 
ATOM     17  C   UNL     1      44.977   5.288  12.307  0.00  0.00    +0.000 A 
ATOM     18  C   UNL     1      45.868   5.782  13.264  0.00  0.00    +0.000 A 
BRANCH  16  19
ATOM     19  C   UNL     1      43.939   3.460  11.004  0.00  0.00    +0.000 C 
ATOM     20  O   UNL     1      44.237   2.837   9.997  0.00  0.00    +0.000 OA
BRANCH  19  21
ATOM     21  O   UNL     1      42.663   3.748  11.330  0.00  0.00    +0.000 OA
ATOM     22  H   UNL     1      42.539   4.523  11.907  0.00  0.00    +0.000 HD
ENDBRANCH  19  21
ENDBRANCH  16  19
ENDBRANCH  12  13
ENDBRANCH   1  12
TORSDOF 7
ENDMDL
MODEL 6
REMARK VINA RESULT:    -5.376      4.182      6.846
REMARK INTER + INTRA:          -8.119
REMARK INTER:                  -7.467
REMARK INTRA:                  -0.652
REMARK UNBOUND:                -0.856
REMARK  Name = 
REMARK  7 active torsions:
REMARK  status: ('A' for Active; 'I' for Inactive)
REMARK    1  A    between atoms: N_1  and  C_2
REMARK    2  A    between atoms: C_2  and  C_3
REMARK    3  A    between atoms: C_6  and  C_7
REMARK    4  A    between atoms: C_7  and  C_8
REMARK    5  A    between atoms: C_8  and  C_9
REMARK    6  A    between atoms: C_12  and  C_13
REMARK    7  A    between atoms: C_13  and  O_15
REMARK                            x       y       z     vdW  Elec       q    Type
REMARK                         _______ _______ _______ _____ _____    ______ ____
ROOT
ATOM      1  C   UNL     1      45.033   5.250  12.864  0.00  0.00    +0.000 C 
ENDROOT
BRANCH   1   5
ATOM      2  C   UNL     1      45.405   3.850   8.767  0.00  0.00    +0.000 A 
ATOM      3  C   UNL     1      44.981   2.980   9.781  0.00  0.00    +0.000 A 
ATOM      4  C   UNL     1      44.879   3.416  11.109  0.00  0.00    +0.000 A 
ATOM      5  C   UNL     1      45.193   4.738  11.449  0.00  0.00    +0.000 A 
ATOM      6  C   UNL     1      45.640   5.601  10.441  0.00  0.00    +0.000 A 
ATOM      7  C   UNL     1      45.736   5.163   9.112  0.00  0.00    +0.000 A 
BRANCH   2   8
ATOM      8  C   UNL     1      45.542   3.363   7.345  0.00  0.00    +0.000 C 
BRANCH   8   9
ATOM      9  N   UNL     1      46.668   3.980   6.652  0.00  0.00    +0.000 NA
ATOM     10  H   UNL     1      46.745   3.577   5.720  0.00  0.00    +0.000 HD
ATOM     11  H   UNL     1      47.529   3.736   7.141  0.00  0.00    +0.000 HD
ENDBRANCH   8   9
ENDBRANCH   2   8
ENDBRANCH   1   5
BRANCH   1  12
ATOM     12  C   UNL     1      46.362   5.487  13.590  0.00  0.00    +0.000 C 
BRANCH  12  13
ATOM     13  C   UNL     1      47.104   6.698  13.061  0.00  0.00    +0.000 A 
ATOM     14  C   UNL     1      48.428   6.579  12.614  0.00  0.00    +0.000 A 
ATOM     15  C   UNL     1      49.115   7.677  12.080  0.00  0.00    +0.000 A 
ATOM     16  C   UNL     1      48.483   8.923  12.001  0.00  0.00    +0.000 A 
ATOM     17  C   UNL     1      47.164   9.053  12.452  0.00  0.00    +0.000 A 
ATOM     18  C   UNL     1      46.481   7.955  12.982  0.00  0.00    +0.000 A 
BRANCH  16  19
ATOM     19  C   UNL     1      49.128  10.120  11.392  0.00  0.00    +0.000 C 
ATOM     20  O   UNL     1      48.487  11.008  10.853  0.00  0.00    +0.000 OA
BRANCH  19  21
ATOM     21  O   UNL     1      50.470  10.163  11.516  0.00  0.00    +0.000 OA
ATOM     22  H   UNL     1      50.868   9.454  12.053  0.00  0.00    +0.000 HD
ENDBRANCH  19  21
ENDBRANCH  16  19
ENDBRANCH  12  13
ENDBRANCH   1  12
TORSDOF 7
ENDMDL
MODEL 7
REMARK VINA RESULT:    -5.252      4.766      7.576
REMARK INTER + INTRA:          -7.951
REMARK INTER:                  -7.407
REMARK INTRA:                  -0.544
REMARK UNBOUND:                -0.856
REMARK  Name = 
REMARK  7 active torsions:
REMARK  status: ('A' for Active; 'I' for Inactive)
REMARK    1  A    between atoms: N_1  and  C_2
REMARK    2  A    between atoms: C_2  and  C_3
REMARK    3  A    between atoms: C_6  and  C_7
REMARK    4  A    between atoms: C_7  and  C_8
REMARK    5  A    between atoms: C_8  and  C_9
REMARK    6  A    between atoms: C_12  and  C_13
REMARK    7  A    between atoms: C_13  and  O_15
REMARK                            x       y       z     vdW  Elec       q    Type
REMARK                         _______ _______ _______ _____ _____    ______ ____
ROOT
ATOM      1  C   UNL     1      45.937   6.513  12.846  0.00  0.00    +0.000 C 
ENDROOT
BRANCH   1   5
ATOM      2  C   UNL     1      44.886   3.443   9.956  0.00  0.00    +0.000 A 
ATOM      3  C   UNL     1      45.338   4.699   9.528  0.00  0.00    +0.000 A 
ATOM      4  C   UNL     1      45.658   5.702  10.452  0.00  0.00    +0.000 A 
ATOM      5  C   UNL     1      45.540   5.467  11.827  0.00  0.00    +0.000 A 
ATOM      6  C   UNL     1      45.065   4.221  12.255  0.00  0.00    +0.000 A 
ATOM      7  C   UNL     1      44.750   3.217  11.329  0.00  0.00    +0.000 A 
BRANCH   2   8
ATOM      8  C   UNL     1      44.513   2.379   8.953  0.00  0.00    +0.000 C 
BRANCH   8   9
ATOM      9  N   UNL     1      45.536   1.346   8.830  0.00  0.00    +0.000 NA
ATOM     10  H   UNL     1      46.236   1.484   9.557  0.00  0.00    +0.000 HD
ATOM     11  H   UNL     1      46.020   1.466   7.941  0.00  0.00    +0.000 HD
ENDBRANCH   8   9
ENDBRANCH   2   8
ENDBRANCH   1   5
BRANCH   1  12
ATOM     12  C   UNL     1      47.442   6.551  13.140  0.00  0.00    +0.000 C 
BRANCH  12  13
ATOM     13  C   UNL     1      47.782   5.978  14.500  0.00  0.00    +0.000 A 
ATOM     14  C   UNL     1      47.205   4.772  14.926  0.00  0.00    +0.000 A 
ATOM     15  C   UNL     1      47.541   4.203  16.161  0.00  0.00    +0.000 A 
ATOM     16  C   UNL     1      48.455   4.850  17.001  0.00  0.00    +0.000 A 
ATOM     17  C   UNL     1      49.029   6.059  16.588  0.00  0.00    +0.000 A 
ATOM     18  C   UNL     1      48.694   6.622  15.354  0.00  0.00    +0.000 A 
BRANCH  16  19
ATOM     19  C   UNL     1      48.905   4.278  18.301  0.00  0.00    +0.000 C 
ATOM     20  O   UNL     1      50.063   4.345  18.681  0.00  0.00    +0.000 OA
BRANCH  19  21
ATOM     21  O   UNL     1      47.928   3.715  19.039  0.00  0.00    +0.000 OA
ATOM     22  H   UNL     1      48.090   3.682  19.999  0.00  0.00    +0.000 HD
ENDBRANCH  19  21
ENDBRANCH  16  19
ENDBRANCH  12  13
ENDBRANCH   1  12
TORSDOF 7
ENDMDL
MODEL 8
REMARK VINA RESULT:    -5.227      2.883      4.619
REMARK INTER + INTRA:          -7.917
REMARK INTER:                  -7.130
REMARK INTRA:                  -0.787
REMARK UNBOUND:                -0.856
REMARK  Name = 
REMARK  7 active torsions:
REMARK  status: ('A' for Active; 'I' for Inactive)
REMARK    1  A    between atoms: N_1  and  C_2
REMARK    2  A    between atoms: C_2  and  C_3
REMARK    3  A    between atoms: C_6  and  C_7
REMARK    4  A    between atoms: C_7  and  C_8
REMARK    5  A    between atoms: C_8  and  C_9
REMARK    6  A    between atoms: C_12  and  C_13
REMARK    7  A    between atoms: C_13  and  O_15
REMARK                            x       y       z     vdW  Elec       q    Type
REMARK                         _______ _______ _______ _____ _____    ______ ____
ROOT
ATOM      1  C   UNL     1      46.392   8.485  13.137  0.00  0.00    +0.000 C 
ENDROOT
BRANCH   1   5
ATOM      2  C   UNL     1      50.395   8.499  11.446  0.00  0.00    +0.000 A 
ATOM      3  C   UNL     1      49.611   9.661  11.430  0.00  0.00    +0.000 A 
ATOM      4  C   UNL     1      48.312   9.661  11.953  0.00  0.00    +0.000 A 
ATOM      5  C   UNL     1      47.770   8.496  12.511  0.00  0.00    +0.000 A 
ATOM      6  C   UNL     1      48.542   7.328  12.504  0.00  0.00    +0.000 A 
ATOM      7  C   UNL     1      49.845   7.333  11.985  0.00  0.00    +0.000 A 
BRANCH   2   8
ATOM      8  C   UNL     1      51.782   8.500  10.851  0.00  0.00    +0.000 C 
BRANCH   8   9
ATOM      9  N   UNL     1      52.366   7.164  10.799  0.00  0.00    +0.000 NA
ATOM     10  H   UNL     1      52.053   6.698   9.950  0.00  0.00    +0.000 HD
ATOM     11  H   UNL     1      52.004   6.615  11.578  0.00  0.00    +0.000 HD
ENDBRANCH   8   9
ENDBRANCH   2   8
ENDBRANCH   1   5
BRANCH   1  12
ATOM     12  C   UNL     1      45.255   8.298  12.126  0.00  0.00    +0.000 C 
BRANCH  12  13
ATOM     13  C   UNL     1      44.941   6.838  11.870  0.00  0.00    +0.000 A 
ATOM     14  C   UNL     1      44.276   6.074  12.840  0.00  0.00    +0.000 A 
ATOM     15  C   UNL     1      43.938   4.736  12.604  0.00  0.00    +0.000 A 
ATOM     16  C   UNL     1      44.279   4.135  11.387  0.00  0.00    +0.000 A 
ATOM     17  C   UNL     1      44.951   4.887  10.416  0.00  0.00    +0.000 A 
ATOM     18  C   UNL     1      45.284   6.223  10.654  0.00  0.00    +0.000 A 
BRANCH  16  19
ATOM     19  C   UNL     1      43.901   2.736  11.042  0.00  0.00    +0.000 C 
ATOM     20  O   UNL     1      42.958   2.163  11.563  0.00  0.00    +0.000 OA
BRANCH  19  21
ATOM     21  O   UNL     1      44.658   2.167  10.083  0.00  0.00    +0.000 OA
ATOM     22  H   UNL     1      45.484   1.750  10.388  0.00  0.00    +0.000 HD
ENDBRANCH  19  21
ENDBRANCH  16  19
ENDBRANCH  12  13
ENDBRANCH   1  12
TORSDOF 7
ENDMDL
MODEL 9
REMARK VINA RESULT:    -5.223      3.713      5.606
REMARK INTER + INTRA:          -7.911
REMARK INTER:                  -7.275
REMARK INTRA:                  -0.636
REMARK UNBOUND:                -0.856
REMARK  Name = 
REMARK  7 active torsions:
REMARK  status: ('A' for Active; 'I' for Inactive)
REMARK    1  A    between atoms: N_1  and  C_2
REMARK    2  A    between atoms: C_2  and  C_3
REMARK    3  A    between atoms: C_6  and  C_7
REMARK    4  A    between atoms: C_7  and  C_8
REMARK    5  A    between atoms: C_8  and  C_9
REMARK    6  A    between atoms: C_12  and  C_13
REMARK    7  A    between atoms: C_13  and  O_15
REMARK                            x       y       z     vdW  Elec       q    Type
REMARK                         _______ _______ _______ _____ _____    ______ ____
ROOT
ATOM      1  C   UNL     1      48.613   6.420  14.367  0.00  0.00    +0.000 C 
ENDROOT
BRANCH   1   5
ATOM      2  C   UNL     1      48.379   5.487  18.605  0.00  0.00    +0.000 A 
ATOM      3  C   UNL     1      48.951   6.691  18.172  0.00  0.00    +0.000 A 
ATOM      4  C   UNL     1      49.050   6.991  16.807  0.00  0.00    +0.000 A 
ATOM      5  C   UNL     1      48.572   6.093  15.844  0.00  0.00    +0.000 A 
ATOM      6  C   UNL     1      48.023   4.878  16.276  0.00  0.00    +0.000 A 
ATOM      7  C   UNL     1      47.920   4.583  17.642  0.00  0.00    +0.000 A 
BRANCH   2   8
ATOM      8  C   UNL     1      48.304   5.158  20.076  0.00  0.00    +0.000 C 
BRANCH   8   9
ATOM      9  N   UNL     1      48.376   3.723  20.330  0.00  0.00    +0.000 NA
ATOM     10  H   UNL     1      48.323   3.226  19.444  0.00  0.00    +0.000 HD
ATOM     11  H   UNL     1      47.556   3.442  20.867  0.00  0.00    +0.000 HD
ENDBRANCH   8   9
ENDBRANCH   2   8
ENDBRANCH   1   5
BRANCH   1  12
ATOM     12  C   UNL     1      47.364   7.152  13.861  0.00  0.00    +0.000 C 
BRANCH  12  13
ATOM     13  C   UNL     1      46.533   6.300  12.924  0.00  0.00    +0.000 A 
ATOM     14  C   UNL     1      45.840   5.180  13.409  0.00  0.00    +0.000 A 
ATOM     15  C   UNL     1      45.031   4.407  12.568  0.00  0.00    +0.000 A 
ATOM     16  C   UNL     1      44.916   4.739  11.213  0.00  0.00    +0.000 A 
ATOM     17  C   UNL     1      45.610   5.850  10.718  0.00  0.00    +0.000 A 
ATOM     18  C   UNL     1      46.415   6.621  11.561  0.00  0.00    +0.000 A 
BRANCH  16  19
ATOM     19  C   UNL     1      44.029   4.001  10.271  0.00  0.00    +0.000 C 
ATOM     20  O   UNL     1      43.609   2.879  10.508  0.00  0.00    +0.000 OA
BRANCH  19  21
ATOM     21  O   UNL     1      43.695   4.682   9.157  0.00  0.00    +0.000 OA
ATOM     22  H   UNL     1      42.764   4.610   8.881  0.00  0.00    +0.000 HD
ENDBRANCH  19  21
ENDBRANCH  16  19
ENDBRANCH  12  13
ENDBRANCH   1  12
TORSDOF 7
ENDMDL
