MODEL 1
REMARK VINA RESULT:    -7.579      0.000      0.000
REMARK INTER + INTRA:         -10.920
REMARK INTER:                 -10.459
REMARK INTRA:                  -0.461
REMARK UNBOUND:                -0.461
REMARK  Name = 
REMARK  7 active torsions:
REMARK  status: ('A' for Active; 'I' for Inactive)
REMARK    1  A    between atoms: N_1  and  C_2
REMARK    2  A    between atoms: C_2  and  C_3
REMARK    3  A    between atoms: C_6  and  C_7
REMARK    4  A    between atoms: C_12  and  S_13
REMARK    5  A    between atoms: S_13  and  C_14
REMARK    6  A    between atoms: C_14  and  C_15
REMARK    7  A    between atoms: C_15  and  C_16
REMARK                            x       y       z     vdW  Elec       q    Type
REMARK                         _______ _______ _______ _____ _____    ______ ____
ROOT
ATOM      1  C   UNL     1      45.771   4.829  12.563  0.00  0.00    +0.000 A 
ATOM      2  C   UNL     1      46.670   5.784  13.092  0.00  0.00    +0.000 A 
ATOM      3  C   UNL     1      46.513   7.145  12.852  0.00  0.00    +0.000 A 
ATOM      4  C   UNL     1      45.450   7.597  12.069  0.00  0.00    +0.000 A 
ATOM      5  C   UNL     1      44.553   6.651  11.533  0.00  0.00    +0.000 A 
ATOM      6  C   UNL     1      44.704   5.268  11.754  0.00  0.00    +0.000 A 
ENDROOT
BRANCH   4   7
ATOM      7  C   UNL     1      45.262   9.072  11.815  0.00  0.00    +0.000 C 
ATOM      8  F   UNL     1      44.657   9.727  12.846  0.00  0.00    +0.000 F 
ATOM      9  F   UNL     1      46.442   9.719  11.608  0.00  0.00    +0.000 F 
ATOM     10  F   UNL     1      44.497   9.323  10.717  0.00  0.00    +0.000 F 
ENDBRANCH   4   7
BRANCH   1  11
ATOM     11  C   UNL     1      46.055   3.386  12.903  0.00  0.00    +0.000 C 
BRANCH  11  12
ATOM     12  N   UNL     1      47.119   3.283  13.899  0.00  0.00    +0.000 NA
ATOM     13  H   UNL     1      47.964   3.717  13.537  0.00  0.00    +0.000 HD
ATOM     14  H   UNL     1      47.348   2.304  14.062  0.00  0.00    +0.000 HD
ENDBRANCH  11  12
ENDBRANCH   1  11
BRANCH   6  15
ATOM     15  S   UNL     1      43.406   4.214  11.086  0.00  0.00    +0.000 S 
BRANCH  15  16
ATOM     16  C   UNL     1      44.362   3.046  10.049  0.00  0.00    +0.000 C 
BRANCH  16  17
ATOM     17  C   UNL     1      44.782   3.686   8.719  0.00  0.00    +0.000 C 
BRANCH  17  18
ATOM     18  C   UNL     1      45.870   2.875   8.049  0.00  0.00    +0.000 A 
ATOM     19  C   UNL     1      46.742   3.466   7.129  0.00  0.00    +0.000 A 
ATOM     20  C   UNL     1      47.680   2.668   6.489  0.00  0.00    +0.000 A 
ATOM     21  N   UNL     1      47.810   1.342   6.701  0.00  0.00    +0.000 NA
ATOM     22  C   UNL     1      46.964   0.791   7.598  0.00  0.00    +0.000 A 
ATOM     23  C   UNL     1      45.992   1.504   8.287  0.00  0.00    +0.000 A 
ENDBRANCH  17  18
ENDBRANCH  16  17
ENDBRANCH  15  16
ENDBRANCH   6  15
TORSDOF 7
ENDMDL
MODEL 2
REMARK VINA RESULT:    -7.339      1.867      2.419
REMARK INTER + INTRA:         -10.589
REMARK INTER:                  -9.927
REMARK INTRA:                  -0.662
REMARK UNBOUND:                -0.461
REMARK  Name = 
REMARK  7 active torsions:
REMARK  status: ('A' for Active; 'I' for Inactive)
REMARK    1  A    between atoms: N_1  and  C_2
REMARK    2  A    between atoms: C_2  and  C_3
REMARK    3  A    between atoms: C_6  and  C_7
REMARK    4  A    between atoms: C_12  and  S_13
REMARK    5  A    between atoms: S_13  and  C_14
REMARK    6  A    between atoms: C_14  and  C_15
REMARK    7  A    between atoms: C_15  and  C_16
REMARK                            x       y       z     vdW  Elec       q    Type
REMARK                         _______ _______ _______ _____ _____    ______ ____
ROOT
ATOM      1  C   UNL     1      44.845   4.589  12.855  0.00  0.00    +0.000 A 
ATOM      2  C   UNL     1      45.855   4.762  13.830  0.00  0.00    +0.000 A 
ATOM      3  C   UNL     1      46.943   5.601  13.611  0.00  0.00    +0.000 A 
ATOM      4  C   UNL     1      47.059   6.294  12.405  0.00  0.00    +0.000 A 
ATOM      5  C   UNL     1      46.059   6.121  11.426  0.00  0.00    +0.000 A 
ATOM      6  C   UNL     1      44.958   5.266  11.625  0.00  0.00    +0.000 A 
ENDROOT
BRANCH   4   7
ATOM      7  C   UNL     1      48.226   7.218  12.164  0.00  0.00    +0.000 C 
ATOM      8  F   UNL     1      48.019   8.485  12.621  0.00  0.00    +0.000 F 
ATOM      9  F   UNL     1      49.365   6.788  12.774  0.00  0.00    +0.000 F 
ATOM     10  F   UNL     1      48.531   7.346  10.843  0.00  0.00    +0.000 F 
ENDBRANCH   4   7
BRANCH   1  11
ATOM     11  C   UNL     1      43.719   3.652  13.222  0.00  0.00    +0.000 C 
BRANCH  11  12
ATOM     12  N   UNL     1      43.852   2.376  12.524  0.00  0.00    +0.000 NA
ATOM     13  H   UNL     1      44.047   2.548  11.540  0.00  0.00    +0.000 HD
ATOM     14  H   UNL     1      42.968   1.869  12.556  0.00  0.00    +0.000 HD
ENDBRANCH  11  12
ENDBRANCH   1  11
BRANCH   6  15
ATOM     15  S   UNL     1      43.723   5.250  10.315  0.00  0.00    +0.000 S 
BRANCH  15  16
ATOM     16  C   UNL     1      44.319   3.889   9.245  0.00  0.00    +0.000 C 
BRANCH  16  17
ATOM     17  C   UNL     1      45.455   4.352   8.323  0.00  0.00    +0.000 C 
BRANCH  17  18
ATOM     18  C   UNL     1      46.158   3.168   7.695  0.00  0.00    +0.000 A 
ATOM     19  C   UNL     1      46.094   1.900   8.283  0.00  0.00    +0.000 A 
ATOM     20  C   UNL     1      46.811   0.860   7.709  0.00  0.00    +0.000 A 
ATOM     21  N   UNL     1      47.573   0.992   6.604  0.00  0.00    +0.000 NA
ATOM     22  C   UNL     1      47.617   2.222   6.046  0.00  0.00    +0.000 A 
ATOM     23  C   UNL     1      46.938   3.324   6.547  0.00  0.00    +0.000 A 
ENDBRANCH  17  18
ENDBRANCH  16  17
ENDBRANCH  15  16
ENDBRANCH   6  15
TORSDOF 7
ENDMDL
MODEL 3
REMARK VINA RESULT:    -7.191      2.089      2.908
REMARK INTER + INTRA:         -10.385
REMARK INTER:                  -9.744
REMARK INTRA:                  -0.641
REMARK UNBOUND:                -0.461
REMARK  Name = 
REMARK  7 active torsions:
REMARK  status: ('A' for Active; 'I' for Inactive)
REMARK    1  A    between atoms: N_1  and  C_2
REMARK    2  A    between atoms: C_2  and  C_3
REMARK    3  A    between atoms: C_6  and  C_7
REMARK    4  A    between atoms: C_12  and  S_13
REMARK    5  A    between atoms: S_13  and  C_14
REMARK    6  A    between atoms: C_14  and  C_15
REMARK    7  A    between atoms: C_15  and  C_16
REMARK                            x       y       z     vdW  Elec       q    Type
REMARK                         _______ _______ _______ _____ _____    ______ ____
ROOT
ATOM      1  C   UNL     1      44.215   6.234  11.572  0.00  0.00    +0.000 A 
ATOM      2  C   UNL     1      44.592   7.593  11.670  0.00  0.00    +0.000 A 
ATOM      3  C   UNL     1      45.918   7.969  11.862  0.00  0.00    +0.000 A 
ATOM      4  C   UNL     1      46.912   6.995  11.965  0.00  0.00    +0.000 A 
ATOM      5  C   UNL     1      46.542   5.638  11.873  0.00  0.00    +0.000 A 
ATOM      6  C   UNL     1      45.205   5.238  11.693  0.00  0.00    +0.000 A 
ENDROOT
BRANCH   4   7
ATOM      7  C   UNL     1      48.354   7.393  12.157  0.00  0.00    +0.000 C 
ATOM      8  F   UNL     1      49.082   6.473  12.853  0.00  0.00    +0.000 F 
ATOM      9  F   UNL     1      49.009   7.565  10.976  0.00  0.00    +0.000 F 
ATOM     10  F   UNL     1      48.491   8.564  12.838  0.00  0.00    +0.000 F 
ENDBRANCH   4   7
BRANCH   1  11
ATOM     11  C   UNL     1      42.744   5.965  11.361  0.00  0.00    +0.000 C 
BRANCH  11  12
ATOM     12  N   UNL     1      42.119   5.483  12.591  0.00  0.00    +0.000 NA
ATOM     13  H   UNL     1      41.559   6.229  12.999  0.00  0.00    +0.000 HD
ATOM     14  H   UNL     1      42.836   5.255  13.278  0.00  0.00    +0.000 HD
ENDBRANCH  11  12
ENDBRANCH   1  11
BRANCH   6  15
ATOM     15  S   UNL     1      44.928   3.471  11.488  0.00  0.00    +0.000 S 
BRANCH  15  16
ATOM     16  C   UNL     1      44.320   3.378   9.763  0.00  0.00    +0.000 C 
BRANCH  16  17
ATOM     17  C   UNL     1      45.287   4.058   8.786  0.00  0.00    +0.000 C 
BRANCH  17  18
ATOM     18  C   UNL     1      46.064   3.030   7.991  0.00  0.00    +0.000 A 
ATOM     19  C   UNL     1      46.037   1.678   8.347  0.00  0.00    +0.000 A 
ATOM     20  C   UNL     1      46.819   0.782   7.631  0.00  0.00    +0.000 A 
ATOM     21  N   UNL     1      47.613   1.136   6.599  0.00  0.00    +0.000 NA
ATOM     22  C   UNL     1      47.621   2.445   6.266  0.00  0.00    +0.000 A 
ATOM     23  C   UNL     1      46.876   3.415   6.921  0.00  0.00    +0.000 A 
ENDBRANCH  17  18
ENDBRANCH  16  17
ENDBRANCH  15  16
ENDBRANCH   6  15
TORSDOF 7
ENDMDL
MODEL 4
REMARK VINA RESULT:    -7.017      3.779      6.896
REMARK INTER + INTRA:         -10.144
REMARK INTER:                  -9.577
REMARK INTRA:                  -0.567
REMARK UNBOUND:                -0.461
REMARK  Name = 
REMARK  7 active torsions:
REMARK  status: ('A' for Active; 'I' for Inactive)
REMARK    1  A    between atoms: N_1  and  C_2
REMARK    2  A    between atoms: C_2  and  C_3
REMARK    3  A    between atoms: C_6  and  C_7
REMARK    4  A    between atoms: C_12  and  S_13
REMARK    5  A    between atoms: S_13  and  C_14
REMARK    6  A    between atoms: C_14  and  C_15
REMARK    7  A    between atoms: C_15  and  C_16
REMARK                            x       y       z     vdW  Elec       q    Type
REMARK                         _______ _______ _______ _____ _____    ______ ____
ROOT
ATOM      1  C   UNL     1      44.327   3.275  10.315  0.00  0.00    +0.000 A 
ATOM      2  C   UNL     1      44.503   2.073   9.590  0.00  0.00    +0.000 A 
ATOM      3  C   UNL     1      45.294   2.022   8.447  0.00  0.00    +0.000 A 
ATOM      4  C   UNL     1      45.934   3.174   7.988  0.00  0.00    +0.000 A 
ATOM      5  C   UNL     1      45.757   4.377   8.702  0.00  0.00    +0.000 A 
ATOM      6  C   UNL     1      44.950   4.451   9.854  0.00  0.00    +0.000 A 
ENDROOT
BRANCH   4   7
ATOM      7  C   UNL     1      46.806   3.126   6.758  0.00  0.00    +0.000 C 
ATOM      8  F   UNL     1      48.112   2.845   7.030  0.00  0.00    +0.000 F 
ATOM      9  F   UNL     1      46.402   2.177   5.870  0.00  0.00    +0.000 F 
ATOM     10  F   UNL     1      46.816   4.303   6.074  0.00  0.00    +0.000 F 
ENDBRANCH   4   7
BRANCH   1  11
ATOM     11  C   UNL     1      43.445   3.190  11.538  0.00  0.00    +0.000 C 
BRANCH  11  12
ATOM     12  N   UNL     1      42.963   1.827  11.743  0.00  0.00    +0.000 NA
ATOM     13  H   UNL     1      42.127   1.677  11.182  0.00  0.00    +0.000 HD
ATOM     14  H   UNL     1      42.682   1.700  12.714  0.00  0.00    +0.000 HD
ENDBRANCH  11  12
ENDBRANCH   1  11
BRANCH   6  15
ATOM     15  S   UNL     1      44.925   6.039  10.702  0.00  0.00    +0.000 S 
BRANCH  15  16
ATOM     16  C   UNL     1      46.343   5.881  11.848  0.00  0.00    +0.000 C 
BRANCH  16  17
ATOM     17  C   UNL     1      45.944   5.166  13.146  0.00  0.00    +0.000 C 
BRANCH  17  18
ATOM     18  C   UNL     1      47.013   5.330  14.205  0.00  0.00    +0.000 A 
ATOM     19  C   UNL     1      47.110   4.432  15.272  0.00  0.00    +0.000 A 
ATOM     20  C   UNL     1      48.062   4.662  16.255  0.00  0.00    +0.000 A 
ATOM     21  N   UNL     1      48.913   5.709  16.247  0.00  0.00    +0.000 NA
ATOM     22  C   UNL     1      48.809   6.562  15.206  0.00  0.00    +0.000 A 
ATOM     23  C   UNL     1      47.889   6.418  14.176  0.00  0.00    +0.000 A 
ENDBRANCH  17  18
ENDBRANCH  16  17
ENDBRANCH  15  16
ENDBRANCH   6  15
TORSDOF 7
ENDMDL
MODEL 5
REMARK VINA RESULT:    -6.989      3.208      3.964
REMARK INTER + INTRA:         -10.106
REMARK INTER:                  -9.527
REMARK INTRA:                  -0.579
REMARK UNBOUND:                -0.461
REMARK  Name = 
REMARK  7 active torsions:
REMARK  status: ('A' for Active; 'I' for Inactive)
REMARK    1  A    between atoms: N_1  and  C_2
REMARK    2  A    between atoms: C_2  and  C_3
REMARK    3  A    between atoms: C_6  and  C_7
REMARK    4  A    between atoms: C_12  and  S_13
REMARK    5  A    between atoms: S_13  and  C_14
REMARK    6  A    between atoms: C_14  and  C_15
REMARK    7  A    between atoms: C_15  and  C_16
REMARK                            x       y       z     vdW  Elec       q    Type
REMARK                         _______ _______ _______ _____ _____    ______ ____
ROOT
ATOM      1  C   UNL     1      45.583   6.105  12.125  0.00  0.00    +0.000 A 
ATOM      2  C   UNL     1      46.659   6.679  12.843  0.00  0.00    +0.000 A 
ATOM      3  C   UNL     1      47.221   6.042  13.945  0.00  0.00    +0.000 A 
ATOM      4  C   UNL     1      46.723   4.810  14.368  0.00  0.00    +0.000 A 
ATOM      5  C   UNL     1      45.647   4.235  13.662  0.00  0.00    +0.000 A 
ATOM      6  C   UNL     1      45.057   4.870  12.552  0.00  0.00    +0.000 A 
ENDROOT
BRANCH   4   7
ATOM      7  C   UNL     1      47.335   4.104  15.553  0.00  0.00    +0.000 C 
ATOM      8  F   UNL     1      46.472   3.947  16.596  0.00  0.00    +0.000 F 
ATOM      9  F   UNL     1      47.773   2.853  15.244  0.00  0.00    +0.000 F 
ATOM     10  F   UNL     1      48.411   4.766  16.060  0.00  0.00    +0.000 F 
ENDBRANCH   4   7
BRANCH   1  11
ATOM     11  C   UNL     1      45.070   6.899  10.949  0.00  0.00    +0.000 C 
BRANCH  11  12
ATOM     12  N   UNL     1      43.767   7.490  11.244  0.00  0.00    +0.000 NA
ATOM     13  H   UNL     1      43.724   8.428  10.851  0.00  0.00    +0.000 HD
ATOM     14  H   UNL     1      43.655   7.597  12.251  0.00  0.00    +0.000 HD
ENDBRANCH  11  12
ENDBRANCH   1  11
BRANCH   6  15
ATOM     15  S   UNL     1      43.767   3.944  11.704  0.00  0.00    +0.000 S 
BRANCH  15  16
ATOM     16  C   UNL     1      44.741   2.883  10.573  0.00  0.00    +0.000 C 
BRANCH  16  17
ATOM     17  C   UNL     1      44.716   3.419   9.135  0.00  0.00    +0.000 C 
BRANCH  17  18
ATOM     18  C   UNL     1      45.763   2.733   8.284  0.00  0.00    +0.000 A 
ATOM     19  C   UNL     1      45.959   1.350   8.364  0.00  0.00    +0.000 A 
ATOM     20  C   UNL     1      46.976   0.775   7.616  0.00  0.00    +0.000 A 
ATOM     21  N   UNL     1      47.797   1.471   6.802  0.00  0.00    +0.000 NA
ATOM     22  C   UNL     1      47.588   2.804   6.733  0.00  0.00    +0.000 A 
ATOM     23  C   UNL     1      46.599   3.470   7.443  0.00  0.00    +0.000 A 
ENDBRANCH  17  18
ENDBRANCH  16  17
ENDBRANCH  15  16
ENDBRANCH   6  15
TORSDOF 7
ENDMDL
MODEL 6
REMARK VINA RESULT:    -6.178      1.933      2.830
REMARK INTER + INTRA:          -8.987
REMARK INTER:                  -8.365
REMARK INTRA:                  -0.621
REMARK UNBOUND:                -0.461
REMARK  Name = 
REMARK  7 active torsions:
REMARK  status: ('A' for Active; 'I' for Inactive)
REMARK    1  A    between atoms: N_1  and  C_2
REMARK    2  A    between atoms: C_2  and  C_3
REMARK    3  A    between atoms: C_6  and  C_7
REMARK    4  A    between atoms: C_12  and  S_13
REMARK    5  A    between atoms: S_13  and  C_14
REMARK    6  A    between atoms: C_14  and  C_15
REMARK    7  A    between atoms: C_15  and  C_16
REMARK                            x       y       z     vdW  Elec       q    Type
REMARK                         _______ _______ _______ _____ _____    ______ ____
ROOT
ATOM      1  C   UNL     1      47.423   5.276  14.651  0.00  0.00    +0.000 A 
ATOM      2  C   UNL     1      48.400   6.228  15.022  0.00  0.00    +0.000 A 
ATOM      3  C   UNL     1      48.780   7.255  14.164  0.00  0.00    +0.000 A 
ATOM      4  C   UNL     1      48.195   7.362  12.901  0.00  0.00    +0.000 A 
ATOM      5  C   UNL     1      47.225   6.412  12.522  0.00  0.00    +0.000 A 
ATOM      6  C   UNL     1      46.837   5.358  13.372  0.00  0.00    +0.000 A 
ENDROOT
BRANCH   4   7
ATOM      7  C   UNL     1      48.589   8.480  11.969  0.00  0.00    +0.000 C 
ATOM      8  F   UNL     1      49.517   9.327  12.499  0.00  0.00    +0.000 F 
ATOM      9  F   UNL     1      49.130   8.023  10.806  0.00  0.00    +0.000 F 
ATOM     10  F   UNL     1      47.534   9.263  11.612  0.00  0.00    +0.000 F 
ENDBRANCH   4   7
BRANCH   1  11
ATOM     11  C   UNL     1      47.102   4.216  15.678  0.00  0.00    +0.000 C 
BRANCH  11  12
ATOM     12  N   UNL     1      47.786   2.963  15.368  0.00  0.00    +0.000 NA
ATOM     13  H   UNL     1      47.097   2.226  15.237  0.00  0.00    +0.000 HD
ATOM     14  H   UNL     1      48.363   2.678  16.158  0.00  0.00    +0.000 HD
ENDBRANCH  11  12
ENDBRANCH   1  11
BRANCH   6  15
ATOM     15  S   UNL     1      45.508   4.304  12.770  0.00  0.00    +0.000 S 
BRANCH  15  16
ATOM     16  C   UNL     1      45.031   5.144  11.214  0.00  0.00    +0.000 C 
BRANCH  16  17
ATOM     17  C   UNL     1      44.139   4.251  10.341  0.00  0.00    +0.000 C 
BRANCH  17  18
ATOM     18  C   UNL     1      44.955   3.545   9.280  0.00  0.00    +0.000 A 
ATOM     19  C   UNL     1      45.126   2.157   9.310  0.00  0.00    +0.000 A 
ATOM     20  C   UNL     1      45.939   1.562   8.356  0.00  0.00    +0.000 A 
ATOM     21  N   UNL     1      46.582   2.245   7.385  0.00  0.00    +0.000 NA
ATOM     22  C   UNL     1      46.399   3.583   7.367  0.00  0.00    +0.000 A 
ATOM     23  C   UNL     1      45.608   4.268   8.278  0.00  0.00    +0.000 A 
ENDBRANCH  17  18
ENDBRANCH  16  17
ENDBRANCH  15  16
ENDBRANCH   6  15
TORSDOF 7
ENDMDL
MODEL 7
REMARK VINA RESULT:    -5.824      3.462      4.231
REMARK INTER + INTRA:          -8.499
REMARK INTER:                  -7.931
REMARK INTRA:                  -0.568
REMARK UNBOUND:                -0.461
REMARK  Name = 
REMARK  7 active torsions:
REMARK  status: ('A' for Active; 'I' for Inactive)
REMARK    1  A    between atoms: N_1  and  C_2
REMARK    2  A    between atoms: C_2  and  C_3
REMARK    3  A    between atoms: C_6  and  C_7
REMARK    4  A    between atoms: C_12  and  S_13
REMARK    5  A    between atoms: S_13  and  C_14
REMARK    6  A    between atoms: C_14  and  C_15
REMARK    7  A    between atoms: C_15  and  C_16
REMARK                            x       y       z     vdW  Elec       q    Type
REMARK                         _______ _______ _______ _____ _____    ______ ____
ROOT
ATOM      1  C   UNL     1      46.976   7.583  12.989  0.00  0.00    +0.000 A 
ATOM      2  C   UNL     1      48.043   7.474  13.910  0.00  0.00    +0.000 A 
ATOM      3  C   UNL     1      48.201   6.347  14.711  0.00  0.00    +0.000 A 
ATOM      4  C   UNL     1      47.292   5.292  14.619  0.00  0.00    +0.000 A 
ATOM      5  C   UNL     1      46.222   5.398  13.707  0.00  0.00    +0.000 A 
ATOM      6  C   UNL     1      46.039   6.535  12.898  0.00  0.00    +0.000 A 
ENDROOT
BRANCH   4   7
ATOM      7  C   UNL     1      47.463   4.060  15.472  0.00  0.00    +0.000 C 
ATOM      8  F   UNL     1      47.500   2.903  14.752  0.00  0.00    +0.000 F 
ATOM      9  F   UNL     1      48.617   4.082  16.193  0.00  0.00    +0.000 F 
ATOM     10  F   UNL     1      46.457   3.902  16.375  0.00  0.00    +0.000 F 
ENDBRANCH   4   7
BRANCH   1  11
ATOM     11  C   UNL     1      46.923   8.858  12.180  0.00  0.00    +0.000 C 
BRANCH  11  12
ATOM     12  N   UNL     1      45.987   9.812  12.767  0.00  0.00    +0.000 NA
ATOM     13  H   UNL     1      46.182  10.743  12.405  0.00  0.00    +0.000 HD
ATOM     14  H   UNL     1      46.128   9.862  13.775  0.00  0.00    +0.000 HD
ENDBRANCH  11  12
ENDBRANCH   1  11
BRANCH   6  15
ATOM     15  S   UNL     1      44.684   6.454  11.715  0.00  0.00    +0.000 S 
BRANCH  15  16
ATOM     16  C   UNL     1      45.465   5.591  10.301  0.00  0.00    +0.000 C 
BRANCH  16  17
ATOM     17  C   UNL     1      44.611   4.410   9.819  0.00  0.00    +0.000 C 
BRANCH  17  18
ATOM     18  C   UNL     1      45.416   3.488   8.929  0.00  0.00    +0.000 A 
ATOM     19  C   UNL     1      46.202   3.998   7.892  0.00  0.00    +0.000 A 
ATOM     20  C   UNL     1      46.869   3.110   7.059  0.00  0.00    +0.000 A 
ATOM     21  N   UNL     1      46.809   1.769   7.189  0.00  0.00    +0.000 NA
ATOM     22  C   UNL     1      46.050   1.295   8.201  0.00  0.00    +0.000 A 
ATOM     23  C   UNL     1      45.346   2.101   9.084  0.00  0.00    +0.000 A 
ENDBRANCH  17  18
ENDBRANCH  16  17
ENDBRANCH  15  16
ENDBRANCH   6  15
TORSDOF 7
ENDMDL
MODEL 8
REMARK VINA RESULT:    -5.575      4.764      6.290
REMARK INTER + INTRA:          -8.155
REMARK INTER:                  -7.510
REMARK INTRA:                  -0.645
REMARK UNBOUND:                -0.461
REMARK  Name = 
REMARK  7 active torsions:
REMARK  status: ('A' for Active; 'I' for Inactive)
REMARK    1  A    between atoms: N_1  and  C_2
REMARK    2  A    between atoms: C_2  and  C_3
REMARK    3  A    between atoms: C_6  and  C_7
REMARK    4  A    between atoms: C_12  and  S_13
REMARK    5  A    between atoms: S_13  and  C_14
REMARK    6  A    between atoms: C_14  and  C_15
REMARK    7  A    between atoms: C_15  and  C_16
REMARK                            x       y       z     vdW  Elec       q    Type
REMARK                         _______ _______ _______ _____ _____    ______ ____
ROOT
ATOM      1  C   UNL     1      48.553   7.085  15.660  0.00  0.00    +0.000 A 
ATOM      2  C   UNL     1      48.828   6.824  17.023  0.00  0.00    +0.000 A 
ATOM      3  C   UNL     1      48.660   5.556  17.569  0.00  0.00    +0.000 A 
ATOM      4  C   UNL     1      48.207   4.506  16.770  0.00  0.00    +0.000 A 
ATOM      5  C   UNL     1      47.925   4.761  15.412  0.00  0.00    +0.000 A 
ATOM      6  C   UNL     1      48.076   6.040  14.845  0.00  0.00    +0.000 A 
ENDROOT
BRANCH   4   7
ATOM      7  C   UNL     1      48.036   3.123  17.349  0.00  0.00    +0.000 C 
ATOM      8  F   UNL     1      46.732   2.771  17.537  0.00  0.00    +0.000 F 
ATOM      9  F   UNL     1      48.568   2.156  16.553  0.00  0.00    +0.000 F 
ATOM     10  F   UNL     1      48.635   2.984  18.563  0.00  0.00    +0.000 F 
ENDBRANCH   4   7
BRANCH   1  11
ATOM     11  C   UNL     1      48.780   8.504  15.196  0.00  0.00    +0.000 C 
BRANCH  11  12
ATOM     12  N   UNL     1      47.557   9.295  15.311  0.00  0.00    +0.000 NA
ATOM     13  H   UNL     1      47.506   9.952  14.535  0.00  0.00    +0.000 HD
ATOM     14  H   UNL     1      47.585   9.857  16.160  0.00  0.00    +0.000 HD
ENDBRANCH  11  12
ENDBRANCH   1  11
BRANCH   6  15
ATOM     15  S   UNL     1      47.776   6.161  13.074  0.00  0.00    +0.000 S 
BRANCH  15  16
ATOM     16  C   UNL     1      46.021   6.682  13.020  0.00  0.00    +0.000 C 
BRANCH  16  17
ATOM     17  C   UNL     1      45.436   6.552  11.607  0.00  0.00    +0.000 C 
BRANCH  17  18
ATOM     18  C   UNL     1      44.786   5.199  11.414  0.00  0.00    +0.000 A 
ATOM     19  C   UNL     1      44.842   4.546  10.178  0.00  0.00    +0.000 A 
ATOM     20  C   UNL     1      44.173   3.339  10.029  0.00  0.00    +0.000 A 
ATOM     21  N   UNL     1      43.464   2.746  11.012  0.00  0.00    +0.000 NA
ATOM     22  C   UNL     1      43.426   3.389  12.200  0.00  0.00    +0.000 A 
ATOM     23  C   UNL     1      44.061   4.599  12.446  0.00  0.00    +0.000 A 
ENDBRANCH  17  18
ENDBRANCH  16  17
ENDBRANCH  15  16
ENDBRANCH   6  15
TORSDOF 7
ENDMDL
MODEL 9
REMARK VINA RESULT:    -5.453      3.717      6.351
REMARK INTER + INTRA:          -7.986
REMARK INTER:                  -6.870
REMARK INTRA:                  -1.116
REMARK UNBOUND:                -0.461
REMARK  Name = 
REMARK  7 active torsions:
REMARK  status: ('A' for Active; 'I' for Inactive)
REMARK    1  A    between atoms: N_1  and  C_2
REMARK    2  A    between atoms: C_2  and  C_3
REMARK    3  A    between atoms: C_6  and  C_7
REMARK    4  A    between atoms: C_12  and  S_13
REMARK    5  A    between atoms: S_13  and  C_14
REMARK    6  A    between atoms: C_14  and  C_15
REMARK    7  A    between atoms: C_15  and  C_16
REMARK                            x       y       z     vdW  Elec       q    Type
REMARK                         _______ _______ _______ _____ _____    ______ ____
ROOT
ATOM      1  C   UNL     1      44.834   4.587  11.216  0.00  0.00    +0.000 A 
ATOM      2  C   UNL     1      45.233   3.347  11.765  0.00  0.00    +0.000 A 
ATOM      3  C   UNL     1      45.959   3.274  12.950  0.00  0.00    +0.000 A 
ATOM      4  C   UNL     1      46.312   4.443  13.624  0.00  0.00    +0.000 A 
ATOM      5  C   UNL     1      45.923   5.684  13.079  0.00  0.00    +0.000 A 
ATOM      6  C   UNL     1      45.200   5.777  11.875  0.00  0.00    +0.000 A 
ENDROOT
BRANCH   4   7
ATOM      7  C   UNL     1      47.085   4.375  14.917  0.00  0.00    +0.000 C 
ATOM      8  F   UNL     1      47.989   5.386  15.063  0.00  0.00    +0.000 F 
ATOM      9  F   UNL     1      46.278   4.443  16.011  0.00  0.00    +0.000 F 
ATOM     10  F   UNL     1      47.797   3.222  15.045  0.00  0.00    +0.000 F 
ENDBRANCH   4   7
BRANCH   1  11
ATOM     11  C   UNL     1      44.049   4.523   9.927  0.00  0.00    +0.000 C 
BRANCH  11  12
ATOM     12  N   UNL     1      44.914   4.766   8.775  0.00  0.00    +0.000 NA
ATOM     13  H   UNL     1      44.981   3.916   8.219  0.00  0.00    +0.000 HD
ATOM     14  H   UNL     1      45.860   4.977   9.089  0.00  0.00    +0.000 HD
ENDBRANCH  11  12
ENDBRANCH   1  11
BRANCH   6  15
ATOM     15  S   UNL     1      44.692   7.433  11.383  0.00  0.00    +0.000 S 
BRANCH  15  16
ATOM     16  C   UNL     1      45.324   8.452  12.768  0.00  0.00    +0.000 C 
BRANCH  16  17
ATOM     17  C   UNL     1      46.479   9.358  12.321  0.00  0.00    +0.000 C 
BRANCH  17  18
ATOM     18  C   UNL     1      47.809   8.806  12.784  0.00  0.00    +0.000 A 
ATOM     19  C   UNL     1      48.665   8.152  11.892  0.00  0.00    +0.000 A 
ATOM     20  C   UNL     1      49.844   7.603  12.377  0.00  0.00    +0.000 A 
ATOM     21  N   UNL     1      50.224   7.662  13.670  0.00  0.00    +0.000 NA
ATOM     22  C   UNL     1      49.389   8.303  14.515  0.00  0.00    +0.000 A 
ATOM     23  C   UNL     1      48.189   8.883  14.126  0.00  0.00    +0.000 A 
ENDBRANCH  17  18
ENDBRANCH  16  17
ENDBRANCH  15  16
ENDBRANCH   6  15
TORSDOF 7
ENDMDL
