MODEL 1
REMARK VINA RESULT:    -8.761      0.000      0.000
REMARK INTER + INTRA:         -12.858
REMARK INTER:                 -11.834
REMARK INTRA:                  -1.024
REMARK UNBOUND:                -1.024
REMARK  Name = 
REMARK  8 active torsions:
REMARK  status: ('A' for Active; 'I' for Inactive)
REMARK    1  A    between atoms: C_1  and  C_2
REMARK    2  A    between atoms: C_2  and  C_3
REMARK    3  A    between atoms: C_2  and  C_4
REMARK    4  A    between atoms: C_2  and  C_22
REMARK    5  A    between atoms: C_5  and  C_6
REMARK    6  A    between atoms: C_10  and  C_11
REMARK    7  A    between atoms: C_15  and  C_16
REMARK    8  A    between atoms: C_25  and  C_26
REMARK                            x       y       z     vdW  Elec       q    Type
REMARK                         _______ _______ _______ _____ _____    ______ ____
ROOT
ATOM      1  C   UNL     1      45.295   4.578  12.044  0.00  0.00    +0.000 C 
ATOM      2  C   UNL     1      46.056   5.684  11.921  0.00  0.00    +0.000 C 
ENDROOT
BRANCH   2   3
ATOM      3  C   UNL     1      46.971   6.172  12.961  0.00  0.00    +0.000 A 
ATOM      4  C   UNL     1      47.596   7.404  12.820  0.00  0.00    +0.000 A 
ATOM      5  C   UNL     1      48.457   7.833  13.821  0.00  0.00    +0.000 A 
ATOM      6  C   UNL     1      48.651   7.026  14.941  0.00  0.00    +0.000 A 
ATOM      7  C   UNL     1      47.965   5.817  15.038  0.00  0.00    +0.000 A 
ATOM      8  N   UNL     1      47.147   5.386  14.047  0.00  0.00    +0.000 NA
BRANCH   7   9
ATOM      9  C   UNL     1      48.028   4.945  16.230  0.00  0.00    +0.000 A 
ATOM     10  C   UNL     1      47.402   3.688  16.259  0.00  0.00    +0.000 A 
ATOM     11  C   UNL     1      47.503   2.847  17.369  0.00  0.00    +0.000 A 
ATOM     12  C   UNL     1      48.255   3.237  18.473  0.00  0.00    +0.000 A 
ATOM     13  C   UNL     1      48.914   4.472  18.480  0.00  0.00    +0.000 A 
ATOM     14  C   UNL     1      48.778   5.319  17.364  0.00  0.00    +0.000 A 
BRANCH  13  15
ATOM     15  C   UNL     1      49.790   4.882  19.637  0.00  0.00    +0.000 C 
ATOM     16  F   UNL     1      49.341   4.431  20.843  0.00  0.00    +0.000 F 
ATOM     17  F   UNL     1      51.063   4.414  19.520  0.00  0.00    +0.000 F 
ATOM     18  F   UNL     1      49.897   6.235  19.764  0.00  0.00    +0.000 F 
ENDBRANCH  13  15
ENDBRANCH   7   9
ENDBRANCH   2   3
BRANCH   1  20
ATOM     19  C   UNL     1      43.470   2.943  11.723  0.00  0.00    +0.000 C 
ATOM     20  C   UNL     1      44.298   4.040  11.016  0.00  0.00    +0.000 C 
ATOM     21  C   UNL     1      43.314   5.178  10.652  0.00  0.00    +0.000 C 
BRANCH  20  22
ATOM     22  C   UNL     1      44.996   3.539   9.742  0.00  0.00    +0.000 A 
ATOM     23  C   UNL     1      45.252   2.181   9.493  0.00  0.00    +0.000 A 
ATOM     24  C   UNL     1      45.959   1.789   8.360  0.00  0.00    +0.000 A 
ATOM     25  C   UNL     1      46.400   2.771   7.492  0.00  0.00    +0.000 A 
ATOM     26  N   UNL     1      46.169   4.099   7.670  0.00  0.00    +0.000 NA
ATOM     27  C   UNL     1      45.474   4.442   8.783  0.00  0.00    +0.000 A 
BRANCH  25  28
ATOM     28  C   UNL     1      47.204   2.379   6.288  0.00  0.00    +0.000 C 
ATOM     29  N   UNL     1      47.146   3.255   5.239  0.00  0.00    +0.000 N 
ATOM     30  O   UNL     1      47.869   1.355   6.243  0.00  0.00    +0.000 OA
ATOM     31  H   UNL     1      46.572   4.086   5.316  0.00  0.00    +0.000 HD
ATOM     32  H   UNL     1      47.649   3.050   4.389  0.00  0.00    +0.000 HD
ENDBRANCH  25  28
ENDBRANCH  20  22
ENDBRANCH   1  20
TORSDOF 6
ENDMDL
MODEL 2
REMARK VINA RESULT:    -8.502      1.580      2.199
REMARK INTER + INTRA:         -12.509
REMARK INTER:                 -11.377
REMARK INTRA:                  -1.132
REMARK UNBOUND:                -1.024
REMARK  Name = 
REMARK  8 active torsions:
REMARK  status: ('A' for Active; 'I' for Inactive)
REMARK    1  A    between atoms: C_1  and  C_2
REMARK    2  A    between atoms: C_2  and  C_3
REMARK    3  A    between atoms: C_2  and  C_4
REMARK    4  A    between atoms: C_2  and  C_22
REMARK    5  A    between atoms: C_5  and  C_6
REMARK    6  A    between atoms: C_10  and  C_11
REMARK    7  A    between atoms: C_15  and  C_16
REMARK    8  A    between atoms: C_25  and  C_26
REMARK                            x       y       z     vdW  Elec       q    Type
REMARK                         _______ _______ _______ _____ _____    ______ ____
ROOT
ATOM      1  C   UNL     1      45.500   5.233  11.793  0.00  0.00    +0.000 C 
ATOM      2  C   UNL     1      45.704   6.558  11.659  0.00  0.00    +0.000 C 
ENDROOT
BRANCH   2   3
ATOM      3  C   UNL     1      46.650   7.331  12.475  0.00  0.00    +0.000 A 
ATOM      4  C   UNL     1      46.910   8.661  12.173  0.00  0.00    +0.000 A 
ATOM      5  C   UNL     1      47.812   9.361  12.963  0.00  0.00    +0.000 A 
ATOM      6  C   UNL     1      48.412   8.714  14.042  0.00  0.00    +0.000 A 
ATOM      7  C   UNL     1      48.080   7.388  14.313  0.00  0.00    +0.000 A 
ATOM      8  N   UNL     1      47.221   6.698  13.524  0.00  0.00    +0.000 NA
BRANCH   7   9
ATOM      9  C   UNL     1      48.585   6.653  15.492  0.00  0.00    +0.000 A 
ATOM     10  C   UNL     1      49.427   7.262  16.437  0.00  0.00    +0.000 A 
ATOM     11  C   UNL     1      49.864   6.579  17.574  0.00  0.00    +0.000 A 
ATOM     12  C   UNL     1      49.448   5.271  17.804  0.00  0.00    +0.000 A 
ATOM     13  C   UNL     1      48.591   4.631  16.901  0.00  0.00    +0.000 A 
ATOM     14  C   UNL     1      48.184   5.325  15.746  0.00  0.00    +0.000 A 
BRANCH  13  15
ATOM     15  C   UNL     1      48.074   3.240  17.168  0.00  0.00    +0.000 C 
ATOM     16  F   UNL     1      48.305   2.370  16.144  0.00  0.00    +0.000 F 
ATOM     17  F   UNL     1      48.642   2.674  18.268  0.00  0.00    +0.000 F 
ATOM     18  F   UNL     1      46.728   3.210  17.384  0.00  0.00    +0.000 F 
ENDBRANCH  13  15
ENDBRANCH   7   9
ENDBRANCH   2   3
BRANCH   1  20
ATOM     19  C   UNL     1      43.958   3.310  11.975  0.00  0.00    +0.000 C 
ATOM     20  C   UNL     1      44.505   4.381  11.004  0.00  0.00    +0.000 C 
ATOM     21  C   UNL     1      43.307   5.275  10.604  0.00  0.00    +0.000 C 
BRANCH  20  22
ATOM     22  C   UNL     1      45.138   3.777   9.739  0.00  0.00    +0.000 A 
ATOM     23  C   UNL     1      45.235   2.394   9.517  0.00  0.00    +0.000 A 
ATOM     24  C   UNL     1      45.889   1.901   8.392  0.00  0.00    +0.000 A 
ATOM     25  C   UNL     1      46.439   2.809   7.504  0.00  0.00    +0.000 A 
ATOM     26  N   UNL     1      46.363   4.158   7.656  0.00  0.00    +0.000 NA
ATOM     27  C   UNL     1      45.715   4.600   8.763  0.00  0.00    +0.000 A 
BRANCH  25  28
ATOM     28  C   UNL     1      47.190   2.303   6.309  0.00  0.00    +0.000 C 
ATOM     29  N   UNL     1      47.123   3.100   5.199  0.00  0.00    +0.000 N 
ATOM     30  O   UNL     1      47.822   1.258   6.320  0.00  0.00    +0.000 OA
ATOM     31  H   UNL     1      46.576   3.953   5.232  0.00  0.00    +0.000 HD
ATOM     32  H   UNL     1      47.590   2.817   4.352  0.00  0.00    +0.000 HD
ENDBRANCH  25  28
ENDBRANCH  20  22
ENDBRANCH   1  20
TORSDOF 6
ENDMDL
MODEL 3
REMARK VINA RESULT:    -7.885      5.317      9.028
REMARK INTER + INTRA:         -11.675
REMARK INTER:                 -10.584
REMARK INTRA:                  -1.091
REMARK UNBOUND:                -1.024
REMARK  Name = 
REMARK  8 active torsions:
REMARK  status: ('A' for Active; 'I' for Inactive)
REMARK    1  A    between atoms: C_1  and  C_2
REMARK    2  A    between atoms: C_2  and  C_3
REMARK    3  A    between atoms: C_2  and  C_4
REMARK    4  A    between atoms: C_2  and  C_22
REMARK    5  A    between atoms: C_5  and  C_6
REMARK    6  A    between atoms: C_10  and  C_11
REMARK    7  A    between atoms: C_15  and  C_16
REMARK    8  A    between atoms: C_25  and  C_26
REMARK                            x       y       z     vdW  Elec       q    Type
REMARK                         _______ _______ _______ _____ _____    ______ ____
ROOT
ATOM      1  C   UNL     1      48.334   5.513  16.083  0.00  0.00    +0.000 C 
ATOM      2  C   UNL     1      48.549   6.567  15.272  0.00  0.00    +0.000 C 
ENDROOT
BRANCH   2   3
ATOM      3  C   UNL     1      47.944   6.718  13.942  0.00  0.00    +0.000 A 
ATOM      4  C   UNL     1      48.366   7.733  13.093  0.00  0.00    +0.000 A 
ATOM      5  C   UNL     1      47.770   7.849  11.844  0.00  0.00    +0.000 A 
ATOM      6  C   UNL     1      46.784   6.935  11.475  0.00  0.00    +0.000 A 
ATOM      7  C   UNL     1      46.432   5.917  12.360  0.00  0.00    +0.000 A 
ATOM      8  N   UNL     1      46.994   5.822  13.590  0.00  0.00    +0.000 NA
BRANCH   7   9
ATOM      9  C   UNL     1      45.474   4.844  12.019  0.00  0.00    +0.000 A 
ATOM     10  C   UNL     1      44.355   4.570  12.823  0.00  0.00    +0.000 A 
ATOM     11  C   UNL     1      43.427   3.588  12.472  0.00  0.00    +0.000 A 
ATOM     12  C   UNL     1      43.586   2.868  11.292  0.00  0.00    +0.000 A 
ATOM     13  C   UNL     1      44.674   3.122  10.449  0.00  0.00    +0.000 A 
ATOM     14  C   UNL     1      45.615   4.095  10.832  0.00  0.00    +0.000 A 
BRANCH  13  15
ATOM     15  C   UNL     1      44.826   2.401   9.133  0.00  0.00    +0.000 C 
ATOM     16  F   UNL     1      46.123   2.157   8.795  0.00  0.00    +0.000 F 
ATOM     17  F   UNL     1      44.208   1.188   9.127  0.00  0.00    +0.000 F 
ATOM     18  F   UNL     1      44.295   3.098   8.087  0.00  0.00    +0.000 F 
ENDBRANCH  13  15
ENDBRANCH   7   9
ENDBRANCH   2   3
BRANCH   1  20
ATOM     19  C   UNL     1      49.603   6.615  17.894  0.00  0.00    +0.000 C 
ATOM     20  C   UNL     1      48.962   5.279  17.458  0.00  0.00    +0.000 C 
ATOM     21  C   UNL     1      47.827   4.977  18.466  0.00  0.00    +0.000 C 
BRANCH  20  22
ATOM     22  C   UNL     1      49.960   4.110  17.445  0.00  0.00    +0.000 A 
ATOM     23  C   UNL     1      49.590   2.789  17.146  0.00  0.00    +0.000 A 
ATOM     24  C   UNL     1      50.518   1.756  17.228  0.00  0.00    +0.000 A 
ATOM     25  C   UNL     1      51.811   2.067  17.611  0.00  0.00    +0.000 A 
ATOM     26  N   UNL     1      52.234   3.327  17.896  0.00  0.00    +0.000 NA
ATOM     27  C   UNL     1      51.301   4.307  17.803  0.00  0.00    +0.000 A 
BRANCH  25  28
ATOM     28  C   UNL     1      52.819   0.966  17.752  0.00  0.00    +0.000 C 
ATOM     29  N   UNL     1      52.379  -0.144  18.421  0.00  0.00    +0.000 N 
ATOM     30  O   UNL     1      53.951   1.045  17.300  0.00  0.00    +0.000 OA
ATOM     31  H   UNL     1      51.436  -0.161  18.790  0.00  0.00    +0.000 HD
ATOM     32  H   UNL     1      53.007  -0.919  18.568  0.00  0.00    +0.000 HD
ENDBRANCH  25  28
ENDBRANCH  20  22
ENDBRANCH   1  20
TORSDOF 6
ENDMDL
MODEL 4
REMARK VINA RESULT:    -7.743      4.326      5.980
REMARK INTER + INTRA:         -11.484
REMARK INTER:                 -10.202
REMARK INTRA:                  -1.282
REMARK UNBOUND:                -1.024
REMARK  Name = 
REMARK  8 active torsions:
REMARK  status: ('A' for Active; 'I' for Inactive)
REMARK    1  A    between atoms: C_1  and  C_2
REMARK    2  A    between atoms: C_2  and  C_3
REMARK    3  A    between atoms: C_2  and  C_4
REMARK    4  A    between atoms: C_2  and  C_22
REMARK    5  A    between atoms: C_5  and  C_6
REMARK    6  A    between atoms: C_10  and  C_11
REMARK    7  A    between atoms: C_15  and  C_16
REMARK    8  A    between atoms: C_25  and  C_26
REMARK                            x       y       z     vdW  Elec       q    Type
REMARK                         _______ _______ _______ _____ _____    ______ ____
ROOT
ATOM      1  C   UNL     1      45.712   5.777  11.747  0.00  0.00    +0.000 C 
ATOM      2  C   UNL     1      46.684   5.403  12.603  0.00  0.00    +0.000 C 
ENDROOT
BRANCH   2   3
ATOM      3  C   UNL     1      47.707   6.313  13.134  0.00  0.00    +0.000 A 
ATOM      4  C   UNL     1      47.801   6.540  14.500  0.00  0.00    +0.000 A 
ATOM      5  C   UNL     1      48.778   7.409  14.967  0.00  0.00    +0.000 A 
ATOM      6  C   UNL     1      49.644   8.009  14.055  0.00  0.00    +0.000 A 
ATOM      7  C   UNL     1      49.520   7.711  12.699  0.00  0.00    +0.000 A 
ATOM      8  N   UNL     1      48.548   6.885  12.242  0.00  0.00    +0.000 NA
BRANCH   7   9
ATOM      9  C   UNL     1      50.454   8.218  11.671  0.00  0.00    +0.000 A 
ATOM     10  C   UNL     1      50.703   9.591  11.513  0.00  0.00    +0.000 A 
ATOM     11  C   UNL     1      51.621  10.063  10.572  0.00  0.00    +0.000 A 
ATOM     12  C   UNL     1      52.331   9.167   9.780  0.00  0.00    +0.000 A 
ATOM     13  C   UNL     1      52.131   7.788   9.918  0.00  0.00    +0.000 A 
ATOM     14  C   UNL     1      51.181   7.331  10.850  0.00  0.00    +0.000 A 
BRANCH  13  15
ATOM     15  C   UNL     1      52.941   6.799   9.118  0.00  0.00    +0.000 C 
ATOM     16  F   UNL     1      53.170   5.628   9.777  0.00  0.00    +0.000 F 
ATOM     17  F   UNL     1      52.335   6.451   7.949  0.00  0.00    +0.000 F 
ATOM     18  F   UNL     1      54.170   7.279   8.775  0.00  0.00    +0.000 F 
ENDBRANCH  13  15
ENDBRANCH   7   9
ENDBRANCH   2   3
BRANCH   1  20
ATOM     19  C   UNL     1      44.193   3.890  12.234  0.00  0.00    +0.000 C 
ATOM     20  C   UNL     1      44.644   4.873  11.131  0.00  0.00    +0.000 C 
ATOM     21  C   UNL     1      43.414   5.743  10.777  0.00  0.00    +0.000 C 
BRANCH  20  22
ATOM     22  C   UNL     1      45.150   4.162   9.864  0.00  0.00    +0.000 A 
ATOM     23  C   UNL     1      45.075   2.772   9.684  0.00  0.00    +0.000 A 
ATOM     24  C   UNL     1      45.620   2.173   8.553  0.00  0.00    +0.000 A 
ATOM     25  C   UNL     1      46.237   2.984   7.617  0.00  0.00    +0.000 A 
ATOM     26  N   UNL     1      46.326   4.336   7.727  0.00  0.00    +0.000 NA
ATOM     27  C   UNL     1      45.780   4.883   8.841  0.00  0.00    +0.000 A 
BRANCH  25  28
ATOM     28  C   UNL     1      46.874   2.359   6.412  0.00  0.00    +0.000 C 
ATOM     29  N   UNL     1      47.066   3.201   5.351  0.00  0.00    +0.000 N 
ATOM     30  O   UNL     1      47.206   1.183   6.375  0.00  0.00    +0.000 OA
ATOM     31  H   UNL     1      46.764   4.166   5.422  0.00  0.00    +0.000 HD
ATOM     32  H   UNL     1      47.475   2.848   4.500  0.00  0.00    +0.000 HD
ENDBRANCH  25  28
ENDBRANCH  20  22
ENDBRANCH   1  20
TORSDOF 6
ENDMDL
MODEL 5
REMARK VINA RESULT:    -7.329      3.174      4.757
REMARK INTER + INTRA:         -10.924
REMARK INTER:                  -9.877
REMARK INTRA:                  -1.047
REMARK UNBOUND:                -1.024
REMARK  Name = 
REMARK  8 active torsions:
REMARK  status: ('A' for Active; 'I' for Inactive)
REMARK    1  A    between atoms: C_1  and  C_2
REMARK    2  A    between atoms: C_2  and  C_3
REMARK    3  A    between atoms: C_2  and  C_4
REMARK    4  A    between atoms: C_2  and  C_22
REMARK    5  A    between atoms: C_5  and  C_6
REMARK    6  A    between atoms: C_10  and  C_11
REMARK    7  A    between atoms: C_15  and  C_16
REMARK    8  A    between atoms: C_25  and  C_26
REMARK                            x       y       z     vdW  Elec       q    Type
REMARK                         _______ _______ _______ _____ _____    ______ ____
ROOT
ATOM      1  C   UNL     1      47.924   6.865  14.203  0.00  0.00    +0.000 C 
ATOM      2  C   UNL     1      48.813   7.613  14.886  0.00  0.00    +0.000 C 
ENDROOT
BRANCH   2   3
ATOM      3  C   UNL     1      49.404   7.219  16.171  0.00  0.00    +0.000 A 
ATOM      4  C   UNL     1      49.438   8.116  17.231  0.00  0.00    +0.000 A 
ATOM      5  C   UNL     1      50.008   7.710  18.430  0.00  0.00    +0.000 A 
ATOM      6  C   UNL     1      50.509   6.414  18.539  0.00  0.00    +0.000 A 
ATOM      7  C   UNL     1      50.411   5.551  17.449  0.00  0.00    +0.000 A 
ATOM      8  N   UNL     1      49.881   5.957  16.270  0.00  0.00    +0.000 NA
BRANCH   7   9
ATOM      9  C   UNL     1      50.821   4.131  17.502  0.00  0.00    +0.000 A 
ATOM     10  C   UNL     1      49.921   3.092  17.215  0.00  0.00    +0.000 A 
ATOM     11  C   UNL     1      50.323   1.755  17.221  0.00  0.00    +0.000 A 
ATOM     12  C   UNL     1      51.648   1.426  17.493  0.00  0.00    +0.000 A 
ATOM     13  C   UNL     1      52.585   2.431  17.764  0.00  0.00    +0.000 A 
ATOM     14  C   UNL     1      52.155   3.771  17.782  0.00  0.00    +0.000 A 
BRANCH  13  15
ATOM     15  C   UNL     1      54.038   2.100  17.992  0.00  0.00    +0.000 C 
ATOM     16  F   UNL     1      54.865   3.177  17.871  0.00  0.00    +0.000 F 
ATOM     17  F   UNL     1      54.271   1.596  19.235  0.00  0.00    +0.000 F 
ATOM     18  F   UNL     1      54.511   1.169  17.116  0.00  0.00    +0.000 F 
ENDBRANCH  13  15
ENDBRANCH   7   9
ENDBRANCH   2   3
BRANCH   1  20
ATOM     19  C   UNL     1      46.355   8.468  13.165  0.00  0.00    +0.000 C 
ATOM     20  C   UNL     1      47.245   7.236  12.884  0.00  0.00    +0.000 C 
ATOM     21  C   UNL     1      48.336   7.692  11.886  0.00  0.00    +0.000 C 
BRANCH  20  22
ATOM     22  C   UNL     1      46.463   6.056  12.285  0.00  0.00    +0.000 A 
ATOM     23  C   UNL     1      46.002   6.037  10.959  0.00  0.00    +0.000 A 
ATOM     24  C   UNL     1      45.230   4.977  10.492  0.00  0.00    +0.000 A 
ATOM     25  C   UNL     1      44.932   3.949  11.368  0.00  0.00    +0.000 A 
ATOM     26  N   UNL     1      45.364   3.903  12.657  0.00  0.00    +0.000 NA
ATOM     27  C   UNL     1      46.115   4.951  13.075  0.00  0.00    +0.000 A 
BRANCH  25  28
ATOM     28  C   UNL     1      44.063   2.819  10.904  0.00  0.00    +0.000 C 
ATOM     29  N   UNL     1      44.525   2.141   9.809  0.00  0.00    +0.000 N 
ATOM     30  O   UNL     1      43.019   2.516  11.462  0.00  0.00    +0.000 OA
ATOM     31  H   UNL     1      45.390   2.435   9.370  0.00  0.00    +0.000 HD
ATOM     32  H   UNL     1      43.986   1.378   9.430  0.00  0.00    +0.000 HD
ENDBRANCH  25  28
ENDBRANCH  20  22
ENDBRANCH   1  20
TORSDOF 6
ENDMDL
MODEL 6
REMARK VINA RESULT:    -7.198      5.872      7.802
REMARK INTER + INTRA:         -10.747
REMARK INTER:                  -9.681
REMARK INTRA:                  -1.066
REMARK UNBOUND:                -1.024
REMARK  Name = 
REMARK  8 active torsions:
REMARK  status: ('A' for Active; 'I' for Inactive)
REMARK    1  A    between atoms: C_1  and  C_2
REMARK    2  A    between atoms: C_2  and  C_3
REMARK    3  A    between atoms: C_2  and  C_4
REMARK    4  A    between atoms: C_2  and  C_22
REMARK    5  A    between atoms: C_5  and  C_6
REMARK    6  A    between atoms: C_10  and  C_11
REMARK    7  A    between atoms: C_15  and  C_16
REMARK    8  A    between atoms: C_25  and  C_26
REMARK                            x       y       z     vdW  Elec       q    Type
REMARK                         _______ _______ _______ _____ _____    ______ ____
ROOT
ATOM      1  C   UNL     1      51.285   8.132  10.811  0.00  0.00    +0.000 C 
ATOM      2  C   UNL     1      50.623   9.155  11.386  0.00  0.00    +0.000 C 
ENDROOT
BRANCH   2   3
ATOM      3  C   UNL     1      49.189   9.132  11.702  0.00  0.00    +0.000 A 
ATOM      4  C   UNL     1      48.475  10.319  11.799  0.00  0.00    +0.000 A 
ATOM      5  C   UNL     1      47.121  10.261  12.103  0.00  0.00    +0.000 A 
ATOM      6  C   UNL     1      46.519   9.016  12.281  0.00  0.00    +0.000 A 
ATOM      7  C   UNL     1      47.285   7.861  12.134  0.00  0.00    +0.000 A 
ATOM      8  N   UNL     1      48.611   7.920  11.865  0.00  0.00    +0.000 NA
BRANCH   7   9
ATOM      9  C   UNL     1      46.714   6.498  12.203  0.00  0.00    +0.000 A 
ATOM     10  C   UNL     1      46.937   5.660  13.307  0.00  0.00    +0.000 A 
ATOM     11  C   UNL     1      46.358   4.392  13.390  0.00  0.00    +0.000 A 
ATOM     12  C   UNL     1      45.520   3.940  12.376  0.00  0.00    +0.000 A 
ATOM     13  C   UNL     1      45.252   4.751  11.266  0.00  0.00    +0.000 A 
ATOM     14  C   UNL     1      45.866   6.014  11.185  0.00  0.00    +0.000 A 
BRANCH  13  15
ATOM     15  C   UNL     1      44.291   4.308  10.191  0.00  0.00    +0.000 C 
ATOM     16  F   UNL     1      43.939   2.994  10.288  0.00  0.00    +0.000 F 
ATOM     17  F   UNL     1      43.122   5.005  10.214  0.00  0.00    +0.000 F 
ATOM     18  F   UNL     1      44.797   4.465   8.935  0.00  0.00    +0.000 F 
ENDBRANCH  13  15
ENDBRANCH   7   9
ENDBRANCH   2   3
BRANCH   1  20
ATOM     19  C   UNL     1      53.145   9.547  10.008  0.00  0.00    +0.000 C 
ATOM     20  C   UNL     1      52.764   8.108  10.423  0.00  0.00    +0.000 C 
ATOM     21  C   UNL     1      53.593   7.773  11.686  0.00  0.00    +0.000 C 
BRANCH  20  22
ATOM     22  C   UNL     1      53.057   7.070   9.328  0.00  0.00    +0.000 A 
ATOM     23  C   UNL     1      52.472   7.116   8.053  0.00  0.00    +0.000 A 
ATOM     24  C   UNL     1      52.711   6.106   7.126  0.00  0.00    +0.000 A 
ATOM     25  C   UNL     1      53.536   5.060   7.497  0.00  0.00    +0.000 A 
ATOM     26  N   UNL     1      54.144   4.968   8.709  0.00  0.00    +0.000 NA
ATOM     27  C   UNL     1      53.890   5.972   9.584  0.00  0.00    +0.000 A 
BRANCH  25  28
ATOM     28  C   UNL     1      53.772   3.935   6.534  0.00  0.00    +0.000 C 
ATOM     29  N   UNL     1      53.133   2.764   6.838  0.00  0.00    +0.000 N 
ATOM     30  O   UNL     1      54.478   4.050   5.543  0.00  0.00    +0.000 OA
ATOM     31  H   UNL     1      52.567   2.710   7.677  0.00  0.00    +0.000 HD
ATOM     32  H   UNL     1      53.257   1.959   6.245  0.00  0.00    +0.000 HD
ENDBRANCH  25  28
ENDBRANCH  20  22
ENDBRANCH   1  20
TORSDOF 6
ENDMDL
MODEL 7
REMARK VINA RESULT:    -6.959      3.147      4.767
REMARK INTER + INTRA:         -10.424
REMARK INTER:                  -9.084
REMARK INTRA:                  -1.340
REMARK UNBOUND:                -1.024
REMARK  Name = 
REMARK  8 active torsions:
REMARK  status: ('A' for Active; 'I' for Inactive)
REMARK    1  A    between atoms: C_1  and  C_2
REMARK    2  A    between atoms: C_2  and  C_3
REMARK    3  A    between atoms: C_2  and  C_4
REMARK    4  A    between atoms: C_2  and  C_22
REMARK    5  A    between atoms: C_5  and  C_6
REMARK    6  A    between atoms: C_10  and  C_11
REMARK    7  A    between atoms: C_15  and  C_16
REMARK    8  A    between atoms: C_25  and  C_26
REMARK                            x       y       z     vdW  Elec       q    Type
REMARK                         _______ _______ _______ _____ _____    ______ ____
ROOT
ATOM      1  C   UNL     1      47.810   8.093  13.865  0.00  0.00    +0.000 C 
ATOM      2  C   UNL     1      48.127   9.215  14.541  0.00  0.00    +0.000 C 
ENDROOT
BRANCH   2   3
ATOM      3  C   UNL     1      48.465   9.247  15.970  0.00  0.00    +0.000 A 
ATOM      4  C   UNL     1      48.649  10.461  16.618  0.00  0.00    +0.000 A 
ATOM      5  C   UNL     1      48.970  10.453  17.969  0.00  0.00    +0.000 A 
ATOM      6  C   UNL     1      49.079   9.233  18.634  0.00  0.00    +0.000 A 
ATOM      7  C   UNL     1      48.846   8.051  17.933  0.00  0.00    +0.000 A 
ATOM      8  N   UNL     1      48.560   8.059  16.608  0.00  0.00    +0.000 NA
BRANCH   7   9
ATOM      9  C   UNL     1      48.838   6.719  18.574  0.00  0.00    +0.000 A 
ATOM     10  C   UNL     1      49.014   6.565  19.959  0.00  0.00    +0.000 A 
ATOM     11  C   UNL     1      48.959   5.310  20.567  0.00  0.00    +0.000 A 
ATOM     12  C   UNL     1      48.702   4.175  19.803  0.00  0.00    +0.000 A 
ATOM     13  C   UNL     1      48.498   4.284  18.422  0.00  0.00    +0.000 A 
ATOM     14  C   UNL     1      48.586   5.553  17.822  0.00  0.00    +0.000 A 
BRANCH  13  15
ATOM     15  C   UNL     1      48.149   3.076  17.589  0.00  0.00    +0.000 C 
ATOM     16  F   UNL     1      49.181   2.195  17.453  0.00  0.00    +0.000 F 
ATOM     17  F   UNL     1      47.119   2.358  18.114  0.00  0.00    +0.000 F 
ATOM     18  F   UNL     1      47.771   3.402  16.320  0.00  0.00    +0.000 F 
ENDBRANCH  13  15
ENDBRANCH   7   9
ENDBRANCH   2   3
BRANCH   1  20
ATOM     19  C   UNL     1      46.659   9.302  12.043  0.00  0.00    +0.000 C 
ATOM     20  C   UNL     1      47.413   7.999  12.391  0.00  0.00    +0.000 C 
ATOM     21  C   UNL     1      48.705   7.989  11.539  0.00  0.00    +0.000 C 
BRANCH  20  22
ATOM     22  C   UNL     1      46.593   6.733  12.093  0.00  0.00    +0.000 A 
ATOM     23  C   UNL     1      46.116   6.413  10.813  0.00  0.00    +0.000 A 
ATOM     24  C   UNL     1      45.311   5.296  10.614  0.00  0.00    +0.000 A 
ATOM     25  C   UNL     1      44.995   4.514  11.711  0.00  0.00    +0.000 A 
ATOM     26  N   UNL     1      45.440   4.763  12.971  0.00  0.00    +0.000 NA
ATOM     27  C   UNL     1      46.224   5.858  13.125  0.00  0.00    +0.000 A 
BRANCH  25  28
ATOM     28  C   UNL     1      44.091   3.331  11.532  0.00  0.00    +0.000 C 
ATOM     29  N   UNL     1      44.115   2.421  12.553  0.00  0.00    +0.000 N 
ATOM     30  O   UNL     1      43.378   3.187  10.551  0.00  0.00    +0.000 OA
ATOM     31  H   UNL     1      44.732   2.575  13.343  0.00  0.00    +0.000 HD
ATOM     32  H   UNL     1      43.544   1.591  12.496  0.00  0.00    +0.000 HD
ENDBRANCH  25  28
ENDBRANCH  20  22
ENDBRANCH   1  20
TORSDOF 6
ENDMDL
MODEL 8
REMARK VINA RESULT:    -6.802      5.332      9.330
REMARK INTER + INTRA:         -10.212
REMARK INTER:                  -9.122
REMARK INTRA:                  -1.090
REMARK UNBOUND:                -1.024
REMARK  Name = 
REMARK  8 active torsions:
REMARK  status: ('A' for Active; 'I' for Inactive)
REMARK    1  A    between atoms: C_1  and  C_2
REMARK    2  A    between atoms: C_2  and  C_3
REMARK    3  A    between atoms: C_2  and  C_4
REMARK    4  A    between atoms: C_2  and  C_22
REMARK    5  A    between atoms: C_5  and  C_6
REMARK    6  A    between atoms: C_10  and  C_11
REMARK    7  A    between atoms: C_15  and  C_16
REMARK    8  A    between atoms: C_25  and  C_26
REMARK                            x       y       z     vdW  Elec       q    Type
REMARK                         _______ _______ _______ _____ _____    ______ ____
ROOT
ATOM      1  C   UNL     1      48.288   8.131  13.735  0.00  0.00    +0.000 C 
ATOM      2  C   UNL     1      47.158   8.862  13.677  0.00  0.00    +0.000 C 
ENDROOT
BRANCH   2   3
ATOM      3  C   UNL     1      46.056   8.600  12.742  0.00  0.00    +0.000 A 
ATOM      4  C   UNL     1      45.281   9.647  12.262  0.00  0.00    +0.000 A 
ATOM      5  C   UNL     1      44.245   9.361  11.382  0.00  0.00    +0.000 A 
ATOM      6  C   UNL     1      44.029   8.040  10.994  0.00  0.00    +0.000 A 
ATOM      7  C   UNL     1      44.867   7.040  11.484  0.00  0.00    +0.000 A 
ATOM      8  N   UNL     1      45.859   7.316  12.365  0.00  0.00    +0.000 NA
BRANCH   7   9
ATOM      9  C   UNL     1      44.780   5.628  11.052  0.00  0.00    +0.000 A 
ATOM     10  C   UNL     1      44.039   4.679  11.774  0.00  0.00    +0.000 A 
ATOM     11  C   UNL     1      43.921   3.358  11.337  0.00  0.00    +0.000 A 
ATOM     12  C   UNL     1      44.525   2.960  10.149  0.00  0.00    +0.000 A 
ATOM     13  C   UNL     1      45.256   3.878   9.384  0.00  0.00    +0.000 A 
ATOM     14  C   UNL     1      45.388   5.198   9.855  0.00  0.00    +0.000 A 
BRANCH  13  15
ATOM     15  C   UNL     1      45.859   3.484   8.059  0.00  0.00    +0.000 C 
ATOM     16  F   UNL     1      44.947   3.415   7.048  0.00  0.00    +0.000 F 
ATOM     17  F   UNL     1      46.812   4.360   7.637  0.00  0.00    +0.000 F 
ATOM     18  F   UNL     1      46.463   2.262   8.098  0.00  0.00    +0.000 F 
ENDBRANCH  13  15
ENDBRANCH   7   9
ENDBRANCH   2   3
BRANCH   1  20
ATOM     19  C   UNL     1      50.758   8.212  13.796  0.00  0.00    +0.000 C 
ATOM     20  C   UNL     1      49.484   8.376  14.656  0.00  0.00    +0.000 C 
ATOM     21  C   UNL     1      49.446   9.852  15.121  0.00  0.00    +0.000 C 
BRANCH  20  22
ATOM     22  C   UNL     1      49.466   7.452  15.885  0.00  0.00    +0.000 A 
ATOM     23  C   UNL     1      50.184   7.726  17.060  0.00  0.00    +0.000 A 
ATOM     24  C   UNL     1      50.196   6.815  18.112  0.00  0.00    +0.000 A 
ATOM     25  C   UNL     1      49.484   5.637  17.966  0.00  0.00    +0.000 A 
ATOM     26  N   UNL     1      48.757   5.324  16.860  0.00  0.00    +0.000 NA
ATOM     27  C   UNL     1      48.768   6.237  15.858  0.00  0.00    +0.000 A 
BRANCH  25  28
ATOM     28  C   UNL     1      49.519   4.619  19.065  0.00  0.00    +0.000 C 
ATOM     29  N   UNL     1      50.705   3.952  19.204  0.00  0.00    +0.000 N 
ATOM     30  O   UNL     1      48.562   4.398  19.792  0.00  0.00    +0.000 OA
ATOM     31  H   UNL     1      51.469   4.158  18.571  0.00  0.00    +0.000 HD
ATOM     32  H   UNL     1      50.798   3.241  19.913  0.00  0.00    +0.000 HD
ENDBRANCH  25  28
ENDBRANCH  20  22
ENDBRANCH   1  20
TORSDOF 6
ENDMDL
MODEL 9
REMARK VINA RESULT:    -6.518      5.459      7.409
REMARK INTER + INTRA:          -9.828
REMARK INTER:                  -8.828
REMARK INTRA:                  -1.000
REMARK UNBOUND:                -1.024
REMARK  Name = 
REMARK  8 active torsions:
REMARK  status: ('A' for Active; 'I' for Inactive)
REMARK    1  A    between atoms: C_1  and  C_2
REMARK    2  A    between atoms: C_2  and  C_3
REMARK    3  A    between atoms: C_2  and  C_4
REMARK    4  A    between atoms: C_2  and  C_22
REMARK    5  A    between atoms: C_5  and  C_6
REMARK    6  A    between atoms: C_10  and  C_11
REMARK    7  A    between atoms: C_15  and  C_16
REMARK    8  A    between atoms: C_25  and  C_26
REMARK                            x       y       z     vdW  Elec       q    Type
REMARK                         _______ _______ _______ _____ _____    ______ ____
ROOT
ATOM      1  C   UNL     1      51.860   7.809  11.046  0.00  0.00    +0.000 C 
ATOM      2  C   UNL     1      51.346   8.700  11.917  0.00  0.00    +0.000 C 
ENDROOT
BRANCH   2   3
ATOM      3  C   UNL     1      50.308   8.379  12.905  0.00  0.00    +0.000 A 
ATOM      4  C   UNL     1      50.495   8.697  14.244  0.00  0.00    +0.000 A 
ATOM      5  C   UNL     1      49.494   8.376  15.152  0.00  0.00    +0.000 A 
ATOM      6  C   UNL     1      48.330   7.765  14.690  0.00  0.00    +0.000 A 
ATOM      7  C   UNL     1      48.189   7.506  13.327  0.00  0.00    +0.000 A 
ATOM      8  N   UNL     1      49.178   7.794  12.447  0.00  0.00    +0.000 NA
BRANCH   7   9
ATOM      9  C   UNL     1      46.953   6.956  12.732  0.00  0.00    +0.000 A 
ATOM     10  C   UNL     1      46.057   7.764  12.013  0.00  0.00    +0.000 A 
ATOM     11  C   UNL     1      44.914   7.232  11.412  0.00  0.00    +0.000 A 
ATOM     12  C   UNL     1      44.652   5.868  11.498  0.00  0.00    +0.000 A 
ATOM     13  C   UNL     1      45.529   5.021  12.187  0.00  0.00    +0.000 A 
ATOM     14  C   UNL     1      46.660   5.579  12.810  0.00  0.00    +0.000 A 
BRANCH  13  15
ATOM     15  C   UNL     1      45.299   3.531  12.231  0.00  0.00    +0.000 C 
ATOM     16  F   UNL     1      44.090   3.185  12.759  0.00  0.00    +0.000 F 
ATOM     17  F   UNL     1      45.340   2.958  10.997  0.00  0.00    +0.000 F 
ATOM     18  F   UNL     1      46.231   2.875  12.980  0.00  0.00    +0.000 F 
ENDBRANCH  13  15
ENDBRANCH   7   9
ENDBRANCH   2   3
BRANCH   1  20
ATOM     19  C   UNL     1      52.435   9.335   9.189  0.00  0.00    +0.000 C 
ATOM     20  C   UNL     1      52.910   8.089   9.970  0.00  0.00    +0.000 C 
ATOM     21  C   UNL     1      54.233   8.479  10.672  0.00  0.00    +0.000 C 
BRANCH  20  22
ATOM     22  C   UNL     1      53.151   6.869   9.067  0.00  0.00    +0.000 A 
ATOM     23  C   UNL     1      54.069   5.854   9.379  0.00  0.00    +0.000 A 
ATOM     24  C   UNL     1      54.305   4.812   8.487  0.00  0.00    +0.000 A 
ATOM     25  C   UNL     1      53.613   4.807   7.289  0.00  0.00    +0.000 A 
ATOM     26  N   UNL     1      52.700   5.752   6.937  0.00  0.00    +0.000 NA
ATOM     27  C   UNL     1      52.495   6.749   7.834  0.00  0.00    +0.000 A 
BRANCH  25  28
ATOM     28  C   UNL     1      53.884   3.723   6.290  0.00  0.00    +0.000 C 
ATOM     29  N   UNL     1      53.434   2.480   6.643  0.00  0.00    +0.000 N 
ATOM     30  O   UNL     1      54.460   3.927   5.232  0.00  0.00    +0.000 OA
ATOM     31  H   UNL     1      52.972   2.354   7.537  0.00  0.00    +0.000 HD
ATOM     32  H   UNL     1      53.593   1.697   6.028  0.00  0.00    +0.000 HD
ENDBRANCH  25  28
ENDBRANCH  20  22
ENDBRANCH   1  20
TORSDOF 6
ENDMDL
