MODEL 1
REMARK VINA RESULT:    -7.219      0.000      0.000
REMARK INTER + INTRA:         -11.415
REMARK INTER:                  -9.962
REMARK INTRA:                  -1.453
REMARK UNBOUND:                -1.453
REMARK  Name = 
REMARK  8 active torsions:
REMARK  status: ('A' for Active; 'I' for Inactive)
REMARK    1  A    between atoms: C_1  and  N_2
REMARK    2  A    between atoms: N_2  and  C_3
REMARK    3  A    between atoms: C_3  and  C_4
REMARK    4  A    between atoms: C_7  and  C_8
REMARK    5  A    between atoms: C_8  and  O_9
REMARK    6  A    between atoms: C_8  and  C_10
REMARK    7  A    between atoms: C_10  and  N_11
REMARK    8  A    between atoms: C_18  and  C_20
REMARK                            x       y       z     vdW  Elec       q    Type
REMARK                         _______ _______ _______ _____ _____    ______ ____
ROOT
ATOM      1  C   UNL     1      47.181   6.153  12.167  0.00  0.00    +0.000 C 
ENDROOT
BRANCH   1   2
ATOM      2  C   UNL     1      47.346   5.568  13.541  0.00  0.00    +0.000 A 
ATOM      3  C   UNL     1      48.015   6.287  14.541  0.00  0.00    +0.000 A 
ATOM      4  C   UNL     1      48.133   5.766  15.828  0.00  0.00    +0.000 A 
ATOM      5  C   UNL     1      47.545   4.534  16.152  0.00  0.00    +0.000 A 
ATOM      6  C   UNL     1      46.910   3.802  15.135  0.00  0.00    +0.000 A 
ATOM      7  C   UNL     1      46.818   4.311  13.841  0.00  0.00    +0.000 A 
BRANCH   5   8
ATOM      8  C   UNL     1      47.555   4.053  17.597  0.00  0.00    +0.000 C 
BRANCH   8   9
ATOM      9  O   UNL     1      46.673   2.940  17.743  0.00  0.00    +0.000 OA
ATOM     10  H   UNL     1      46.866   2.304  17.036  0.00  0.00    +0.000 HD
ENDBRANCH   8   9
BRANCH   8  11
ATOM     11  C   UNL     1      47.179   5.221  18.564  0.00  0.00    +0.000 C 
BRANCH  11  12
ATOM     12  N   UNL     1      48.098   5.655  19.632  0.00  0.00    +0.000 NA
ATOM     13  C   UNL     1      48.687   6.978  19.435  0.00  0.00    +0.000 C 
ATOM     14  C   UNL     1      50.070   6.724  18.871  0.00  0.00    +0.000 C 
ATOM     15  C   UNL     1      50.498   5.450  19.573  0.00  0.00    +0.000 C 
ATOM     16  C   UNL     1      49.198   4.721  19.894  0.00  0.00    +0.000 C 
ENDBRANCH  11  12
ENDBRANCH   8  11
ENDBRANCH   5   8
ENDBRANCH   1   2
BRANCH   1  18
ATOM     17  C   UNL     1      46.332   8.545  12.049  0.00  0.00    +0.000 C 
ATOM     18  N   UNL     1      46.095   7.109  11.944  0.00  0.00    +0.000 N 
ATOM     19  C   UNL     1      44.794   6.736  11.553  0.00  0.00    +0.000 C 
ATOM     20  O   UNL     1      43.935   7.589  11.336  0.00  0.00    +0.000 OA
BRANCH  19  21
ATOM     21  C   UNL     1      44.448   5.307  11.430  0.00  0.00    +0.000 A 
ATOM     22  C   UNL     1      43.670   4.601  12.330  0.00  0.00    +0.000 A 
ATOM     23  S   UNL     1      43.420   2.971  11.901  0.00  0.00    +0.000 S 
ATOM     24  C   UNL     1      44.205   3.197  10.417  0.00  0.00    +0.000 A 
ATOM     25  N   UNL     1      44.246   2.186   9.502  0.00  0.00    +0.000 NA
ATOM     26  C   UNL     1      44.827   2.510   8.395  0.00  0.00    +0.000 A 
ATOM     27  N   UNL     1      45.396   3.732   8.133  0.00  0.00    +0.000 N 
ATOM     28  C   UNL     1      45.488   4.737   9.071  0.00  0.00    +0.000 A 
ATOM     29  O   UNL     1      46.198   5.717   8.880  0.00  0.00    +0.000 OA
ATOM     30  C   UNL     1      44.745   4.464  10.293  0.00  0.00    +0.000 A 
ATOM     31  H   UNL     1      45.899   3.892   7.272  0.00  0.00    +0.000 HD
ENDBRANCH  19  21
ENDBRANCH   1  18
TORSDOF 7
ENDMDL
MODEL 2
REMARK VINA RESULT:    -7.213      1.064      1.222
REMARK INTER + INTRA:         -11.407
REMARK INTER:                  -9.860
REMARK INTRA:                  -1.547
REMARK UNBOUND:                -1.453
REMARK  Name = 
REMARK  8 active torsions:
REMARK  status: ('A' for Active; 'I' for Inactive)
REMARK    1  A    between atoms: C_1  and  N_2
REMARK    2  A    between atoms: N_2  and  C_3
REMARK    3  A    between atoms: C_3  and  C_4
REMARK    4  A    between atoms: C_7  and  C_8
REMARK    5  A    between atoms: C_8  and  O_9
REMARK    6  A    between atoms: C_8  and  C_10
REMARK    7  A    between atoms: C_10  and  N_11
REMARK    8  A    between atoms: C_18  and  C_20
REMARK                            x       y       z     vdW  Elec       q    Type
REMARK                         _______ _______ _______ _____ _____    ______ ____
ROOT
ATOM      1  C   UNL     1      47.196   6.197  12.275  0.00  0.00    +0.000 C 
ENDROOT
BRANCH   1   2
ATOM      2  C   UNL     1      47.485   5.805  13.696  0.00  0.00    +0.000 A 
ATOM      3  C   UNL     1      48.294   6.617  14.504  0.00  0.00    +0.000 A 
ATOM      4  C   UNL     1      48.530   6.277  15.835  0.00  0.00    +0.000 A 
ATOM      5  C   UNL     1      47.925   5.144  16.397  0.00  0.00    +0.000 A 
ATOM      6  C   UNL     1      47.147   4.315  15.571  0.00  0.00    +0.000 A 
ATOM      7  C   UNL     1      46.936   4.638  14.232  0.00  0.00    +0.000 A 
BRANCH   5   8
ATOM      8  C   UNL     1      48.072   4.874  17.889  0.00  0.00    +0.000 C 
BRANCH   8   9
ATOM      9  O   UNL     1      46.782   4.777  18.494  0.00  0.00    +0.000 OA
ATOM     10  H   UNL     1      46.862   4.230  19.293  0.00  0.00    +0.000 HD
ENDBRANCH   8   9
BRANCH   8  11
ATOM     11  C   UNL     1      48.946   5.980  18.561  0.00  0.00    +0.000 C 
BRANCH  11  12
ATOM     12  N   UNL     1      50.358   5.736  18.905  0.00  0.00    +0.000 NA
ATOM     13  C   UNL     1      51.316   6.596  18.214  0.00  0.00    +0.000 C 
ATOM     14  C   UNL     1      51.848   5.765  17.065  0.00  0.00    +0.000 C 
ATOM     15  C   UNL     1      51.882   4.364  17.641  0.00  0.00    +0.000 C 
ATOM     16  C   UNL     1      50.793   4.349  18.707  0.00  0.00    +0.000 C 
ENDBRANCH  11  12
ENDBRANCH   8  11
ENDBRANCH   5   8
ENDBRANCH   1   2
BRANCH   1  18
ATOM     17  C   UNL     1      46.321   8.576  12.112  0.00  0.00    +0.000 C 
ATOM     18  N   UNL     1      46.104   7.137  12.022  0.00  0.00    +0.000 N 
ATOM     19  C   UNL     1      44.814   6.743  11.613  0.00  0.00    +0.000 C 
ATOM     20  O   UNL     1      43.948   7.583  11.370  0.00  0.00    +0.000 OA
BRANCH  19  21
ATOM     21  C   UNL     1      44.487   5.309  11.503  0.00  0.00    +0.000 A 
ATOM     22  C   UNL     1      43.732   4.596  12.417  0.00  0.00    +0.000 A 
ATOM     23  S   UNL     1      43.500   2.960  12.001  0.00  0.00    +0.000 S 
ATOM     24  C   UNL     1      44.260   3.190  10.504  0.00  0.00    +0.000 A 
ATOM     25  N   UNL     1      44.303   2.174   9.593  0.00  0.00    +0.000 NA
ATOM     26  C   UNL     1      44.863   2.501   8.477  0.00  0.00    +0.000 A 
ATOM     27  N   UNL     1      45.410   3.730   8.201  0.00  0.00    +0.000 N 
ATOM     28  C   UNL     1      45.501   4.741   9.131  0.00  0.00    +0.000 A 
ATOM     29  O   UNL     1      46.194   5.730   8.925  0.00  0.00    +0.000 OA
ATOM     30  C   UNL     1      44.780   4.463  10.366  0.00  0.00    +0.000 A 
ATOM     31  H   UNL     1      45.899   3.892   7.331  0.00  0.00    +0.000 HD
ENDBRANCH  19  21
ENDBRANCH   1  18
TORSDOF 7
ENDMDL
MODEL 3
REMARK VINA RESULT:    -7.071      1.361      2.046
REMARK INTER + INTRA:         -11.211
REMARK INTER:                  -9.636
REMARK INTRA:                  -1.575
REMARK UNBOUND:                -1.453
REMARK  Name = 
REMARK  8 active torsions:
REMARK  status: ('A' for Active; 'I' for Inactive)
REMARK    1  A    between atoms: C_1  and  N_2
REMARK    2  A    between atoms: N_2  and  C_3
REMARK    3  A    between atoms: C_3  and  C_4
REMARK    4  A    between atoms: C_7  and  C_8
REMARK    5  A    between atoms: C_8  and  O_9
REMARK    6  A    between atoms: C_8  and  C_10
REMARK    7  A    between atoms: C_10  and  N_11
REMARK    8  A    between atoms: C_18  and  C_20
REMARK                            x       y       z     vdW  Elec       q    Type
REMARK                         _______ _______ _______ _____ _____    ______ ____
ROOT
ATOM      1  C   UNL     1      47.463   6.580  12.390  0.00  0.00    +0.000 C 
ENDROOT
BRANCH   1   2
ATOM      2  C   UNL     1      47.553   5.888  13.720  0.00  0.00    +0.000 A 
ATOM      3  C   UNL     1      48.322   6.439  14.754  0.00  0.00    +0.000 A 
ATOM      4  C   UNL     1      48.374   5.822  16.003  0.00  0.00    +0.000 A 
ATOM      5  C   UNL     1      47.622   4.665  16.256  0.00  0.00    +0.000 A 
ATOM      6  C   UNL     1      46.885   4.097  15.203  0.00  0.00    +0.000 A 
ATOM      7  C   UNL     1      46.857   4.699  13.946  0.00  0.00    +0.000 A 
BRANCH   5   8
ATOM      8  C   UNL     1      47.573   4.093  17.666  0.00  0.00    +0.000 C 
BRANCH   8   9
ATOM      9  O   UNL     1      46.704   2.961  17.700  0.00  0.00    +0.000 OA
ATOM     10  H   UNL     1      47.000   2.330  17.025  0.00  0.00    +0.000 HD
ENDBRANCH   8   9
BRANCH   8  11
ATOM     11  C   UNL     1      47.135   5.191  18.687  0.00  0.00    +0.000 C 
BRANCH  11  12
ATOM     12  N   UNL     1      47.981   5.544  19.841  0.00  0.00    +0.000 NA
ATOM     13  C   UNL     1      48.674   6.826  19.726  0.00  0.00    +0.000 C 
ATOM     14  C   UNL     1      50.081   6.485  19.282  0.00  0.00    +0.000 C 
ATOM     15  C   UNL     1      50.357   5.174  19.991  0.00  0.00    +0.000 C 
ATOM     16  C   UNL     1      48.988   4.532  20.179  0.00  0.00    +0.000 C 
ENDBRANCH  11  12
ENDBRANCH   8  11
ENDBRANCH   5   8
ENDBRANCH   1   2
BRANCH   1  18
ATOM     17  C   UNL     1      46.522   8.906  12.787  0.00  0.00    +0.000 C 
ATOM     18  N   UNL     1      46.410   7.577  12.195  0.00  0.00    +0.000 N 
ATOM     19  C   UNL     1      45.275   7.367  11.387  0.00  0.00    +0.000 C 
ATOM     20  O   UNL     1      44.445   8.261  11.225  0.00  0.00    +0.000 OA
BRANCH  19  21
ATOM     21  C   UNL     1      45.061   6.052  10.753  0.00  0.00    +0.000 A 
ATOM     22  C   UNL     1      45.607   5.657   9.546  0.00  0.00    +0.000 A 
ATOM     23  S   UNL     1      45.201   4.067   9.087  0.00  0.00    +0.000 S 
ATOM     24  C   UNL     1      44.416   3.797  10.563  0.00  0.00    +0.000 A 
ATOM     25  N   UNL     1      43.921   2.561  10.861  0.00  0.00    +0.000 NA
ATOM     26  C   UNL     1      43.397   2.480  12.038  0.00  0.00    +0.000 A 
ATOM     27  N   UNL     1      43.293   3.522  12.926  0.00  0.00    +0.000 N 
ATOM     28  C   UNL     1      43.665   4.813  12.621  0.00  0.00    +0.000 A 
ATOM     29  O   UNL     1      43.348   5.750  13.344  0.00  0.00    +0.000 OA
ATOM     30  C   UNL     1      44.368   4.932  11.352  0.00  0.00    +0.000 A 
ATOM     31  H   UNL     1      42.804   3.405  13.803  0.00  0.00    +0.000 HD
ENDBRANCH  19  21
ENDBRANCH   1  18
TORSDOF 7
ENDMDL
MODEL 4
REMARK VINA RESULT:    -6.847      2.794      8.312
REMARK INTER + INTRA:         -10.903
REMARK INTER:                  -9.822
REMARK INTRA:                  -1.080
REMARK UNBOUND:                -1.453
REMARK  Name = 
REMARK  8 active torsions:
REMARK  status: ('A' for Active; 'I' for Inactive)
REMARK    1  A    between atoms: C_1  and  N_2
REMARK    2  A    between atoms: N_2  and  C_3
REMARK    3  A    between atoms: C_3  and  C_4
REMARK    4  A    between atoms: C_7  and  C_8
REMARK    5  A    between atoms: C_8  and  O_9
REMARK    6  A    between atoms: C_8  and  C_10
REMARK    7  A    between atoms: C_10  and  N_11
REMARK    8  A    between atoms: C_18  and  C_20
REMARK                            x       y       z     vdW  Elec       q    Type
REMARK                         _______ _______ _______ _____ _____    ______ ____
ROOT
ATOM      1  C   UNL     1      49.033   6.650  14.752  0.00  0.00    +0.000 C 
ENDROOT
BRANCH   1   2
ATOM      2  C   UNL     1      47.931   6.395  13.763  0.00  0.00    +0.000 A 
ATOM      3  C   UNL     1      47.701   7.293  12.712  0.00  0.00    +0.000 A 
ATOM      4  C   UNL     1      46.707   7.038  11.768  0.00  0.00    +0.000 A 
ATOM      5  C   UNL     1      45.953   5.858  11.832  0.00  0.00    +0.000 A 
ATOM      6  C   UNL     1      46.163   4.981  12.910  0.00  0.00    +0.000 A 
ATOM      7  C   UNL     1      47.137   5.251  13.870  0.00  0.00    +0.000 A 
BRANCH   5   8
ATOM      8  C   UNL     1      44.979   5.525  10.709  0.00  0.00    +0.000 C 
BRANCH   8   9
ATOM      9  O   UNL     1      43.725   6.165  10.950  0.00  0.00    +0.000 OA
ATOM     10  H   UNL     1      43.704   6.992  10.442  0.00  0.00    +0.000 HD
ENDBRANCH   8   9
BRANCH   8  11
ATOM     11  C   UNL     1      44.822   3.978  10.562  0.00  0.00    +0.000 C 
BRANCH  11  12
ATOM     12  N   UNL     1      44.457   3.366   9.272  0.00  0.00    +0.000 NA
ATOM     13  C   UNL     1      44.685   1.925   9.189  0.00  0.00    +0.000 C 
ATOM     14  C   UNL     1      46.002   1.767   8.458  0.00  0.00    +0.000 C 
ATOM     15  C   UNL     1      45.983   2.911   7.465  0.00  0.00    +0.000 C 
ATOM     16  C   UNL     1      45.109   3.979   8.110  0.00  0.00    +0.000 C 
ENDBRANCH  11  12
ENDBRANCH   8  11
ENDBRANCH   5   8
ENDBRANCH   1   2
BRANCH   1  18
ATOM     17  C   UNL     1      48.692   8.882  15.915  0.00  0.00    +0.000 C 
ATOM     18  N   UNL     1      48.723   7.424  15.954  0.00  0.00    +0.000 N 
ATOM     19  C   UNL     1      48.368   6.843  17.188  0.00  0.00    +0.000 C 
ATOM     20  O   UNL     1      48.073   7.547  18.152  0.00  0.00    +0.000 OA
BRANCH  19  21
ATOM     21  C   UNL     1      48.381   5.375  17.336  0.00  0.00    +0.000 A 
ATOM     22  C   UNL     1      47.263   4.563  17.274  0.00  0.00    +0.000 A 
ATOM     23  S   UNL     1      47.600   2.902  17.452  0.00  0.00    +0.000 S 
ATOM     24  C   UNL     1      49.268   3.199  17.455  0.00  0.00    +0.000 A 
ATOM     25  N   UNL     1      50.150   2.157  17.476  0.00  0.00    +0.000 NA
ATOM     26  C   UNL     1      51.386   2.522  17.420  0.00  0.00    +0.000 A 
ATOM     27  N   UNL     1      51.822   3.824  17.381  0.00  0.00    +0.000 N 
ATOM     28  C   UNL     1      50.975   4.905  17.484  0.00  0.00    +0.000 A 
ATOM     29  O   UNL     1      51.412   6.034  17.676  0.00  0.00    +0.000 OA
ATOM     30  C   UNL     1      49.565   4.549  17.430  0.00  0.00    +0.000 A 
ATOM     31  H   UNL     1      52.809   4.038  17.413  0.00  0.00    +0.000 HD
ENDBRANCH  19  21
ENDBRANCH   1  18
TORSDOF 7
ENDMDL
MODEL 5
REMARK VINA RESULT:    -6.804      2.997      8.459
REMARK INTER + INTRA:         -10.842
REMARK INTER:                  -9.785
REMARK INTRA:                  -1.057
REMARK UNBOUND:                -1.453
REMARK  Name = 
REMARK  8 active torsions:
REMARK  status: ('A' for Active; 'I' for Inactive)
REMARK    1  A    between atoms: C_1  and  N_2
REMARK    2  A    between atoms: N_2  and  C_3
REMARK    3  A    between atoms: C_3  and  C_4
REMARK    4  A    between atoms: C_7  and  C_8
REMARK    5  A    between atoms: C_8  and  O_9
REMARK    6  A    between atoms: C_8  and  C_10
REMARK    7  A    between atoms: C_10  and  N_11
REMARK    8  A    between atoms: C_18  and  C_20
REMARK                            x       y       z     vdW  Elec       q    Type
REMARK                         _______ _______ _______ _____ _____    ______ ____
ROOT
ATOM      1  C   UNL     1      47.572   8.009  13.860  0.00  0.00    +0.000 C 
ENDROOT
BRANCH   1   2
ATOM      2  C   UNL     1      46.582   7.128  13.153  0.00  0.00    +0.000 A 
ATOM      3  C   UNL     1      45.598   7.690  12.327  0.00  0.00    +0.000 A 
ATOM      4  C   UNL     1      44.704   6.873  11.636  0.00  0.00    +0.000 A 
ATOM      5  C   UNL     1      44.805   5.477  11.722  0.00  0.00    +0.000 A 
ATOM      6  C   UNL     1      45.769   4.923  12.581  0.00  0.00    +0.000 A 
ATOM      7  C   UNL     1      46.644   5.741  13.295  0.00  0.00    +0.000 A 
BRANCH   5   8
ATOM      8  C   UNL     1      43.920   4.603  10.844  0.00  0.00    +0.000 C 
BRANCH   8   9
ATOM      9  O   UNL     1      42.736   4.242  11.555  0.00  0.00    +0.000 OA
ATOM     10  H   UNL     1      42.551   3.305  11.382  0.00  0.00    +0.000 HD
ENDBRANCH   8   9
BRANCH   8  11
ATOM     11  C   UNL     1      44.707   3.346  10.353  0.00  0.00    +0.000 C 
BRANCH  11  12
ATOM     12  N   UNL     1      44.513   2.804   8.997  0.00  0.00    +0.000 NA
ATOM     13  C   UNL     1      45.167   1.520   8.749  0.00  0.00    +0.000 C 
ATOM     14  C   UNL     1      46.451   1.855   8.021  0.00  0.00    +0.000 C 
ATOM     15  C   UNL     1      46.062   3.044   7.167  0.00  0.00    +0.000 C 
ATOM     16  C   UNL     1      44.920   3.715   7.922  0.00  0.00    +0.000 C 
ENDBRANCH  11  12
ENDBRANCH   8  11
ENDBRANCH   5   8
ENDBRANCH   1   2
BRANCH   1  18
ATOM     17  C   UNL     1      49.598   7.387  12.460  0.00  0.00    +0.000 C 
ATOM     18  N   UNL     1      48.994   7.681  13.755  0.00  0.00    +0.000 N 
ATOM     19  C   UNL     1      49.881   7.693  14.849  0.00  0.00    +0.000 C 
ATOM     20  O   UNL     1      51.077   7.452  14.690  0.00  0.00    +0.000 OA
BRANCH  19  21
ATOM     21  C   UNL     1      49.368   7.966  16.205  0.00  0.00    +0.000 A 
ATOM     22  C   UNL     1      49.383   9.204  16.822  0.00  0.00    +0.000 A 
ATOM     23  S   UNL     1      48.691   9.211  18.380  0.00  0.00    +0.000 S 
ATOM     24  C   UNL     1      48.202   7.597  18.215  0.00  0.00    +0.000 A 
ATOM     25  N   UNL     1      47.445   7.007  19.185  0.00  0.00    +0.000 NA
ATOM     26  C   UNL     1      47.097   5.796  18.908  0.00  0.00    +0.000 A 
ATOM     27  N   UNL     1      47.462   5.112  17.775  0.00  0.00    +0.000 N 
ATOM     28  C   UNL     1      48.325   5.622  16.832  0.00  0.00    +0.000 A 
ATOM     29  O   UNL     1      48.807   4.907  15.961  0.00  0.00    +0.000 OA
ATOM     30  C   UNL     1      48.651   7.026  17.039  0.00  0.00    +0.000 A 
ATOM     31  H   UNL     1      47.214   4.139  17.659  0.00  0.00    +0.000 HD
ENDBRANCH  19  21
ENDBRANCH   1  18
TORSDOF 7
ENDMDL
MODEL 6
REMARK VINA RESULT:    -6.513      2.883      7.970
REMARK INTER + INTRA:         -10.441
REMARK INTER:                  -9.034
REMARK INTRA:                  -1.408
REMARK UNBOUND:                -1.453
REMARK  Name = 
REMARK  8 active torsions:
REMARK  status: ('A' for Active; 'I' for Inactive)
REMARK    1  A    between atoms: C_1  and  N_2
REMARK    2  A    between atoms: N_2  and  C_3
REMARK    3  A    between atoms: C_3  and  C_4
REMARK    4  A    between atoms: C_7  and  C_8
REMARK    5  A    between atoms: C_8  and  O_9
REMARK    6  A    between atoms: C_8  and  C_10
REMARK    7  A    between atoms: C_10  and  N_11
REMARK    8  A    between atoms: C_18  and  C_20
REMARK                            x       y       z     vdW  Elec       q    Type
REMARK                         _______ _______ _______ _____ _____    ______ ____
ROOT
ATOM      1  C   UNL     1      49.115   6.957  14.935  0.00  0.00    +0.000 C 
ENDROOT
BRANCH   1   2
ATOM      2  C   UNL     1      47.866   6.907  14.103  0.00  0.00    +0.000 A 
ATOM      3  C   UNL     1      47.284   8.091  13.627  0.00  0.00    +0.000 A 
ATOM      4  C   UNL     1      46.149   8.046  12.820  0.00  0.00    +0.000 A 
ATOM      5  C   UNL     1      45.599   6.815  12.436  0.00  0.00    +0.000 A 
ATOM      6  C   UNL     1      46.164   5.635  12.948  0.00  0.00    +0.000 A 
ATOM      7  C   UNL     1      47.281   5.681  13.779  0.00  0.00    +0.000 A 
BRANCH   5   8
ATOM      8  C   UNL     1      44.453   6.783  11.433  0.00  0.00    +0.000 C 
BRANCH   8   9
ATOM      9  O   UNL     1      43.934   8.100  11.246  0.00  0.00    +0.000 OA
ATOM     10  H   UNL     1      43.583   8.163  10.343  0.00  0.00    +0.000 HD
ENDBRANCH   8   9
BRANCH   8  11
ATOM     11  C   UNL     1      43.346   5.785  11.899  0.00  0.00    +0.000 C 
BRANCH  11  12
ATOM     12  N   UNL     1      43.112   4.515  11.189  0.00  0.00    +0.000 NA
ATOM     13  C   UNL     1      43.364   3.312  11.981  0.00  0.00    +0.000 C 
ATOM     14  C   UNL     1      44.747   2.845  11.576  0.00  0.00    +0.000 C 
ATOM     15  C   UNL     1      44.810   3.195  10.102  0.00  0.00    +0.000 C 
ATOM     16  C   UNL     1      43.866   4.379   9.937  0.00  0.00    +0.000 C 
ENDBRANCH  11  12
ENDBRANCH   8  11
ENDBRANCH   5   8
ENDBRANCH   1   2
BRANCH   1  18
ATOM     17  C   UNL     1      49.219   9.075  16.335  0.00  0.00    +0.000 C 
ATOM     18  N   UNL     1      49.059   7.628  16.234  0.00  0.00    +0.000 N 
ATOM     19  C   UNL     1      48.782   6.963  17.445  0.00  0.00    +0.000 C 
ATOM     20  O   UNL     1      48.702   7.589  18.501  0.00  0.00    +0.000 OA
BRANCH  19  21
ATOM     21  C   UNL     1      48.616   5.497  17.455  0.00  0.00    +0.000 A 
ATOM     22  C   UNL     1      47.417   4.835  17.266  0.00  0.00    +0.000 A 
ATOM     23  S   UNL     1      47.549   3.136  17.301  0.00  0.00    +0.000 S 
ATOM     24  C   UNL     1      49.237   3.228  17.407  0.00  0.00    +0.000 A 
ATOM     25  N   UNL     1      49.990   2.090  17.368  0.00  0.00    +0.000 NA
ATOM     26  C   UNL     1      51.262   2.308  17.402  0.00  0.00    +0.000 A 
ATOM     27  N   UNL     1      51.847   3.546  17.505  0.00  0.00    +0.000 N 
ATOM     28  C   UNL     1      51.127   4.707  17.673  0.00  0.00    +0.000 A 
ATOM     29  O   UNL     1      51.680   5.754  17.990  0.00  0.00    +0.000 OA
ATOM     30  C   UNL     1      49.690   4.530  17.522  0.00  0.00    +0.000 A 
ATOM     31  H   UNL     1      52.849   3.635  17.602  0.00  0.00    +0.000 HD
ENDBRANCH  19  21
ENDBRANCH   1  18
TORSDOF 7
ENDMDL
MODEL 7
REMARK VINA RESULT:    -5.918      3.153      7.899
REMARK INTER + INTRA:          -9.620
REMARK INTER:                  -7.858
REMARK INTRA:                  -1.762
REMARK UNBOUND:                -1.453
REMARK  Name = 
REMARK  8 active torsions:
REMARK  status: ('A' for Active; 'I' for Inactive)
REMARK    1  A    between atoms: C_1  and  N_2
REMARK    2  A    between atoms: N_2  and  C_3
REMARK    3  A    between atoms: C_3  and  C_4
REMARK    4  A    between atoms: C_7  and  C_8
REMARK    5  A    between atoms: C_8  and  O_9
REMARK    6  A    between atoms: C_8  and  C_10
REMARK    7  A    between atoms: C_10  and  N_11
REMARK    8  A    between atoms: C_18  and  C_20
REMARK                            x       y       z     vdW  Elec       q    Type
REMARK                         _______ _______ _______ _____ _____    ______ ____
ROOT
ATOM      1  C   UNL     1      50.594   7.712  18.029  0.00  0.00    +0.000 C 
ENDROOT
BRANCH   1   2
ATOM      2  C   UNL     1      49.787   7.880  16.773  0.00  0.00    +0.000 A 
ATOM      3  C   UNL     1      49.896   6.947  15.732  0.00  0.00    +0.000 A 
ATOM      4  C   UNL     1      49.118   7.076  14.583  0.00  0.00    +0.000 A 
ATOM      5  C   UNL     1      48.183   8.116  14.471  0.00  0.00    +0.000 A 
ATOM      6  C   UNL     1      48.107   9.068  15.501  0.00  0.00    +0.000 A 
ATOM      7  C   UNL     1      48.907   8.955  16.637  0.00  0.00    +0.000 A 
BRANCH   5   8
ATOM      8  C   UNL     1      47.237   8.152  13.277  0.00  0.00    +0.000 C 
BRANCH   8   9
ATOM      9  O   UNL     1      46.021   8.805  13.642  0.00  0.00    +0.000 OA
ATOM     10  H   UNL     1      46.185   9.329  14.442  0.00  0.00    +0.000 HD
ENDBRANCH   8   9
BRANCH   8  11
ATOM     11  C   UNL     1      46.982   6.709  12.738  0.00  0.00    +0.000 C 
BRANCH  11  12
ATOM     12  N   UNL     1      45.829   5.914  13.197  0.00  0.00    +0.000 NA
ATOM     13  C   UNL     1      46.174   4.708  13.949  0.00  0.00    +0.000 C 
ATOM     14  C   UNL     1      46.078   3.571  12.953  0.00  0.00    +0.000 C 
ATOM     15  C   UNL     1      44.925   3.990  12.064  0.00  0.00    +0.000 C 
ATOM     16  C   UNL     1      44.911   5.513  12.126  0.00  0.00    +0.000 C 
ENDBRANCH  11  12
ENDBRANCH   8  11
ENDBRANCH   5   8
ENDBRANCH   1   2
BRANCH   1  18
ATOM     17  C   UNL     1      49.328   8.364  20.132  0.00  0.00    +0.000 C 
ATOM     18  N   UNL     1      49.895   7.342  19.260  0.00  0.00    +0.000 N 
ATOM     19  C   UNL     1      49.657   6.010  19.652  0.00  0.00    +0.000 C 
ATOM     20  O   UNL     1      49.022   5.760  20.676  0.00  0.00    +0.000 OA
BRANCH  19  21
ATOM     21  C   UNL     1      50.199   4.901  18.845  0.00  0.00    +0.000 A 
ATOM     22  C   UNL     1      51.489   4.410  18.938  0.00  0.00    +0.000 A 
ATOM     23  S   UNL     1      51.812   3.102  17.894  0.00  0.00    +0.000 S 
ATOM     24  C   UNL     1      50.193   3.042  17.400  0.00  0.00    +0.000 A 
ATOM     25  N   UNL     1      49.766   2.051  16.566  0.00  0.00    +0.000 NA
ATOM     26  C   UNL     1      48.501   2.092  16.314  0.00  0.00    +0.000 A 
ATOM     27  N   UNL     1      47.635   3.046  16.788  0.00  0.00    +0.000 N 
ATOM     28  C   UNL     1      48.043   4.133  17.528  0.00  0.00    +0.000 A 
ATOM     29  O   UNL     1      47.288   5.076  17.736  0.00  0.00    +0.000 OA
ATOM     30  C   UNL     1      49.438   4.069  17.938  0.00  0.00    +0.000 A 
ATOM     31  H   UNL     1      46.669   3.059  16.489  0.00  0.00    +0.000 HD
ENDBRANCH  19  21
ENDBRANCH   1  18
TORSDOF 7
ENDMDL
MODEL 8
REMARK VINA RESULT:    -5.561      3.330      4.799
REMARK INTER + INTRA:          -9.127
REMARK INTER:                  -7.179
REMARK INTRA:                  -1.948
REMARK UNBOUND:                -1.453
REMARK  Name = 
REMARK  8 active torsions:
REMARK  status: ('A' for Active; 'I' for Inactive)
REMARK    1  A    between atoms: C_1  and  N_2
REMARK    2  A    between atoms: N_2  and  C_3
REMARK    3  A    between atoms: C_3  and  C_4
REMARK    4  A    between atoms: C_7  and  C_8
REMARK    5  A    between atoms: C_8  and  O_9
REMARK    6  A    between atoms: C_8  and  C_10
REMARK    7  A    between atoms: C_10  and  N_11
REMARK    8  A    between atoms: C_18  and  C_20
REMARK                            x       y       z     vdW  Elec       q    Type
REMARK                         _______ _______ _______ _____ _____    ______ ____
ROOT
ATOM      1  C   UNL     1      49.599   9.447  14.607  0.00  0.00    +0.000 C 
ENDROOT
BRANCH   1   2
ATOM      2  C   UNL     1      49.801   8.265  15.512  0.00  0.00    +0.000 A 
ATOM      3  C   UNL     1      51.060   7.655  15.610  0.00  0.00    +0.000 A 
ATOM      4  C   UNL     1      51.262   6.585  16.480  0.00  0.00    +0.000 A 
ATOM      5  C   UNL     1      50.220   6.132  17.302  0.00  0.00    +0.000 A 
ATOM      6  C   UNL     1      48.952   6.723  17.171  0.00  0.00    +0.000 A 
ATOM      7  C   UNL     1      48.743   7.773  16.279  0.00  0.00    +0.000 A 
BRANCH   5   8
ATOM      8  C   UNL     1      50.500   5.065  18.352  0.00  0.00    +0.000 C 
BRANCH   8   9
ATOM      9  O   UNL     1      51.691   5.391  19.070  0.00  0.00    +0.000 OA
ATOM     10  H   UNL     1      52.444   4.992  18.605  0.00  0.00    +0.000 HD
ENDBRANCH   8   9
BRANCH   8  11
ATOM     11  C   UNL     1      50.591   3.655  17.688  0.00  0.00    +0.000 C 
BRANCH  11  12
ATOM     12  N   UNL     1      49.437   2.739  17.675  0.00  0.00    +0.000 NA
ATOM     13  C   UNL     1      48.968   2.359  16.343  0.00  0.00    +0.000 C 
ATOM     14  C   UNL     1      47.778   3.254  16.065  0.00  0.00    +0.000 C 
ATOM     15  C   UNL     1      47.134   3.404  17.428  0.00  0.00    +0.000 C 
ATOM     16  C   UNL     1      48.274   3.228  18.424  0.00  0.00    +0.000 C 
ENDBRANCH  11  12
ENDBRANCH   8  11
ENDBRANCH   5   8
ENDBRANCH   1   2
BRANCH   1  18
ATOM     17  C   UNL     1      51.478   9.541  12.901  0.00  0.00    +0.000 C 
ATOM     18  N   UNL     1      50.068   9.352  13.225  0.00  0.00    +0.000 N 
ATOM     19  C   UNL     1      49.238   9.010  12.140  0.00  0.00    +0.000 C 
ATOM     20  O   UNL     1      49.699   8.901  11.005  0.00  0.00    +0.000 OA
BRANCH  19  21
ATOM     21  C   UNL     1      47.792   8.810  12.359  0.00  0.00    +0.000 A 
ATOM     22  C   UNL     1      46.820   9.774  12.163  0.00  0.00    +0.000 A 
ATOM     23  S   UNL     1      45.234   9.234  12.471  0.00  0.00    +0.000 S 
ATOM     24  C   UNL     1      45.777   7.649  12.718  0.00  0.00    +0.000 A 
ATOM     25  N   UNL     1      44.881   6.641  12.926  0.00  0.00    +0.000 NA
ATOM     26  C   UNL     1      45.426   5.477  13.045  0.00  0.00    +0.000 A 
ATOM     27  N   UNL     1      46.777   5.233  13.011  0.00  0.00    +0.000 N 
ATOM     28  C   UNL     1      47.721   6.232  12.929  0.00  0.00    +0.000 A 
ATOM     29  O   UNL     1      48.907   6.000  13.132  0.00  0.00    +0.000 OA
ATOM     30  C   UNL     1      47.155   7.550  12.674  0.00  0.00    +0.000 A 
ATOM     31  H   UNL     1      47.137   4.305  13.185  0.00  0.00    +0.000 HD
ENDBRANCH  19  21
ENDBRANCH   1  18
TORSDOF 7
ENDMDL
MODEL 9
REMARK VINA RESULT:    -5.379      3.367      9.087
REMARK INTER + INTRA:          -8.876
REMARK INTER:                  -7.693
REMARK INTRA:                  -1.183
REMARK UNBOUND:                -1.453
REMARK  Name = 
REMARK  8 active torsions:
REMARK  status: ('A' for Active; 'I' for Inactive)
REMARK    1  A    between atoms: C_1  and  N_2
REMARK    2  A    between atoms: N_2  and  C_3
REMARK    3  A    between atoms: C_3  and  C_4
REMARK    4  A    between atoms: C_7  and  C_8
REMARK    5  A    between atoms: C_8  and  O_9
REMARK    6  A    between atoms: C_8  and  C_10
REMARK    7  A    between atoms: C_10  and  N_11
REMARK    8  A    between atoms: C_18  and  C_20
REMARK                            x       y       z     vdW  Elec       q    Type
REMARK                         _______ _______ _______ _____ _____    ______ ____
ROOT
ATOM      1  C   UNL     1      48.730   5.597  16.276  0.00  0.00    +0.000 C 
ENDROOT
BRANCH   1   2
ATOM      2  C   UNL     1      47.907   5.500  15.022  0.00  0.00    +0.000 A 
ATOM      3  C   UNL     1      47.099   4.379  14.790  0.00  0.00    +0.000 A 
ATOM      4  C   UNL     1      46.303   4.305  13.648  0.00  0.00    +0.000 A 
ATOM      5  C   UNL     1      46.265   5.371  12.738  0.00  0.00    +0.000 A 
ATOM      6  C   UNL     1      47.107   6.475  12.958  0.00  0.00    +0.000 A 
ATOM      7  C   UNL     1      47.926   6.535  14.084  0.00  0.00    +0.000 A 
BRANCH   5   8
ATOM      8  C   UNL     1      45.278   5.337  11.579  0.00  0.00    +0.000 C 
BRANCH   8   9
ATOM      9  O   UNL     1      44.103   6.073  11.921  0.00  0.00    +0.000 OA
ATOM     10  H   UNL     1      44.181   6.964  11.543  0.00  0.00    +0.000 HD
ENDBRANCH   8   9
BRANCH   8  11
ATOM     11  C   UNL     1      44.945   3.863  11.188  0.00  0.00    +0.000 C 
BRANCH  11  12
ATOM     12  N   UNL     1      44.412   3.526   9.855  0.00  0.00    +0.000 NA
ATOM     13  C   UNL     1      44.551   2.122   9.475  0.00  0.00    +0.000 C 
ATOM     14  C   UNL     1      45.773   2.065   8.581  0.00  0.00    +0.000 C 
ATOM     15  C   UNL     1      45.712   3.381   7.832  0.00  0.00    +0.000 C 
ATOM     16  C   UNL     1      44.971   4.332   8.764  0.00  0.00    +0.000 C 
ENDBRANCH  11  12
ENDBRANCH   8  11
ENDBRANCH   5   8
ENDBRANCH   1   2
BRANCH   1  18
ATOM     17  C   UNL     1      47.337   5.016  18.318  0.00  0.00    +0.000 C 
ATOM     18  N   UNL     1      48.062   5.994  17.515  0.00  0.00    +0.000 N 
ATOM     19  C   UNL     1      48.125   7.295  18.054  0.00  0.00    +0.000 C 
ATOM     20  O   UNL     1      47.581   7.558  19.125  0.00  0.00    +0.000 OA
BRANCH  19  21
ATOM     21  C   UNL     1      48.824   8.361  17.312  0.00  0.00    +0.000 A 
ATOM     22  C   UNL     1      48.207   9.303  16.510  0.00  0.00    +0.000 A 
ATOM     23  S   UNL     1      49.279  10.427  15.807  0.00  0.00    +0.000 S 
ATOM     24  C   UNL     1      50.583   9.792  16.682  0.00  0.00    +0.000 A 
ATOM     25  N   UNL     1      51.810  10.387  16.615  0.00  0.00    +0.000 NA
ATOM     26  C   UNL     1      52.698   9.835  17.372  0.00  0.00    +0.000 A 
ATOM     27  N   UNL     1      52.485   8.730  18.158  0.00  0.00    +0.000 N 
ATOM     28  C   UNL     1      51.302   8.024  18.162  0.00  0.00    +0.000 A 
ATOM     29  O   UNL     1      51.225   6.923  18.693  0.00  0.00    +0.000 OA
ATOM     30  C   UNL     1      50.233   8.674  17.416  0.00  0.00    +0.000 A 
ATOM     31  H   UNL     1      53.247   8.307  18.669  0.00  0.00    +0.000 HD
ENDBRANCH  19  21
ENDBRANCH   1  18
TORSDOF 7
ENDMDL
