MODEL 1
REMARK VINA RESULT:    -7.596      0.000      0.000
REMARK INTER + INTRA:         -10.607
REMARK INTER:                 -10.038
REMARK INTRA:                  -0.569
REMARK UNBOUND:                -0.569
REMARK  Name = 
REMARK  6 active torsions:
REMARK  status: ('A' for Active; 'I' for Inactive)
REMARK    1  A    between atoms: C_2  and  C_18
REMARK    2  A    between atoms: N_3  and  C_4
REMARK    3  A    between atoms: C_4  and  C_5
REMARK    4  A    between atoms: C_8  and  C_9
REMARK    5  A    between atoms: C_9  and  N_10
REMARK    6  A    between atoms: C_13  and  O_14
REMARK                            x       y       z     vdW  Elec       q    Type
REMARK                         _______ _______ _______ _____ _____    ______ ____
ROOT
ATOM      1  O   UNL     1      48.156   6.964  12.849  0.00  0.00    +0.000 OA
ATOM      2  C   UNL     1      47.582   6.582  13.863  0.00  0.00    +0.000 C 
ATOM      3  N   UNL     1      46.231   6.353  13.925  0.00  0.00    +0.000 N 
ATOM      4  H   UNL     1      45.787   6.240  14.830  0.00  0.00    +0.000 HD
ENDROOT
BRANCH   2   5
ATOM      5  C   UNL     1      48.314   6.299  15.093  0.00  0.00    +0.000 A 
ATOM      6  C   UNL     1      49.239   7.195  15.609  0.00  0.00    +0.000 A 
ATOM      7  S   UNL     1      49.950   6.655  17.067  0.00  0.00    +0.000 S 
ATOM      8  C   UNL     1      49.017   5.231  17.061  0.00  0.00    +0.000 A 
ATOM      9  N   UNL     1      49.113   4.315  18.063  0.00  0.00    +0.000 NA
ATOM     10  C   UNL     1      48.317   3.302  17.933  0.00  0.00    +0.000 A 
ATOM     11  N   UNL     1      47.445   3.127  16.895  0.00  0.00    +0.000 N 
ATOM     12  C   UNL     1      47.378   3.959  15.829  0.00  0.00    +0.000 A 
ATOM     13  O   UNL     1      46.719   3.657  14.833  0.00  0.00    +0.000 OA
ATOM     14  C   UNL     1      48.207   5.152  15.949  0.00  0.00    +0.000 A 
ATOM     15  H   UNL     1      46.893   2.281  16.816  0.00  0.00    +0.000 HD
ENDBRANCH   2   5
BRANCH   3  16
ATOM     16  C   UNL     1      45.340   6.694  12.856  0.00  0.00    +0.000 C 
BRANCH  16  17
ATOM     17  C   UNL     1      45.356   5.669  11.751  0.00  0.00    +0.000 A 
ATOM     18  C   UNL     1      44.990   4.352  12.042  0.00  0.00    +0.000 A 
ATOM     19  C   UNL     1      44.961   3.379  11.044  0.00  0.00    +0.000 A 
ATOM     20  C   UNL     1      45.305   3.690   9.720  0.00  0.00    +0.000 A 
ATOM     21  C   UNL     1      45.685   5.010   9.430  0.00  0.00    +0.000 A 
ATOM     22  C   UNL     1      45.723   5.987  10.436  0.00  0.00    +0.000 A 
BRANCH  20  23
ATOM     23  C   UNL     1      45.311   2.618   8.641  0.00  0.00    +0.000 C 
BRANCH  23  24
ATOM     24  N   UNL     1      46.468   2.651   7.730  0.00  0.00    +0.000 NA
ATOM     25  C   UNL     1      46.263   3.499   6.551  0.00  0.00    +0.000 C 
ATOM     26  C   UNL     1      46.720   2.724   5.322  0.00  0.00    +0.000 C 
ATOM     27  C   UNL     1      47.414   1.491   5.861  0.00  0.00    +0.000 C 
ATOM     28  C   UNL     1      46.839   1.301   7.265  0.00  0.00    +0.000 C 
BRANCH  27  29
ATOM     29  O   UNL     1      48.820   1.722   5.915  0.00  0.00    +0.000 OA
ATOM     30  H   UNL     1      48.933   2.673   6.097  0.00  0.00    +0.000 HD
ENDBRANCH  27  29
ENDBRANCH  23  24
ENDBRANCH  20  23
ENDBRANCH  16  17
ENDBRANCH   3  16
TORSDOF 6
ENDMDL
MODEL 2
REMARK VINA RESULT:    -7.481      4.225      9.217
REMARK INTER + INTRA:         -10.455
REMARK INTER:                  -9.821
REMARK INTRA:                  -0.634
REMARK UNBOUND:                -0.569
REMARK  Name = 
REMARK  6 active torsions:
REMARK  status: ('A' for Active; 'I' for Inactive)
REMARK    1  A    between atoms: C_2  and  C_18
REMARK    2  A    between atoms: N_3  and  C_4
REMARK    3  A    between atoms: C_4  and  C_5
REMARK    4  A    between atoms: C_8  and  C_9
REMARK    5  A    between atoms: C_9  and  N_10
REMARK    6  A    between atoms: C_13  and  O_14
REMARK                            x       y       z     vdW  Elec       q    Type
REMARK                         _______ _______ _______ _____ _____    ______ ____
ROOT
ATOM      1  O   UNL     1      47.141   3.129  14.014  0.00  0.00    +0.000 OA
ATOM      2  C   UNL     1      46.821   4.216  14.482  0.00  0.00    +0.000 C 
ATOM      3  N   UNL     1      46.873   4.507  15.821  0.00  0.00    +0.000 N 
ATOM      4  H   UNL     1      46.408   5.339  16.168  0.00  0.00    +0.000 HD
ENDROOT
BRANCH   2   5
ATOM      5  C   UNL     1      46.389   5.317  13.627  0.00  0.00    +0.000 A 
ATOM      6  C   UNL     1      47.211   6.408  13.379  0.00  0.00    +0.000 A 
ATOM      7  S   UNL     1      46.497   7.557  12.332  0.00  0.00    +0.000 S 
ATOM      8  C   UNL     1      45.092   6.611  12.161  0.00  0.00    +0.000 A 
ATOM      9  N   UNL     1      44.064   7.005  11.361  0.00  0.00    +0.000 NA
ATOM     10  C   UNL     1      43.080   6.165  11.308  0.00  0.00    +0.000 A 
ATOM     11  N   UNL     1      43.036   4.977  11.983  0.00  0.00    +0.000 N 
ATOM     12  C   UNL     1      43.988   4.583  12.861  0.00  0.00    +0.000 A 
ATOM     13  O   UNL     1      43.811   3.603  13.587  0.00  0.00    +0.000 OA
ATOM     14  C   UNL     1      45.151   5.459  12.917  0.00  0.00    +0.000 A 
ATOM     15  H   UNL     1      42.210   4.391  11.952  0.00  0.00    +0.000 HD
ENDBRANCH   2   5
BRANCH   3  16
ATOM     16  C   UNL     1      47.153   3.514  16.816  0.00  0.00    +0.000 C 
BRANCH  16  17
ATOM     17  C   UNL     1      48.632   3.350  17.059  0.00  0.00    +0.000 A 
ATOM     18  C   UNL     1      49.371   4.448  17.509  0.00  0.00    +0.000 A 
ATOM     19  C   UNL     1      50.735   4.333  17.775  0.00  0.00    +0.000 A 
ATOM     20  C   UNL     1      51.408   3.115  17.593  0.00  0.00    +0.000 A 
ATOM     21  C   UNL     1      50.668   2.016  17.129  0.00  0.00    +0.000 A 
ATOM     22  C   UNL     1      49.298   2.134  16.851  0.00  0.00    +0.000 A 
BRANCH  20  23
ATOM     23  C   UNL     1      52.903   3.003  17.846  0.00  0.00    +0.000 C 
BRANCH  23  24
ATOM     24  N   UNL     1      53.309   1.892  18.724  0.00  0.00    +0.000 NA
ATOM     25  C   UNL     1      54.306   2.273  19.730  0.00  0.00    +0.000 C 
ATOM     26  C   UNL     1      55.405   1.218  19.736  0.00  0.00    +0.000 C 
ATOM     27  C   UNL     1      54.884   0.094  18.864  0.00  0.00    +0.000 C 
ATOM     28  C   UNL     1      53.845   0.752  17.956  0.00  0.00    +0.000 C 
BRANCH  27  29
ATOM     29  O   UNL     1      54.282  -0.904  19.684  0.00  0.00    +0.000 OA
ATOM     30  H   UNL     1      54.585  -1.763  19.336  0.00  0.00    +0.000 HD
ENDBRANCH  27  29
ENDBRANCH  23  24
ENDBRANCH  20  23
ENDBRANCH  16  17
ENDBRANCH   3  16
TORSDOF 6
ENDMDL
MODEL 3
REMARK VINA RESULT:    -7.354      3.353      4.161
REMARK INTER + INTRA:         -10.287
REMARK INTER:                  -9.181
REMARK INTRA:                  -1.105
REMARK UNBOUND:                -0.569
REMARK  Name = 
REMARK  6 active torsions:
REMARK  status: ('A' for Active; 'I' for Inactive)
REMARK    1  A    between atoms: C_2  and  C_18
REMARK    2  A    between atoms: N_3  and  C_4
REMARK    3  A    between atoms: C_4  and  C_5
REMARK    4  A    between atoms: C_8  and  C_9
REMARK    5  A    between atoms: C_9  and  N_10
REMARK    6  A    between atoms: C_13  and  O_14
REMARK                            x       y       z     vdW  Elec       q    Type
REMARK                         _______ _______ _______ _____ _____    ______ ____
ROOT
ATOM      1  O   UNL     1      48.403   8.624  15.931  0.00  0.00    +0.000 OA
ATOM      2  C   UNL     1      48.880   7.550  15.581  0.00  0.00    +0.000 C 
ATOM      3  N   UNL     1      49.168   7.241  14.277  0.00  0.00    +0.000 N 
ATOM      4  H   UNL     1      49.363   6.278  14.025  0.00  0.00    +0.000 HD
ENDROOT
BRANCH   2   5
ATOM      5  C   UNL     1      49.219   6.513  16.551  0.00  0.00    +0.000 A 
ATOM      6  C   UNL     1      50.219   6.703  17.495  0.00  0.00    +0.000 A 
ATOM      7  S   UNL     1      50.418   5.360  18.535  0.00  0.00    +0.000 S 
ATOM      8  C   UNL     1      49.156   4.510  17.771  0.00  0.00    +0.000 A 
ATOM      9  N   UNL     1      48.776   3.274  18.194  0.00  0.00    +0.000 NA
ATOM     10  C   UNL     1      47.781   2.771  17.534  0.00  0.00    +0.000 A 
ATOM     11  N   UNL     1      47.143   3.391  16.497  0.00  0.00    +0.000 N 
ATOM     12  C   UNL     1      47.541   4.578  15.980  0.00  0.00    +0.000 A 
ATOM     13  O   UNL     1      47.059   5.001  14.928  0.00  0.00    +0.000 OA
ATOM     14  C   UNL     1      48.618   5.222  16.720  0.00  0.00    +0.000 A 
ATOM     15  H   UNL     1      46.412   2.919  15.979  0.00  0.00    +0.000 HD
ENDBRANCH   2   5
BRANCH   3  16
ATOM     16  C   UNL     1      48.789   8.084  13.182  0.00  0.00    +0.000 C 
BRANCH  16  17
ATOM     17  C   UNL     1      47.414   7.755  12.657  0.00  0.00    +0.000 A 
ATOM     18  C   UNL     1      47.266   6.693  11.761  0.00  0.00    +0.000 A 
ATOM     19  C   UNL     1      46.009   6.335  11.275  0.00  0.00    +0.000 A 
ATOM     20  C   UNL     1      44.857   7.035  11.664  0.00  0.00    +0.000 A 
ATOM     21  C   UNL     1      45.007   8.109  12.555  0.00  0.00    +0.000 A 
ATOM     22  C   UNL     1      46.273   8.476  13.036  0.00  0.00    +0.000 A 
BRANCH  20  23
ATOM     23  C   UNL     1      43.493   6.668  11.102  0.00  0.00    +0.000 C 
BRANCH  23  24
ATOM     24  N   UNL     1      43.010   5.322  11.454  0.00  0.00    +0.000 NA
ATOM     25  C   UNL     1      43.105   5.019  12.887  0.00  0.00    +0.000 C 
ATOM     26  C   UNL     1      43.718   3.634  13.041  0.00  0.00    +0.000 C 
ATOM     27  C   UNL     1      43.752   3.054  11.642  0.00  0.00    +0.000 C 
ATOM     28  C   UNL     1      43.729   4.268  10.714  0.00  0.00    +0.000 C 
BRANCH  27  29
ATOM     29  O   UNL     1      42.604   2.236  11.438  0.00  0.00    +0.000 OA
ATOM     30  H   UNL     1      41.984   2.451  12.158  0.00  0.00    +0.000 HD
ENDBRANCH  27  29
ENDBRANCH  23  24
ENDBRANCH  20  23
ENDBRANCH  16  17
ENDBRANCH   3  16
TORSDOF 6
ENDMDL
MODEL 4
REMARK VINA RESULT:    -7.237      2.006      3.345
REMARK INTER + INTRA:         -10.133
REMARK INTER:                  -9.661
REMARK INTRA:                  -0.472
REMARK UNBOUND:                -0.569
REMARK  Name = 
REMARK  6 active torsions:
REMARK  status: ('A' for Active; 'I' for Inactive)
REMARK    1  A    between atoms: C_2  and  C_18
REMARK    2  A    between atoms: N_3  and  C_4
REMARK    3  A    between atoms: C_4  and  C_5
REMARK    4  A    between atoms: C_8  and  C_9
REMARK    5  A    between atoms: C_9  and  N_10
REMARK    6  A    between atoms: C_13  and  O_14
REMARK                            x       y       z     vdW  Elec       q    Type
REMARK                         _______ _______ _______ _____ _____    ______ ____
ROOT
ATOM      1  O   UNL     1      46.639   4.899  14.501  0.00  0.00    +0.000 OA
ATOM      2  C   UNL     1      46.899   6.022  14.083  0.00  0.00    +0.000 C 
ATOM      3  N   UNL     1      45.998   6.804  13.408  0.00  0.00    +0.000 N 
ATOM      4  H   UNL     1      46.325   7.627  12.913  0.00  0.00    +0.000 HD
ENDROOT
BRANCH   2   5
ATOM      5  C   UNL     1      48.202   6.638  14.313  0.00  0.00    +0.000 A 
ATOM      6  C   UNL     1      48.791   6.643  15.569  0.00  0.00    +0.000 A 
ATOM      7  S   UNL     1      50.323   7.402  15.585  0.00  0.00    +0.000 S 
ATOM      8  C   UNL     1      50.250   7.711  13.913  0.00  0.00    +0.000 A 
ATOM      9  N   UNL     1      51.274   8.325  13.259  0.00  0.00    +0.000 NA
ATOM     10  C   UNL     1      51.085   8.460  11.985  0.00  0.00    +0.000 A 
ATOM     11  N   UNL     1      49.968   8.042  11.317  0.00  0.00    +0.000 N 
ATOM     12  C   UNL     1      48.885   7.512  11.933  0.00  0.00    +0.000 A 
ATOM     13  O   UNL     1      47.834   7.331  11.317  0.00  0.00    +0.000 OA
ATOM     14  C   UNL     1      49.064   7.277  13.360  0.00  0.00    +0.000 A 
ATOM     15  H   UNL     1      49.850   8.234  10.329  0.00  0.00    +0.000 HD
ENDBRANCH   2   5
BRANCH   3  16
ATOM     16  C   UNL     1      44.717   6.317  12.986  0.00  0.00    +0.000 C 
BRANCH  16  17
ATOM     17  C   UNL     1      44.831   5.287  11.892  0.00  0.00    +0.000 A 
ATOM     18  C   UNL     1      45.263   5.688  10.625  0.00  0.00    +0.000 A 
ATOM     19  C   UNL     1      45.411   4.762   9.592  0.00  0.00    +0.000 A 
ATOM     20  C   UNL     1      45.124   3.403   9.791  0.00  0.00    +0.000 A 
ATOM     21  C   UNL     1      44.679   3.003  11.061  0.00  0.00    +0.000 A 
ATOM     22  C   UNL     1      44.520   3.936  12.097  0.00  0.00    +0.000 A 
BRANCH  20  23
ATOM     23  C   UNL     1      45.249   2.403   8.653  0.00  0.00    +0.000 C 
BRANCH  23  24
ATOM     24  N   UNL     1      46.447   2.557   7.811  0.00  0.00    +0.000 NA
ATOM     25  C   UNL     1      46.259   3.474   6.682  0.00  0.00    +0.000 C 
ATOM     26  C   UNL     1      46.819   2.811   5.431  0.00  0.00    +0.000 C 
ATOM     27  C   UNL     1      47.549   1.579   5.923  0.00  0.00    +0.000 C 
ATOM     28  C   UNL     1      46.913   1.263   7.277  0.00  0.00    +0.000 C 
BRANCH  27  29
ATOM     29  O   UNL     1      48.935   1.874   6.069  0.00  0.00    +0.000 OA
ATOM     30  H   UNL     1      49.403   1.021   6.012  0.00  0.00    +0.000 HD
ENDBRANCH  27  29
ENDBRANCH  23  24
ENDBRANCH  20  23
ENDBRANCH  16  17
ENDBRANCH   3  16
TORSDOF 6
ENDMDL
MODEL 5
REMARK VINA RESULT:    -6.968      4.357      7.292
REMARK INTER + INTRA:          -9.777
REMARK INTER:                  -8.961
REMARK INTRA:                  -0.816
REMARK UNBOUND:                -0.569
REMARK  Name = 
REMARK  6 active torsions:
REMARK  status: ('A' for Active; 'I' for Inactive)
REMARK    1  A    between atoms: C_2  and  C_18
REMARK    2  A    between atoms: N_3  and  C_4
REMARK    3  A    between atoms: C_4  and  C_5
REMARK    4  A    between atoms: C_8  and  C_9
REMARK    5  A    between atoms: C_9  and  N_10
REMARK    6  A    between atoms: C_13  and  O_14
REMARK                            x       y       z     vdW  Elec       q    Type
REMARK                         _______ _______ _______ _____ _____    ______ ____
ROOT
ATOM      1  O   UNL     1      44.033   7.506  11.074  0.00  0.00    +0.000 OA
ATOM      2  C   UNL     1      44.602   6.630  11.716  0.00  0.00    +0.000 C 
ATOM      3  N   UNL     1      45.497   6.890  12.722  0.00  0.00    +0.000 N 
ATOM      4  H   UNL     1      46.083   6.140  13.073  0.00  0.00    +0.000 HD
ENDROOT
BRANCH   2   5
ATOM      5  C   UNL     1      44.335   5.215  11.478  0.00  0.00    +0.000 A 
ATOM      6  C   UNL     1      43.578   4.461  12.364  0.00  0.00    +0.000 A 
ATOM      7  S   UNL     1      43.383   2.838  11.861  0.00  0.00    +0.000 S 
ATOM      8  C   UNL     1      44.274   3.113  10.437  0.00  0.00    +0.000 A 
ATOM      9  N   UNL     1      44.469   2.126   9.521  0.00  0.00    +0.000 NA
ATOM     10  C   UNL     1      45.138   2.497   8.475  0.00  0.00    +0.000 A 
ATOM     11  N   UNL     1      45.626   3.758   8.273  0.00  0.00    +0.000 N 
ATOM     12  C   UNL     1      45.538   4.748   9.192  0.00  0.00    +0.000 A 
ATOM     13  O   UNL     1      46.159   5.802   9.046  0.00  0.00    +0.000 OA
ATOM     14  C   UNL     1      44.742   4.407  10.364  0.00  0.00    +0.000 A 
ATOM     15  H   UNL     1      46.197   3.971   7.464  0.00  0.00    +0.000 HD
ENDBRANCH   2   5
BRANCH   3  16
ATOM     16  C   UNL     1      45.972   8.211  13.010  0.00  0.00    +0.000 C 
BRANCH  16  17
ATOM     17  C   UNL     1      47.371   8.439  12.495  0.00  0.00    +0.000 A 
ATOM     18  C   UNL     1      48.260   7.362  12.450  0.00  0.00    +0.000 A 
ATOM     19  C   UNL     1      49.554   7.521  11.953  0.00  0.00    +0.000 A 
ATOM     20  C   UNL     1      50.003   8.768  11.491  0.00  0.00    +0.000 A 
ATOM     21  C   UNL     1      49.113   9.852  11.548  0.00  0.00    +0.000 A 
ATOM     22  C   UNL     1      47.815   9.694  12.057  0.00  0.00    +0.000 A 
BRANCH  20  23
ATOM     23  C   UNL     1      51.426   8.948  10.987  0.00  0.00    +0.000 C 
BRANCH  23  24
ATOM     24  N   UNL     1      52.282   7.753  11.084  0.00  0.00    +0.000 NA
ATOM     25  C   UNL     1      53.646   8.043  11.539  0.00  0.00    +0.000 C 
ATOM     26  C   UNL     1      54.619   7.308  10.628  0.00  0.00    +0.000 C 
ATOM     27  C   UNL     1      53.759   6.395   9.778  0.00  0.00    +0.000 C 
ATOM     28  C   UNL     1      52.371   7.034   9.799  0.00  0.00    +0.000 C 
BRANCH  27  29
ATOM     29  O   UNL     1      53.728   5.094  10.359  0.00  0.00    +0.000 OA
ATOM     30  H   UNL     1      54.644   4.891  10.623  0.00  0.00    +0.000 HD
ENDBRANCH  27  29
ENDBRANCH  23  24
ENDBRANCH  20  23
ENDBRANCH  16  17
ENDBRANCH   3  16
TORSDOF 6
ENDMDL
MODEL 6
REMARK VINA RESULT:    -6.799      2.027      2.905
REMARK INTER + INTRA:          -9.553
REMARK INTER:                  -8.824
REMARK INTRA:                  -0.729
REMARK UNBOUND:                -0.569
REMARK  Name = 
REMARK  6 active torsions:
REMARK  status: ('A' for Active; 'I' for Inactive)
REMARK    1  A    between atoms: C_2  and  C_18
REMARK    2  A    between atoms: N_3  and  C_4
REMARK    3  A    between atoms: C_4  and  C_5
REMARK    4  A    between atoms: C_8  and  C_9
REMARK    5  A    between atoms: C_9  and  N_10
REMARK    6  A    between atoms: C_13  and  O_14
REMARK                            x       y       z     vdW  Elec       q    Type
REMARK                         _______ _______ _______ _____ _____    ______ ____
ROOT
ATOM      1  O   UNL     1      49.976   7.180  14.692  0.00  0.00    +0.000 OA
ATOM      2  C   UNL     1      49.170   7.443  15.577  0.00  0.00    +0.000 C 
ATOM      3  N   UNL     1      47.979   8.084  15.349  0.00  0.00    +0.000 N 
ATOM      4  H   UNL     1      47.455   8.454  16.134  0.00  0.00    +0.000 HD
ENDROOT
BRANCH   2   5
ATOM      5  C   UNL     1      49.404   7.050  16.964  0.00  0.00    +0.000 A 
ATOM      6  C   UNL     1      50.002   7.914  17.870  0.00  0.00    +0.000 A 
ATOM      7  S   UNL     1      50.150   7.241  19.435  0.00  0.00    +0.000 S 
ATOM      8  C   UNL     1      49.390   5.797  18.947  0.00  0.00    +0.000 A 
ATOM      9  N   UNL     1      49.167   4.782  19.825  0.00  0.00    +0.000 NA
ATOM     10  C   UNL     1      48.551   3.764  19.312  0.00  0.00    +0.000 A 
ATOM     11  N   UNL     1      48.148   3.675  18.009  0.00  0.00    +0.000 N 
ATOM     12  C   UNL     1      48.427   4.617  17.077  0.00  0.00    +0.000 A 
ATOM     13  O   UNL     1      48.215   4.404  15.882  0.00  0.00    +0.000 OA
ATOM     14  C   UNL     1      49.065   5.814  17.608  0.00  0.00    +0.000 A 
ATOM     15  H   UNL     1      47.727   2.826  17.651  0.00  0.00    +0.000 HD
ENDBRANCH   2   5
BRANCH   3  16
ATOM     16  C   UNL     1      47.639   8.650  14.077  0.00  0.00    +0.000 C 
BRANCH  16  17
ATOM     17  C   UNL     1      46.798   7.718  13.243  0.00  0.00    +0.000 A 
ATOM     18  C   UNL     1      45.694   8.232  12.557  0.00  0.00    +0.000 A 
ATOM     19  C   UNL     1      44.906   7.411  11.750  0.00  0.00    +0.000 A 
ATOM     20  C   UNL     1      45.194   6.044  11.609  0.00  0.00    +0.000 A 
ATOM     21  C   UNL     1      46.296   5.527  12.308  0.00  0.00    +0.000 A 
ATOM     22  C   UNL     1      47.082   6.350  13.128  0.00  0.00    +0.000 A 
BRANCH  20  23
ATOM     23  C   UNL     1      44.311   5.144  10.760  0.00  0.00    +0.000 C 
BRANCH  23  24
ATOM     24  N   UNL     1      45.016   4.069  10.042  0.00  0.00    +0.000 NA
ATOM     25  C   UNL     1      45.396   4.427   8.672  0.00  0.00    +0.000 C 
ATOM     26  C   UNL     1      45.007   3.277   7.753  0.00  0.00    +0.000 C 
ATOM     27  C   UNL     1      44.606   2.145   8.676  0.00  0.00    +0.000 C 
ATOM     28  C   UNL     1      44.217   2.829   9.987  0.00  0.00    +0.000 C 
BRANCH  27  29
ATOM     29  O   UNL     1      45.716   1.272   8.868  0.00  0.00    +0.000 OA
ATOM     30  H   UNL     1      46.166   1.210   8.006  0.00  0.00    +0.000 HD
ENDBRANCH  27  29
ENDBRANCH  23  24
ENDBRANCH  20  23
ENDBRANCH  16  17
ENDBRANCH   3  16
TORSDOF 6
ENDMDL
MODEL 7
REMARK VINA RESULT:    -6.782      2.794      3.898
REMARK INTER + INTRA:          -9.532
REMARK INTER:                  -8.869
REMARK INTRA:                  -0.663
REMARK UNBOUND:                -0.569
REMARK  Name = 
REMARK  6 active torsions:
REMARK  status: ('A' for Active; 'I' for Inactive)
REMARK    1  A    between atoms: C_2  and  C_18
REMARK    2  A    between atoms: N_3  and  C_4
REMARK    3  A    between atoms: C_4  and  C_5
REMARK    4  A    between atoms: C_8  and  C_9
REMARK    5  A    between atoms: C_9  and  N_10
REMARK    6  A    between atoms: C_13  and  O_14
REMARK                            x       y       z     vdW  Elec       q    Type
REMARK                         _______ _______ _______ _____ _____    ______ ____
ROOT
ATOM      1  O   UNL     1      50.371   6.222  15.956  0.00  0.00    +0.000 OA
ATOM      2  C   UNL     1      49.194   6.261  16.293  0.00  0.00    +0.000 C 
ATOM      3  N   UNL     1      48.154   6.331  15.402  0.00  0.00    +0.000 N 
ATOM      4  H   UNL     1      47.226   6.566  15.738  0.00  0.00    +0.000 HD
ENDROOT
BRANCH   2   5
ATOM      5  C   UNL     1      48.800   6.194  17.698  0.00  0.00    +0.000 A 
ATOM      6  C   UNL     1      48.935   5.026  18.434  0.00  0.00    +0.000 A 
ATOM      7  S   UNL     1      48.430   5.198  20.058  0.00  0.00    +0.000 S 
ATOM      8  C   UNL     1      48.051   6.842  19.825  0.00  0.00    +0.000 A 
ATOM      9  N   UNL     1      47.583   7.613  20.843  0.00  0.00    +0.000 NA
ATOM     10  C   UNL     1      47.372   8.849  20.518  0.00  0.00    +0.000 A 
ATOM     11  N   UNL     1      47.583   9.372  19.273  0.00  0.00    +0.000 N 
ATOM     12  C   UNL     1      47.958   8.628  18.206  0.00  0.00    +0.000 A 
ATOM     13  O   UNL     1      47.947   9.104  17.070  0.00  0.00    +0.000 OA
ATOM     14  C   UNL     1      48.270   7.241  18.524  0.00  0.00    +0.000 A 
ATOM     15  H   UNL     1      47.338  10.333  19.064  0.00  0.00    +0.000 HD
ENDBRANCH   2   5
BRANCH   3  16
ATOM     16  C   UNL     1      48.354   6.529  13.997  0.00  0.00    +0.000 C 
BRANCH  16  17
ATOM     17  C   UNL     1      47.168   6.078  13.182  0.00  0.00    +0.000 A 
ATOM     18  C   UNL     1      46.640   6.942  12.219  0.00  0.00    +0.000 A 
ATOM     19  C   UNL     1      45.563   6.554  11.422  0.00  0.00    +0.000 A 
ATOM     20  C   UNL     1      44.974   5.289  11.568  0.00  0.00    +0.000 A 
ATOM     21  C   UNL     1      45.497   4.427  12.545  0.00  0.00    +0.000 A 
ATOM     22  C   UNL     1      46.573   4.821  13.354  0.00  0.00    +0.000 A 
BRANCH  20  23
ATOM     23  C   UNL     1      43.775   4.884  10.726  0.00  0.00    +0.000 C 
BRANCH  23  24
ATOM     24  N   UNL     1      44.093   4.118   9.508  0.00  0.00    +0.000 NA
ATOM     25  C   UNL     1      44.185   2.671   9.731  0.00  0.00    +0.000 C 
ATOM     26  C   UNL     1      45.447   2.163   9.047  0.00  0.00    +0.000 C 
ATOM     27  C   UNL     1      45.952   3.329   8.223  0.00  0.00    +0.000 C 
ATOM     28  C   UNL     1      45.354   4.568   8.890  0.00  0.00    +0.000 C 
BRANCH  27  29
ATOM     29  O   UNL     1      45.488   3.200   6.882  0.00  0.00    +0.000 OA
ATOM     30  H   UNL     1      46.231   3.465   6.309  0.00  0.00    +0.000 HD
ENDBRANCH  27  29
ENDBRANCH  23  24
ENDBRANCH  20  23
ENDBRANCH  16  17
ENDBRANCH   3  16
TORSDOF 6
ENDMDL
MODEL 8
REMARK VINA RESULT:    -6.630      1.820      2.381
REMARK INTER + INTRA:          -9.330
REMARK INTER:                  -8.698
REMARK INTRA:                  -0.632
REMARK UNBOUND:                -0.569
REMARK  Name = 
REMARK  6 active torsions:
REMARK  status: ('A' for Active; 'I' for Inactive)
REMARK    1  A    between atoms: C_2  and  C_18
REMARK    2  A    between atoms: N_3  and  C_4
REMARK    3  A    between atoms: C_4  and  C_5
REMARK    4  A    between atoms: C_8  and  C_9
REMARK    5  A    between atoms: C_9  and  N_10
REMARK    6  A    between atoms: C_13  and  O_14
REMARK                            x       y       z     vdW  Elec       q    Type
REMARK                         _______ _______ _______ _____ _____    ______ ____
ROOT
ATOM      1  O   UNL     1      48.190   8.591  15.995  0.00  0.00    +0.000 OA
ATOM      2  C   UNL     1      48.555   7.541  15.477  0.00  0.00    +0.000 C 
ATOM      3  N   UNL     1      48.125   7.116  14.246  0.00  0.00    +0.000 N 
ATOM      4  H   UNL     1      48.296   6.157  13.963  0.00  0.00    +0.000 HD
ENDROOT
BRANCH   2   5
ATOM      5  C   UNL     1      49.524   6.666  16.129  0.00  0.00    +0.000 A 
ATOM      6  C   UNL     1      50.837   7.065  16.336  0.00  0.00    +0.000 A 
ATOM      7  S   UNL     1      51.776   5.882  17.137  0.00  0.00    +0.000 S 
ATOM      8  C   UNL     1      50.446   4.824  17.253  0.00  0.00    +0.000 A 
ATOM      9  N   UNL     1      50.553   3.614  17.866  0.00  0.00    +0.000 NA
ATOM     10  C   UNL     1      49.449   2.939  17.904  0.00  0.00    +0.000 A 
ATOM     11  N   UNL     1      48.259   3.366  17.382  0.00  0.00    +0.000 N 
ATOM     12  C   UNL     1      48.122   4.517  16.683  0.00  0.00    +0.000 A 
ATOM     13  O   UNL     1      47.083   4.762  16.069  0.00  0.00    +0.000 OA
ATOM     14  C   UNL     1      49.318   5.349  16.660  0.00  0.00    +0.000 A 
ATOM     15  H   UNL     1      47.444   2.764  17.386  0.00  0.00    +0.000 HD
ENDBRANCH   2   5
BRANCH   3  16
ATOM     16  C   UNL     1      47.084   7.782  13.520  0.00  0.00    +0.000 C 
BRANCH  16  17
ATOM     17  C   UNL     1      46.206   6.816  12.766  0.00  0.00    +0.000 A 
ATOM     18  C   UNL     1      46.480   5.448  12.844  0.00  0.00    +0.000 A 
ATOM     19  C   UNL     1      45.676   4.517  12.187  0.00  0.00    +0.000 A 
ATOM     20  C   UNL     1      44.572   4.926  11.423  0.00  0.00    +0.000 A 
ATOM     21  C   UNL     1      44.304   6.301  11.335  0.00  0.00    +0.000 A 
ATOM     22  C   UNL     1      45.120   7.239  11.988  0.00  0.00    +0.000 A 
BRANCH  20  23
ATOM     23  C   UNL     1      43.721   3.912  10.676  0.00  0.00    +0.000 C 
BRANCH  23  24
ATOM     24  N   UNL     1      44.207   3.552   9.333  0.00  0.00    +0.000 NA
ATOM     25  C   UNL     1      44.555   2.134   9.195  0.00  0.00    +0.000 C 
ATOM     26  C   UNL     1      45.908   2.041   8.501  0.00  0.00    +0.000 C 
ATOM     27  C   UNL     1      46.214   3.448   8.032  0.00  0.00    +0.000 C 
ATOM     28  C   UNL     1      45.382   4.353   8.940  0.00  0.00    +0.000 C 
BRANCH  27  29
ATOM     29  O   UNL     1      45.819   3.592   6.671  0.00  0.00    +0.000 OA
ATOM     30  H   UNL     1      45.698   2.689   6.325  0.00  0.00    +0.000 HD
ENDBRANCH  27  29
ENDBRANCH  23  24
ENDBRANCH  20  23
ENDBRANCH  16  17
ENDBRANCH   3  16
TORSDOF 6
ENDMDL
MODEL 9
REMARK VINA RESULT:    -6.280      4.111      8.233
REMARK INTER + INTRA:          -8.867
REMARK INTER:                  -7.910
REMARK INTRA:                  -0.957
REMARK UNBOUND:                -0.569
REMARK  Name = 
REMARK  6 active torsions:
REMARK  status: ('A' for Active; 'I' for Inactive)
REMARK    1  A    between atoms: C_2  and  C_18
REMARK    2  A    between atoms: N_3  and  C_4
REMARK    3  A    between atoms: C_4  and  C_5
REMARK    4  A    between atoms: C_8  and  C_9
REMARK    5  A    between atoms: C_9  and  N_10
REMARK    6  A    between atoms: C_13  and  O_14
REMARK                            x       y       z     vdW  Elec       q    Type
REMARK                         _______ _______ _______ _____ _____    ______ ____
ROOT
ATOM      1  O   UNL     1      47.867   8.314  11.843  0.00  0.00    +0.000 OA
ATOM      2  C   UNL     1      46.971   8.041  12.634  0.00  0.00    +0.000 C 
ATOM      3  N   UNL     1      46.920   8.527  13.915  0.00  0.00    +0.000 N 
ATOM      4  H   UNL     1      46.278   8.110  14.580  0.00  0.00    +0.000 HD
ENDROOT
BRANCH   2   5
ATOM      5  C   UNL     1      45.847   7.193  12.250  0.00  0.00    +0.000 A 
ATOM      6  C   UNL     1      44.772   7.695  11.531  0.00  0.00    +0.000 A 
ATOM      7  S   UNL     1      43.591   6.509  11.180  0.00  0.00    +0.000 S 
ATOM      8  C   UNL     1      44.502   5.294  11.950  0.00  0.00    +0.000 A 
ATOM      9  N   UNL     1      44.072   4.004  11.991  0.00  0.00    +0.000 NA
ATOM     10  C   UNL     1      44.889   3.191  12.583  0.00  0.00    +0.000 A 
ATOM     11  N   UNL     1      46.086   3.556  13.133  0.00  0.00    +0.000 N 
ATOM     12  C   UNL     1      46.515   4.838  13.200  0.00  0.00    +0.000 A 
ATOM     13  O   UNL     1      47.501   5.139  13.873  0.00  0.00    +0.000 OA
ATOM     14  C   UNL     1      45.666   5.791  12.496  0.00  0.00    +0.000 A 
ATOM     15  H   UNL     1      46.652   2.885  13.639  0.00  0.00    +0.000 HD
ENDBRANCH   2   5
BRANCH   3  16
ATOM     16  C   UNL     1      47.996   9.271  14.502  0.00  0.00    +0.000 C 
BRANCH  16  17
ATOM     17  C   UNL     1      48.783   8.451  15.493  0.00  0.00    +0.000 A 
ATOM     18  C   UNL     1      48.620   8.700  16.859  0.00  0.00    +0.000 A 
ATOM     19  C   UNL     1      49.304   7.946  17.811  0.00  0.00    +0.000 A 
ATOM     20  C   UNL     1      50.182   6.920  17.428  0.00  0.00    +0.000 A 
ATOM     21  C   UNL     1      50.354   6.679  16.056  0.00  0.00    +0.000 A 
ATOM     22  C   UNL     1      49.673   7.444  15.097  0.00  0.00    +0.000 A 
BRANCH  20  23
ATOM     23  C   UNL     1      50.956   6.126  18.467  0.00  0.00    +0.000 C 
BRANCH  23  24
ATOM     24  N   UNL     1      50.364   4.829  18.836  0.00  0.00    +0.000 NA
ATOM     25  C   UNL     1      50.658   3.755  17.880  0.00  0.00    +0.000 C 
ATOM     26  C   UNL     1      49.362   3.012  17.585  0.00  0.00    +0.000 C 
ATOM     27  C   UNL     1      48.359   3.545  18.586  0.00  0.00    +0.000 C 
ATOM     28  C   UNL     1      48.900   4.917  18.990  0.00  0.00    +0.000 C 
BRANCH  27  29
ATOM     29  O   UNL     1      48.297   2.672  19.711  0.00  0.00    +0.000 OA
ATOM     30  H   UNL     1      48.953   1.970  19.547  0.00  0.00    +0.000 HD
ENDBRANCH  27  29
ENDBRANCH  23  24
ENDBRANCH  20  23
ENDBRANCH  16  17
ENDBRANCH   3  16
TORSDOF 6
ENDMDL
