MODEL 1
REMARK VINA RESULT:    -7.513      0.000      0.000
REMARK INTER + INTRA:         -12.059
REMARK INTER:                 -11.027
REMARK INTRA:                  -1.032
REMARK UNBOUND:                -1.032
REMARK  Name = 
REMARK  9 active torsions:
REMARK  status: ('A' for Active; 'I' for Inactive)
REMARK    1  A    between atoms: C_1  and  O_2
REMARK    2  A    between atoms: O_2  and  C_3
REMARK    3  A    between atoms: C_10  and  C_11
REMARK    4  A    between atoms: N_13  and  C_14
REMARK    5  A    between atoms: C_14  and  C_15
REMARK    6  A    between atoms: C_18  and  C_19
REMARK    7  A    between atoms: C_19  and  S_20
REMARK    8  A    between atoms: S_20  and  C_21
REMARK    9  A    between atoms: C_21  and  C_22
REMARK                            x       y       z     vdW  Elec       q    Type
REMARK                         _______ _______ _______ _____ _____    ______ ____
ROOT
ATOM      1  C   UNL     1      47.849   7.883  13.448  0.00  0.00    +0.000 C 
ENDROOT
BRANCH   1   2
ATOM      2  C   UNL     1      46.743   7.006  12.922  0.00  0.00    +0.000 A 
ATOM      3  C   UNL     1      46.753   5.625  13.158  0.00  0.00    +0.000 A 
ATOM      4  C   UNL     1      45.737   4.809  12.651  0.00  0.00    +0.000 A 
ATOM      5  C   UNL     1      44.688   5.355  11.900  0.00  0.00    +0.000 A 
ATOM      6  C   UNL     1      44.702   6.731  11.636  0.00  0.00    +0.000 A 
ATOM      7  C   UNL     1      45.717   7.549  12.140  0.00  0.00    +0.000 A 
BRANCH   5   8
ATOM      8  C   UNL     1      43.580   4.488  11.352  0.00  0.00    +0.000 C 
BRANCH   8   9
ATOM      9  S   UNL     1      44.151   3.052  10.387  0.00  0.00    +0.000 S 
BRANCH   9  10
ATOM     10  C   UNL     1      44.630   3.869   8.822  0.00  0.00    +0.000 C 
BRANCH  10  11
ATOM     11  C   UNL     1      45.633   3.098   7.999  0.00  0.00    +0.000 A 
ATOM     12  N   UNL     1      45.925   1.835   8.372  0.00  0.00    +0.000 NA
ATOM     13  C   UNL     1      46.836   1.181   7.625  0.00  0.00    +0.000 A 
ATOM     14  C   UNL     1      47.461   1.733   6.534  0.00  0.00    +0.000 A 
ATOM     15  C   UNL     1      47.095   3.022   6.232  0.00  0.00    +0.000 A 
ATOM     16  N   UNL     1      46.191   3.721   6.941  0.00  0.00    +0.000 NA
ENDBRANCH  10  11
ENDBRANCH   9  10
ENDBRANCH   8   9
ENDBRANCH   5   8
ENDBRANCH   1   2
BRANCH   1  19
ATOM     17  C   UNL     1      48.921   7.211  15.555  0.00  0.00    +0.000 C 
ATOM     18  O   UNL     1      49.842   6.668  14.946  0.00  0.00    +0.000 OA
ATOM     19  N   UNL     1      47.901   7.830  14.888  0.00  0.00    +0.000 N 
ATOM     20  H   UNL     1      47.131   8.240  15.398  0.00  0.00    +0.000 HD
BRANCH  17  28
ATOM     21  C   UNL     1      48.832   4.727  17.944  0.00  0.00    +0.000 A 
ATOM     22  N   UNL     1      48.811   3.980  19.067  0.00  0.00    +0.000 NA
ATOM     23  C   UNL     1      48.777   4.612  20.242  0.00  0.00    +0.000 A 
ATOM     24  N   UNL     1      48.761   5.926  20.444  0.00  0.00    +0.000 NA
ATOM     25  C   UNL     1      48.794   6.634  19.302  0.00  0.00    +0.000 A 
ATOM     26  S   UNL     1      48.775   8.331  19.370  0.00  0.00    +0.000 S 
ATOM     27  C   UNL     1      48.834   8.448  17.677  0.00  0.00    +0.000 A 
ATOM     28  C   UNL     1      48.872   7.219  17.027  0.00  0.00    +0.000 A 
ATOM     29  C   UNL     1      48.840   6.133  18.005  0.00  0.00    +0.000 A 
BRANCH  21  31
ATOM     30  C   UNL     1      47.607   3.739  16.213  0.00  0.00    +0.000 C 
ATOM     31  O   UNL     1      48.893   4.073  16.732  0.00  0.00    +0.000 OA
ENDBRANCH  21  31
ENDBRANCH  17  28
ENDBRANCH   1  19
TORSDOF 8
ENDMDL
MODEL 2
REMARK VINA RESULT:    -7.415      2.350      3.019
REMARK INTER + INTRA:         -11.915
REMARK INTER:                 -11.001
REMARK INTRA:                  -0.914
REMARK UNBOUND:                -1.032
REMARK  Name = 
REMARK  9 active torsions:
REMARK  status: ('A' for Active; 'I' for Inactive)
REMARK    1  A    between atoms: C_1  and  O_2
REMARK    2  A    between atoms: O_2  and  C_3
REMARK    3  A    between atoms: C_10  and  C_11
REMARK    4  A    between atoms: N_13  and  C_14
REMARK    5  A    between atoms: C_14  and  C_15
REMARK    6  A    between atoms: C_18  and  C_19
REMARK    7  A    between atoms: C_19  and  S_20
REMARK    8  A    between atoms: S_20  and  C_21
REMARK    9  A    between atoms: C_21  and  C_22
REMARK                            x       y       z     vdW  Elec       q    Type
REMARK                         _______ _______ _______ _____ _____    ______ ____
ROOT
ATOM      1  C   UNL     1      48.653   7.162  15.114  0.00  0.00    +0.000 C 
ENDROOT
BRANCH   1   2
ATOM      2  C   UNL     1      47.738   6.330  14.254  0.00  0.00    +0.000 A 
ATOM      3  C   UNL     1      47.348   6.777  12.986  0.00  0.00    +0.000 A 
ATOM      4  C   UNL     1      46.482   6.014  12.197  0.00  0.00    +0.000 A 
ATOM      5  C   UNL     1      45.989   4.786  12.658  0.00  0.00    +0.000 A 
ATOM      6  C   UNL     1      46.354   4.361  13.942  0.00  0.00    +0.000 A 
ATOM      7  C   UNL     1      47.218   5.123  14.733  0.00  0.00    +0.000 A 
BRANCH   5   8
ATOM      8  C   UNL     1      45.059   3.947  11.815  0.00  0.00    +0.000 C 
BRANCH   8   9
ATOM      9  S   UNL     1      44.817   4.559  10.116  0.00  0.00    +0.000 S 
BRANCH   9  10
ATOM     10  C   UNL     1      44.490   2.988   9.239  0.00  0.00    +0.000 C 
BRANCH  10  11
ATOM     11  C   UNL     1      45.603   2.545   8.320  0.00  0.00    +0.000 A 
ATOM     12  N   UNL     1      46.128   3.454   7.472  0.00  0.00    +0.000 NA
ATOM     13  C   UNL     1      47.108   3.021   6.656  0.00  0.00    +0.000 A 
ATOM     14  C   UNL     1      47.579   1.731   6.652  0.00  0.00    +0.000 A 
ATOM     15  C   UNL     1      46.985   0.881   7.552  0.00  0.00    +0.000 A 
ATOM     16  N   UNL     1      46.005   1.259   8.391  0.00  0.00    +0.000 NA
ENDBRANCH  10  11
ENDBRANCH   9  10
ENDBRANCH   8   9
ENDBRANCH   5   8
ENDBRANCH   1   2
BRANCH   1  19
ATOM     17  C   UNL     1      49.706   5.993  17.003  0.00  0.00    +0.000 C 
ATOM     18  O   UNL     1      48.812   6.360  17.765  0.00  0.00    +0.000 OA
ATOM     19  N   UNL     1      49.699   6.348  15.683  0.00  0.00    +0.000 N 
ATOM     20  H   UNL     1      50.458   6.073  15.075  0.00  0.00    +0.000 HD
BRANCH  17  28
ATOM     21  C   UNL     1      50.283   2.595  17.049  0.00  0.00    +0.000 A 
ATOM     22  N   UNL     1      50.769   1.344  17.174  0.00  0.00    +0.000 NA
ATOM     23  C   UNL     1      51.975   1.190  17.727  0.00  0.00    +0.000 A 
ATOM     24  N   UNL     1      52.774   2.150  18.182  0.00  0.00    +0.000 NA
ATOM     25  C   UNL     1      52.258   3.381  18.030  0.00  0.00    +0.000 A 
ATOM     26  S   UNL     1      53.142   4.730  18.561  0.00  0.00    +0.000 S 
ATOM     27  C   UNL     1      51.918   5.793  18.054  0.00  0.00    +0.000 A 
ATOM     28  C   UNL     1      50.825   5.159  17.475  0.00  0.00    +0.000 A 
ATOM     29  C   UNL     1      51.028   3.712  17.468  0.00  0.00    +0.000 A 
BRANCH  21  31
ATOM     30  C   UNL     1      47.977   2.789  17.394  0.00  0.00    +0.000 C 
ATOM     31  O   UNL     1      49.048   2.753  16.454  0.00  0.00    +0.000 OA
ENDBRANCH  21  31
ENDBRANCH  17  28
ENDBRANCH   1  19
TORSDOF 8
ENDMDL
MODEL 3
REMARK VINA RESULT:    -7.225      1.807      3.009
REMARK INTER + INTRA:         -11.637
REMARK INTER:                 -10.651
REMARK INTRA:                  -0.986
REMARK UNBOUND:                -1.032
REMARK  Name = 
REMARK  9 active torsions:
REMARK  status: ('A' for Active; 'I' for Inactive)
REMARK    1  A    between atoms: C_1  and  O_2
REMARK    2  A    between atoms: O_2  and  C_3
REMARK    3  A    between atoms: C_10  and  C_11
REMARK    4  A    between atoms: N_13  and  C_14
REMARK    5  A    between atoms: C_14  and  C_15
REMARK    6  A    between atoms: C_18  and  C_19
REMARK    7  A    between atoms: C_19  and  S_20
REMARK    8  A    between atoms: S_20  and  C_21
REMARK    9  A    between atoms: C_21  and  C_22
REMARK                            x       y       z     vdW  Elec       q    Type
REMARK                         _______ _______ _______ _____ _____    ______ ____
ROOT
ATOM      1  C   UNL     1      48.603   6.579  14.262  0.00  0.00    +0.000 C 
ENDROOT
BRANCH   1   2
ATOM      2  C   UNL     1      47.409   6.051  13.510  0.00  0.00    +0.000 A 
ATOM      3  C   UNL     1      46.956   6.690  12.349  0.00  0.00    +0.000 A 
ATOM      4  C   UNL     1      45.835   6.212  11.664  0.00  0.00    +0.000 A 
ATOM      5  C   UNL     1      45.144   5.082  12.122  0.00  0.00    +0.000 A 
ATOM      6  C   UNL     1      45.579   4.468  13.304  0.00  0.00    +0.000 A 
ATOM      7  C   UNL     1      46.698   4.946  13.992  0.00  0.00    +0.000 A 
BRANCH   5   8
ATOM      8  C   UNL     1      43.936   4.550  11.390  0.00  0.00    +0.000 C 
BRANCH   8   9
ATOM      9  S   UNL     1      44.166   4.352   9.594  0.00  0.00    +0.000 S 
BRANCH   9  10
ATOM     10  C   UNL     1      44.636   2.587   9.509  0.00  0.00    +0.000 C 
BRANCH  10  11
ATOM     11  C   UNL     1      45.695   2.273   8.480  0.00  0.00    +0.000 A 
ATOM     12  N   UNL     1      46.187   3.291   7.744  0.00  0.00    +0.000 NA
ATOM     13  C   UNL     1      47.118   2.973   6.824  0.00  0.00    +0.000 A 
ATOM     14  C   UNL     1      47.572   1.695   6.611  0.00  0.00    +0.000 A 
ATOM     15  C   UNL     1      47.014   0.729   7.412  0.00  0.00    +0.000 A 
ATOM     16  N   UNL     1      46.083   0.988   8.346  0.00  0.00    +0.000 NA
ENDBRANCH  10  11
ENDBRANCH   9  10
ENDBRANCH   8   9
ENDBRANCH   5   8
ENDBRANCH   1   2
BRANCH   1  19
ATOM     17  C   UNL     1      48.777   6.149  16.676  0.00  0.00    +0.000 C 
ATOM     18  O   UNL     1      49.566   5.225  16.482  0.00  0.00    +0.000 OA
ATOM     19  N   UNL     1      48.257   6.863  15.633  0.00  0.00    +0.000 N 
ATOM     20  H   UNL     1      47.581   7.595  15.801  0.00  0.00    +0.000 HD
BRANCH  17  28
ATOM     21  C   UNL     1      47.859   9.134  18.135  0.00  0.00    +0.000 A 
ATOM     22  N   UNL     1      47.449  10.134  18.940  0.00  0.00    +0.000 NA
ATOM     23  C   UNL     1      47.165   9.842  20.212  0.00  0.00    +0.000 A 
ATOM     24  N   UNL     1      47.241   8.649  20.794  0.00  0.00    +0.000 NA
ATOM     25  C   UNL     1      47.643   7.679  19.956  0.00  0.00    +0.000 A 
ATOM     26  S   UNL     1      47.802   6.090  20.533  0.00  0.00    +0.000 S 
ATOM     27  C   UNL     1      48.299   5.534  19.007  0.00  0.00    +0.000 A 
ATOM     28  C   UNL     1      48.354   6.527  18.035  0.00  0.00    +0.000 A 
ATOM     29  C   UNL     1      47.967   7.814  18.610  0.00  0.00    +0.000 A 
BRANCH  21  31
ATOM     30  C   UNL     1      48.812  10.674  16.654  0.00  0.00    +0.000 C 
ATOM     31  O   UNL     1      48.127   9.434  16.815  0.00  0.00    +0.000 OA
ENDBRANCH  21  31
ENDBRANCH  17  28
ENDBRANCH   1  19
TORSDOF 8
ENDMDL
MODEL 4
REMARK VINA RESULT:    -7.127      1.444      1.889
REMARK INTER + INTRA:         -11.493
REMARK INTER:                 -10.523
REMARK INTRA:                  -0.969
REMARK UNBOUND:                -1.032
REMARK  Name = 
REMARK  9 active torsions:
REMARK  status: ('A' for Active; 'I' for Inactive)
REMARK    1  A    between atoms: C_1  and  O_2
REMARK    2  A    between atoms: O_2  and  C_3
REMARK    3  A    between atoms: C_10  and  C_11
REMARK    4  A    between atoms: N_13  and  C_14
REMARK    5  A    between atoms: C_14  and  C_15
REMARK    6  A    between atoms: C_18  and  C_19
REMARK    7  A    between atoms: C_19  and  S_20
REMARK    8  A    between atoms: S_20  and  C_21
REMARK    9  A    between atoms: C_21  and  C_22
REMARK                            x       y       z     vdW  Elec       q    Type
REMARK                         _______ _______ _______ _____ _____    ______ ____
ROOT
ATOM      1  C   UNL     1      47.713   8.748  13.774  0.00  0.00    +0.000 C 
ENDROOT
BRANCH   1   2
ATOM      2  C   UNL     1      47.032   7.504  13.267  0.00  0.00    +0.000 A 
ATOM      3  C   UNL     1      45.895   7.593  12.454  0.00  0.00    +0.000 A 
ATOM      4  C   UNL     1      45.251   6.437  12.001  0.00  0.00    +0.000 A 
ATOM      5  C   UNL     1      45.731   5.168  12.349  0.00  0.00    +0.000 A 
ATOM      6  C   UNL     1      46.847   5.084  13.193  0.00  0.00    +0.000 A 
ATOM      7  C   UNL     1      47.491   6.238  13.648  0.00  0.00    +0.000 A 
BRANCH   5   8
ATOM      8  C   UNL     1      45.050   3.911  11.863  0.00  0.00    +0.000 C 
BRANCH   8   9
ATOM      9  S   UNL     1      44.254   4.063  10.232  0.00  0.00    +0.000 S 
BRANCH   9  10
ATOM     10  C   UNL     1      44.534   2.383   9.565  0.00  0.00    +0.000 C 
BRANCH  10  11
ATOM     11  C   UNL     1      45.582   2.311   8.481  0.00  0.00    +0.000 A 
ATOM     12  N   UNL     1      46.209   1.133   8.281  0.00  0.00    +0.000 NA
ATOM     13  C   UNL     1      47.150   1.108   7.317  0.00  0.00    +0.000 A 
ATOM     14  C   UNL     1      47.486   2.200   6.555  0.00  0.00    +0.000 A 
ATOM     15  C   UNL     1      46.791   3.351   6.830  0.00  0.00    +0.000 A 
ATOM     16  N   UNL     1      45.841   3.433   7.779  0.00  0.00    +0.000 NA
ENDBRANCH  10  11
ENDBRANCH   9  10
ENDBRANCH   8   9
ENDBRANCH   5   8
ENDBRANCH   1   2
BRANCH   1  19
ATOM     17  C   UNL     1      48.509   8.771  16.100  0.00  0.00    +0.000 C 
ATOM     18  O   UNL     1      49.654   8.503  15.740  0.00  0.00    +0.000 OA
ATOM     19  N   UNL     1      47.497   8.907  15.191  0.00  0.00    +0.000 N 
ATOM     20  H   UNL     1      46.553   9.090  15.501  0.00  0.00    +0.000 HD
BRANCH  17  28
ATOM     21  C   UNL     1      47.979   6.594  18.719  0.00  0.00    +0.000 A 
ATOM     22  N   UNL     1      47.746   5.988  19.901  0.00  0.00    +0.000 NA
ATOM     23  C   UNL     1      47.477   6.756  20.960  0.00  0.00    +0.000 A 
ATOM     24  N   UNL     1      47.409   8.084  20.987  0.00  0.00    +0.000 NA
ATOM     25  C   UNL     1      47.657   8.649  19.794  0.00  0.00    +0.000 A 
ATOM     26  S   UNL     1      47.608  10.340  19.643  0.00  0.00    +0.000 S 
ATOM     27  C   UNL     1      47.996  10.252  17.992  0.00  0.00    +0.000 A 
ATOM     28  C   UNL     1      48.172   8.956  17.522  0.00  0.00    +0.000 A 
ATOM     29  C   UNL     1      47.961   7.996  18.603  0.00  0.00    +0.000 A 
BRANCH  21  31
ATOM     30  C   UNL     1      49.665   5.456  17.563  0.00  0.00    +0.000 C 
ATOM     31  O   UNL     1      48.282   5.800  17.633  0.00  0.00    +0.000 OA
ENDBRANCH  21  31
ENDBRANCH  17  28
ENDBRANCH   1  19
TORSDOF 8
ENDMDL
MODEL 5
REMARK VINA RESULT:    -6.755      3.682      5.497
REMARK INTER + INTRA:         -10.947
REMARK INTER:                  -9.505
REMARK INTRA:                  -1.442
REMARK UNBOUND:                -1.032
REMARK  Name = 
REMARK  9 active torsions:
REMARK  status: ('A' for Active; 'I' for Inactive)
REMARK    1  A    between atoms: C_1  and  O_2
REMARK    2  A    between atoms: O_2  and  C_3
REMARK    3  A    between atoms: C_10  and  C_11
REMARK    4  A    between atoms: N_13  and  C_14
REMARK    5  A    between atoms: C_14  and  C_15
REMARK    6  A    between atoms: C_18  and  C_19
REMARK    7  A    between atoms: C_19  and  S_20
REMARK    8  A    between atoms: S_20  and  C_21
REMARK    9  A    between atoms: C_21  and  C_22
REMARK                            x       y       z     vdW  Elec       q    Type
REMARK                         _______ _______ _______ _____ _____    ______ ____
ROOT
ATOM      1  C   UNL     1      47.877   3.359  17.438  0.00  0.00    +0.000 C 
ENDROOT
BRANCH   1   2
ATOM      2  C   UNL     1      47.725   4.215  16.208  0.00  0.00    +0.000 A 
ATOM      3  C   UNL     1      47.088   3.717  15.065  0.00  0.00    +0.000 A 
ATOM      4  C   UNL     1      46.966   4.506  13.917  0.00  0.00    +0.000 A 
ATOM      5  C   UNL     1      47.477   5.811  13.888  0.00  0.00    +0.000 A 
ATOM      6  C   UNL     1      48.145   6.291  15.022  0.00  0.00    +0.000 A 
ATOM      7  C   UNL     1      48.269   5.504  16.170  0.00  0.00    +0.000 A 
BRANCH   5   8
ATOM      8  C   UNL     1      47.348   6.677  12.658  0.00  0.00    +0.000 C 
BRANCH   8   9
ATOM      9  S   UNL     1      45.980   7.879  12.718  0.00  0.00    +0.000 S 
BRANCH   9  10
ATOM     10  C   UNL     1      44.878   7.196  11.428  0.00  0.00    +0.000 C 
BRANCH  10  11
ATOM     11  C   UNL     1      44.383   5.797  11.709  0.00  0.00    +0.000 A 
ATOM     12  N   UNL     1      43.686   5.586  12.844  0.00  0.00    +0.000 NA
ATOM     13  C   UNL     1      43.273   4.323  13.071  0.00  0.00    +0.000 A 
ATOM     14  C   UNL     1      43.528   3.276  12.220  0.00  0.00    +0.000 A 
ATOM     15  C   UNL     1      44.242   3.591  11.090  0.00  0.00    +0.000 A 
ATOM     16  N   UNL     1      44.677   4.833  10.812  0.00  0.00    +0.000 NA
ENDBRANCH  10  11
ENDBRANCH   9  10
ENDBRANCH   8   9
ENDBRANCH   5   8
ENDBRANCH   1   2
BRANCH   1  19
ATOM     17  C   UNL     1      50.054   2.284  17.054  0.00  0.00    +0.000 C 
ATOM     18  O   UNL     1      49.595   1.624  16.122  0.00  0.00    +0.000 OA
ATOM     19  N   UNL     1      49.270   3.159  17.753  0.00  0.00    +0.000 N 
ATOM     20  H   UNL     1      49.648   3.667  18.540  0.00  0.00    +0.000 HD
BRANCH  17  28
ATOM     21  C   UNL     1      52.549   4.573  17.702  0.00  0.00    +0.000 A 
ATOM     22  N   UNL     1      53.680   5.230  18.027  0.00  0.00    +0.000 NA
ATOM     23  C   UNL     1      54.753   4.509  18.362  0.00  0.00    +0.000 A 
ATOM     24  N   UNL     1      54.841   3.183  18.412  0.00  0.00    +0.000 NA
ATOM     25  C   UNL     1      53.691   2.567  18.092  0.00  0.00    +0.000 A 
ATOM     26  S   UNL     1      53.623   0.870  18.099  0.00  0.00    +0.000 S 
ATOM     27  C   UNL     1      51.990   0.885  17.631  0.00  0.00    +0.000 A 
ATOM     28  C   UNL     1      51.463   2.161  17.463  0.00  0.00    +0.000 A 
ATOM     29  C   UNL     1      52.488   3.168  17.733  0.00  0.00    +0.000 A 
BRANCH  21  31
ATOM     30  C   UNL     1      51.738   6.456  16.575  0.00  0.00    +0.000 C 
ATOM     31  O   UNL     1      51.434   5.320  17.383  0.00  0.00    +0.000 OA
ENDBRANCH  21  31
ENDBRANCH  17  28
ENDBRANCH   1  19
TORSDOF 8
ENDMDL
MODEL 6
REMARK VINA RESULT:    -6.748      4.945      9.479
REMARK INTER + INTRA:         -10.935
REMARK INTER:                 -10.056
REMARK INTRA:                  -0.879
REMARK UNBOUND:                -1.032
REMARK  Name = 
REMARK  9 active torsions:
REMARK  status: ('A' for Active; 'I' for Inactive)
REMARK    1  A    between atoms: C_1  and  O_2
REMARK    2  A    between atoms: O_2  and  C_3
REMARK    3  A    between atoms: C_10  and  C_11
REMARK    4  A    between atoms: N_13  and  C_14
REMARK    5  A    between atoms: C_14  and  C_15
REMARK    6  A    between atoms: C_18  and  C_19
REMARK    7  A    between atoms: C_19  and  S_20
REMARK    8  A    between atoms: S_20  and  C_21
REMARK    9  A    between atoms: C_21  and  C_22
REMARK                            x       y       z     vdW  Elec       q    Type
REMARK                         _______ _______ _______ _____ _____    ______ ____
ROOT
ATOM      1  C   UNL     1      47.272   3.447  16.788  0.00  0.00    +0.000 C 
ENDROOT
BRANCH   1   2
ATOM      2  C   UNL     1      48.745   3.555  17.085  0.00  0.00    +0.000 A 
ATOM      3  C   UNL     1      49.349   4.805  17.261  0.00  0.00    +0.000 A 
ATOM      4  C   UNL     1      50.720   4.905  17.516  0.00  0.00    +0.000 A 
ATOM      5  C   UNL     1      51.517   3.755  17.604  0.00  0.00    +0.000 A 
ATOM      6  C   UNL     1      50.914   2.508  17.391  0.00  0.00    +0.000 A 
ATOM      7  C   UNL     1      49.544   2.407  17.134  0.00  0.00    +0.000 A 
BRANCH   5   8
ATOM      8  C   UNL     1      52.997   3.846  17.885  0.00  0.00    +0.000 C 
BRANCH   8   9
ATOM      9  S   UNL     1      53.671   2.458  18.854  0.00  0.00    +0.000 S 
BRANCH   9  10
ATOM     10  C   UNL     1      54.512   1.508  17.537  0.00  0.00    +0.000 C 
BRANCH  10  11
ATOM     11  C   UNL     1      54.551   0.017  17.775  0.00  0.00    +0.000 A 
ATOM     12  N   UNL     1      54.183  -0.443  18.988  0.00  0.00    +0.000 NA
ATOM     13  C   UNL     1      54.245  -1.777  19.170  0.00  0.00    +0.000 A 
ATOM     14  C   UNL     1      54.658  -2.658  18.201  0.00  0.00    +0.000 A 
ATOM     15  C   UNL     1      55.009  -2.094  16.999  0.00  0.00    +0.000 A 
ATOM     16  N   UNL     1      54.965  -0.771  16.761  0.00  0.00    +0.000 NA
ENDBRANCH  10  11
ENDBRANCH   9  10
ENDBRANCH   8   9
ENDBRANCH   5   8
ENDBRANCH   1   2
BRANCH   1  19
ATOM     17  C   UNL     1      46.875   4.241  14.495  0.00  0.00    +0.000 C 
ATOM     18  O   UNL     1      47.234   3.161  14.029  0.00  0.00    +0.000 OA
ATOM     19  N   UNL     1      46.866   4.460  15.845  0.00  0.00    +0.000 N 
ATOM     20  H   UNL     1      46.605   5.364  16.215  0.00  0.00    +0.000 HD
BRANCH  17  28
ATOM     21  C   UNL     1      44.006   4.856  12.684  0.00  0.00    +0.000 A 
ATOM     22  N   UNL     1      43.015   5.351  11.916  0.00  0.00    +0.000 NA
ATOM     23  C   UNL     1      43.208   6.533  11.326  0.00  0.00    +0.000 A 
ATOM     24  N   UNL     1      44.291   7.300  11.407  0.00  0.00    +0.000 NA
ATOM     25  C   UNL     1      45.250   6.776  12.189  0.00  0.00    +0.000 A 
ATOM     26  S   UNL     1      46.708   7.620  12.402  0.00  0.00    +0.000 S 
ATOM     27  C   UNL     1      47.317   6.407  13.423  0.00  0.00    +0.000 A 
ATOM     28  C   UNL     1      46.440   5.348  13.627  0.00  0.00    +0.000 A 
ATOM     29  C   UNL     1      45.203   5.569  12.879  0.00  0.00    +0.000 A 
BRANCH  21  31
ATOM     30  C   UNL     1      43.634   2.563  12.401  0.00  0.00    +0.000 C 
ATOM     31  O   UNL     1      43.795   3.647  13.314  0.00  0.00    +0.000 OA
ENDBRANCH  21  31
ENDBRANCH  17  28
ENDBRANCH   1  19
TORSDOF 8
ENDMDL
MODEL 7
REMARK VINA RESULT:    -6.603      1.946      2.918
REMARK INTER + INTRA:         -10.723
REMARK INTER:                  -9.618
REMARK INTRA:                  -1.105
REMARK UNBOUND:                -1.032
REMARK  Name = 
REMARK  9 active torsions:
REMARK  status: ('A' for Active; 'I' for Inactive)
REMARK    1  A    between atoms: C_1  and  O_2
REMARK    2  A    between atoms: O_2  and  C_3
REMARK    3  A    between atoms: C_10  and  C_11
REMARK    4  A    between atoms: N_13  and  C_14
REMARK    5  A    between atoms: C_14  and  C_15
REMARK    6  A    between atoms: C_18  and  C_19
REMARK    7  A    between atoms: C_19  and  S_20
REMARK    8  A    between atoms: S_20  and  C_21
REMARK    9  A    between atoms: C_21  and  C_22
REMARK                            x       y       z     vdW  Elec       q    Type
REMARK                         _______ _______ _______ _____ _____    ______ ____
ROOT
ATOM      1  C   UNL     1      47.924   4.962  15.098  0.00  0.00    +0.000 C 
ENDROOT
BRANCH   1   2
ATOM      2  C   UNL     1      46.811   4.767  14.101  0.00  0.00    +0.000 A 
ATOM      3  C   UNL     1      46.547   3.501  13.565  0.00  0.00    +0.000 A 
ATOM      4  C   UNL     1      45.527   3.325  12.624  0.00  0.00    +0.000 A 
ATOM      5  C   UNL     1      44.748   4.410  12.202  0.00  0.00    +0.000 A 
ATOM      6  C   UNL     1      45.040   5.681  12.715  0.00  0.00    +0.000 A 
ATOM      7  C   UNL     1      46.060   5.860  13.654  0.00  0.00    +0.000 A 
BRANCH   5   8
ATOM      8  C   UNL     1      43.639   4.235  11.193  0.00  0.00    +0.000 C 
BRANCH   8   9
ATOM      9  S   UNL     1      44.180   4.304   9.454  0.00  0.00    +0.000 S 
BRANCH   9  10
ATOM     10  C   UNL     1      44.602   2.548   9.165  0.00  0.00    +0.000 C 
BRANCH  10  11
ATOM     11  C   UNL     1      45.699   2.331   8.151  0.00  0.00    +0.000 A 
ATOM     12  N   UNL     1      45.957   3.320   7.271  0.00  0.00    +0.000 NA
ATOM     13  C   UNL     1      46.931   3.086   6.370  0.00  0.00    +0.000 A 
ATOM     14  C   UNL     1      47.649   1.917   6.313  0.00  0.00    +0.000 A 
ATOM     15  C   UNL     1      47.316   0.972   7.252  0.00  0.00    +0.000 A 
ATOM     16  N   UNL     1      46.355   1.151   8.175  0.00  0.00    +0.000 NA
ENDBRANCH  10  11
ENDBRANCH   9  10
ENDBRANCH   8   9
ENDBRANCH   5   8
ENDBRANCH   1   2
BRANCH   1  19
ATOM     17  C   UNL     1      49.031   7.088  15.646  0.00  0.00    +0.000 C 
ATOM     18  O   UNL     1      50.106   6.670  15.218  0.00  0.00    +0.000 OA
ATOM     19  N   UNL     1      47.910   6.306  15.622  0.00  0.00    +0.000 N 
ATOM     20  H   UNL     1      47.041   6.645  16.011  0.00  0.00    +0.000 HD
BRANCH  17  28
ATOM     21  C   UNL     1      47.715   8.334  18.579  0.00  0.00    +0.000 A 
ATOM     22  N   UNL     1      47.300   9.077  19.624  0.00  0.00    +0.000 NA
ATOM     23  C   UNL     1      47.474  10.400  19.564  0.00  0.00    +0.000 A 
ATOM     24  N   UNL     1      48.024  11.089  18.569  0.00  0.00    +0.000 NA
ATOM     25  C   UNL     1      48.434  10.312  17.553  0.00  0.00    +0.000 A 
ATOM     26  S   UNL     1      49.156  11.027  16.192  0.00  0.00    +0.000 S 
ATOM     27  C   UNL     1      49.364   9.514  15.448  0.00  0.00    +0.000 A 
ATOM     28  C   UNL     1      48.900   8.444  16.205  0.00  0.00    +0.000 A 
ATOM     29  C   UNL     1      48.335   8.927  17.464  0.00  0.00    +0.000 A 
BRANCH  21  31
ATOM     30  C   UNL     1      48.641   6.315  19.315  0.00  0.00    +0.000 C 
ATOM     31  O   UNL     1      47.558   6.966  18.654  0.00  0.00    +0.000 OA
ENDBRANCH  21  31
ENDBRANCH  17  28
ENDBRANCH   1  19
TORSDOF 8
ENDMDL
MODEL 8
REMARK VINA RESULT:    -6.068      2.573      3.033
REMARK INTER + INTRA:          -9.938
REMARK INTER:                  -9.150
REMARK INTRA:                  -0.788
REMARK UNBOUND:                -1.032
REMARK  Name = 
REMARK  9 active torsions:
REMARK  status: ('A' for Active; 'I' for Inactive)
REMARK    1  A    between atoms: C_1  and  O_2
REMARK    2  A    between atoms: O_2  and  C_3
REMARK    3  A    between atoms: C_10  and  C_11
REMARK    4  A    between atoms: N_13  and  C_14
REMARK    5  A    between atoms: C_14  and  C_15
REMARK    6  A    between atoms: C_18  and  C_19
REMARK    7  A    between atoms: C_19  and  S_20
REMARK    8  A    between atoms: S_20  and  C_21
REMARK    9  A    between atoms: C_21  and  C_22
REMARK                            x       y       z     vdW  Elec       q    Type
REMARK                         _______ _______ _______ _____ _____    ______ ____
ROOT
ATOM      1  C   UNL     1      47.203   4.618  15.999  0.00  0.00    +0.000 C 
ENDROOT
BRANCH   1   2
ATOM      2  C   UNL     1      46.798   4.741  14.553  0.00  0.00    +0.000 A 
ATOM      3  C   UNL     1      46.848   5.978  13.900  0.00  0.00    +0.000 A 
ATOM      4  C   UNL     1      46.451   6.094  12.564  0.00  0.00    +0.000 A 
ATOM      5  C   UNL     1      46.000   4.975  11.851  0.00  0.00    +0.000 A 
ATOM      6  C   UNL     1      45.919   3.747  12.521  0.00  0.00    +0.000 A 
ATOM      7  C   UNL     1      46.312   3.628  13.856  0.00  0.00    +0.000 A 
BRANCH   5   8
ATOM      8  C   UNL     1      45.575   5.083  10.407  0.00  0.00    +0.000 C 
BRANCH   8   9
ATOM      9  S   UNL     1      43.946   4.356  10.040  0.00  0.00    +0.000 S 
BRANCH   9  10
ATOM     10  C   UNL     1      44.425   2.630   9.674  0.00  0.00    +0.000 C 
BRANCH  10  11
ATOM     11  C   UNL     1      45.384   2.482   8.517  0.00  0.00    +0.000 A 
ATOM     12  N   UNL     1      46.143   1.369   8.459  0.00  0.00    +0.000 NA
ATOM     13  C   UNL     1      46.999   1.277   7.422  0.00  0.00    +0.000 A 
ATOM     14  C   UNL     1      47.128   2.243   6.455  0.00  0.00    +0.000 A 
ATOM     15  C   UNL     1      46.311   3.337   6.599  0.00  0.00    +0.000 A 
ATOM     16  N   UNL     1      45.437   3.481   7.611  0.00  0.00    +0.000 NA
ENDBRANCH  10  11
ENDBRANCH   9  10
ENDBRANCH   8   9
ENDBRANCH   5   8
ENDBRANCH   1   2
BRANCH   1  19
ATOM     17  C   UNL     1      49.041   5.957  16.935  0.00  0.00    +0.000 C 
ATOM     18  O   UNL     1      48.245   6.689  17.522  0.00  0.00    +0.000 OA
ATOM     19  N   UNL     1      48.605   4.915  16.164  0.00  0.00    +0.000 N 
ATOM     20  H   UNL     1      49.266   4.345  15.655  0.00  0.00    +0.000 HD
BRANCH  17  28
ATOM     21  C   UNL     1      51.706   3.872  17.596  0.00  0.00    +0.000 A 
ATOM     22  N   UNL     1      52.907   3.297  17.802  0.00  0.00    +0.000 NA
ATOM     23  C   UNL     1      53.993   4.072  17.749  0.00  0.00    +0.000 A 
ATOM     24  N   UNL     1      54.031   5.380  17.510  0.00  0.00    +0.000 NA
ATOM     25  C   UNL     1      52.816   5.912  17.299  0.00  0.00    +0.000 A 
ATOM     26  S   UNL     1      52.675   7.575  16.984  0.00  0.00    +0.000 S 
ATOM     27  C   UNL     1      50.986   7.455  16.846  0.00  0.00    +0.000 A 
ATOM     28  C   UNL     1      50.495   6.167  17.031  0.00  0.00    +0.000 A 
ATOM     29  C   UNL     1      51.594   5.246  17.310  0.00  0.00    +0.000 A 
BRANCH  21  31
ATOM     30  C   UNL     1      50.867   1.713  17.267  0.00  0.00    +0.000 C 
ATOM     31  O   UNL     1      50.587   3.065  17.625  0.00  0.00    +0.000 OA
ENDBRANCH  21  31
ENDBRANCH  17  28
ENDBRANCH   1  19
TORSDOF 8
ENDMDL
MODEL 9
REMARK VINA RESULT:    -6.048      1.645      3.120
REMARK INTER + INTRA:          -9.909
REMARK INTER:                  -9.128
REMARK INTRA:                  -0.780
REMARK UNBOUND:                -1.032
REMARK  Name = 
REMARK  9 active torsions:
REMARK  status: ('A' for Active; 'I' for Inactive)
REMARK    1  A    between atoms: C_1  and  O_2
REMARK    2  A    between atoms: O_2  and  C_3
REMARK    3  A    between atoms: C_10  and  C_11
REMARK    4  A    between atoms: N_13  and  C_14
REMARK    5  A    between atoms: C_14  and  C_15
REMARK    6  A    between atoms: C_18  and  C_19
REMARK    7  A    between atoms: C_19  and  S_20
REMARK    8  A    between atoms: S_20  and  C_21
REMARK    9  A    between atoms: C_21  and  C_22
REMARK                            x       y       z     vdW  Elec       q    Type
REMARK                         _______ _______ _______ _____ _____    ______ ____
ROOT
ATOM      1  C   UNL     1      47.512   4.287  15.539  0.00  0.00    +0.000 C 
ENDROOT
BRANCH   1   2
ATOM      2  C   UNL     1      46.847   4.657  14.238  0.00  0.00    +0.000 A 
ATOM      3  C   UNL     1      45.699   3.984  13.806  0.00  0.00    +0.000 A 
ATOM      4  C   UNL     1      45.095   4.313  12.589  0.00  0.00    +0.000 A 
ATOM      5  C   UNL     1      45.625   5.326  11.778  0.00  0.00    +0.000 A 
ATOM      6  C   UNL     1      46.796   5.972  12.198  0.00  0.00    +0.000 A 
ATOM      7  C   UNL     1      47.402   5.643  13.414  0.00  0.00    +0.000 A 
BRANCH   5   8
ATOM      8  C   UNL     1      44.981   5.698  10.465  0.00  0.00    +0.000 C 
BRANCH   8   9
ATOM      9  S   UNL     1      43.992   4.371   9.704  0.00  0.00    +0.000 S 
BRANCH   9  10
ATOM     10  C   UNL     1      45.199   2.996   9.732  0.00  0.00    +0.000 C 
BRANCH  10  11
ATOM     11  C   UNL     1      45.901   2.758   8.416  0.00  0.00    +0.000 A 
ATOM     12  N   UNL     1      46.392   1.525   8.172  0.00  0.00    +0.000 NA
ATOM     13  C   UNL     1      47.026   1.352   6.996  0.00  0.00    +0.000 A 
ATOM     14  C   UNL     1      47.188   2.348   6.066  0.00  0.00    +0.000 A 
ATOM     15  C   UNL     1      46.651   3.566   6.404  0.00  0.00    +0.000 A 
ATOM     16  N   UNL     1      46.007   3.796   7.561  0.00  0.00    +0.000 NA
ENDBRANCH  10  11
ENDBRANCH   9  10
ENDBRANCH   8   9
ENDBRANCH   5   8
ENDBRANCH   1   2
BRANCH   1  19
ATOM     17  C   UNL     1      48.898   5.661  17.034  0.00  0.00    +0.000 C 
ATOM     18  O   UNL     1      49.815   4.842  16.981  0.00  0.00    +0.000 OA
ATOM     19  N   UNL     1      47.731   5.459  16.351  0.00  0.00    +0.000 N 
ATOM     20  H   UNL     1      46.971   6.119  16.432  0.00  0.00    +0.000 HD
BRANCH  17  28
ATOM     21  C   UNL     1      48.644   9.016  16.279  0.00  0.00    +0.000 A 
ATOM     22  N   UNL     1      48.579  10.362  16.272  0.00  0.00    +0.000 NA
ATOM     23  C   UNL     1      48.775  11.007  17.425  0.00  0.00    +0.000 A 
ATOM     24  N   UNL     1      49.035  10.464  18.610  0.00  0.00    +0.000 NA
ATOM     25  C   UNL     1      49.081   9.122  18.576  0.00  0.00    +0.000 A 
ATOM     26  S   UNL     1      49.407   8.260  20.003  0.00  0.00    +0.000 S 
ATOM     27  C   UNL     1      49.297   6.774  19.188  0.00  0.00    +0.000 A 
ATOM     28  C   UNL     1      49.012   6.894  17.832  0.00  0.00    +0.000 A 
ATOM     29  C   UNL     1      48.890   8.304  17.467  0.00  0.00    +0.000 A 
BRANCH  21  31
ATOM     30  C   UNL     1      49.021   8.988  13.970  0.00  0.00    +0.000 C 
ATOM     31  O   UNL     1      48.415   8.350  15.092  0.00  0.00    +0.000 OA
ENDBRANCH  21  31
ENDBRANCH  17  28
ENDBRANCH   1  19
TORSDOF 8
ENDMDL
