MODEL 1
REMARK VINA RESULT:    -8.762      0.000      0.000
REMARK INTER + INTRA:         -13.678
REMARK INTER:                 -12.860
REMARK INTRA:                  -0.818
REMARK UNBOUND:                -0.818
REMARK  Name = 
REMARK  8 active torsions:
REMARK  status: ('A' for Active; 'I' for Inactive)
REMARK    1  A    between atoms: C_2  and  O_3
REMARK    2  A    between atoms: C_2  and  C_20
REMARK    3  A    between atoms: O_3  and  C_4
REMARK    4  A    between atoms: C_4  and  C_5
REMARK    5  A    between atoms: C_8  and  C_9
REMARK    6  A    between atoms: C_9  and  N_10
REMARK    7  A    between atoms: N_10  and  C_11
REMARK    8  A    between atoms: C_11  and  C_12
REMARK                            x       y       z     vdW  Elec       q    Type
REMARK                         _______ _______ _______ _____ _____    ______ ____
ROOT
ATOM      1  C   UNL     1      47.217   4.783  13.619  0.00  0.00    +0.000 C 
ATOM      2  C   UNL     1      46.399   3.699  12.902  0.00  0.00    +0.000 C 
ATOM      3  C   UNL     1      44.924   4.064  12.732  0.00  0.00    +0.000 C 
ATOM      4  C   UNL     1      44.718   5.419  12.035  0.00  0.00    +0.000 C 
ATOM      5  C   UNL     1      45.496   6.509  12.791  0.00  0.00    +0.000 C 
ATOM      6  C   UNL     1      46.969   6.181  13.023  0.00  0.00    +0.000 C 
ENDROOT
BRANCH   1   7
ATOM      7  C   UNL     1      46.989   4.723  15.139  0.00  0.00    +0.000 C 
BRANCH   7   8
ATOM      8  O   UNL     1      47.398   3.462  15.691  0.00  0.00    +0.000 OA
BRANCH   8  10
ATOM      9  O   UNL     1      46.418   2.771  17.633  0.00  0.00    +0.000 OA
ATOM     10  C   UNL     1      47.337   3.321  17.038  0.00  0.00    +0.000 C 
BRANCH  10  11
ATOM     11  C   UNL     1      48.517   3.852  17.723  0.00  0.00    +0.000 A 
ATOM     12  C   UNL     1      48.432   4.994  18.507  0.00  0.00    +0.000 A 
ATOM     13  S   UNL     1      49.926   5.454  19.195  0.00  0.00    +0.000 S 
ATOM     14  C   UNL     1      50.722   4.117  18.500  0.00  0.00    +0.000 A 
ATOM     15  N   UNL     1      52.045   3.901  18.727  0.00  0.00    +0.000 NA
ATOM     16  C   UNL     1      52.513   2.834  18.160  0.00  0.00    +0.000 A 
ATOM     17  N   UNL     1      51.779   1.982  17.381  0.00  0.00    +0.000 N 
ATOM     18  C   UNL     1      50.467   2.217  17.037  0.00  0.00    +0.000 A 
ATOM     19  O   UNL     1      49.917   1.521  16.190  0.00  0.00    +0.000 OA
ATOM     20  C   UNL     1      49.871   3.353  17.719  0.00  0.00    +0.000 A 
ATOM     21  H   UNL     1      52.211   1.189  16.929  0.00  0.00    +0.000 HD
ENDBRANCH  10  11
ENDBRANCH   8  10
ENDBRANCH   7   8
ENDBRANCH   1   7
BRANCH   4  22
ATOM     22  C   UNL     1      45.042   5.376  10.517  0.00  0.00    +0.000 C 
BRANCH  22  23
ATOM     23  N   UNL     1      44.591   4.096   9.970  0.00  0.00    +0.000 NA
ATOM     24  H   UNL     1      43.676   3.860  10.352  0.00  0.00    +0.000 HD
BRANCH  23  25
ATOM     25  C   UNL     1      44.518   4.050   8.510  0.00  0.00    +0.000 C 
BRANCH  25  26
ATOM     26  C   UNL     1      45.545   3.079   7.980  0.00  0.00    +0.000 A 
ATOM     27  C   UNL     1      46.473   3.459   7.002  0.00  0.00    +0.000 A 
ATOM     28  C   UNL     1      47.444   2.559   6.573  0.00  0.00    +0.000 A 
ATOM     29  C   UNL     1      47.455   1.294   7.134  0.00  0.00    +0.000 A 
ATOM     30  N   UNL     1      46.566   0.877   8.062  0.00  0.00    +0.000 NA
ATOM     31  C   UNL     1      45.633   1.776   8.458  0.00  0.00    +0.000 A 
ENDBRANCH  25  26
ENDBRANCH  23  25
ENDBRANCH  22  23
ENDBRANCH   4  22
TORSDOF 8
ENDMDL
MODEL 2
REMARK VINA RESULT:    -7.796      2.044      3.027
REMARK INTER + INTRA:         -12.260
REMARK INTER:                 -11.244
REMARK INTRA:                  -1.016
REMARK UNBOUND:                -0.818
REMARK  Name = 
REMARK  8 active torsions:
REMARK  status: ('A' for Active; 'I' for Inactive)
REMARK    1  A    between atoms: C_2  and  O_3
REMARK    2  A    between atoms: C_2  and  C_20
REMARK    3  A    between atoms: O_3  and  C_4
REMARK    4  A    between atoms: C_4  and  C_5
REMARK    5  A    between atoms: C_8  and  C_9
REMARK    6  A    between atoms: C_9  and  N_10
REMARK    7  A    between atoms: N_10  and  C_11
REMARK    8  A    between atoms: C_11  and  C_12
REMARK                            x       y       z     vdW  Elec       q    Type
REMARK                         _______ _______ _______ _____ _____    ______ ____
ROOT
ATOM      1  C   UNL     1      45.158   6.792  11.635  0.00  0.00    +0.000 C 
ATOM      2  C   UNL     1      45.720   5.690  10.724  0.00  0.00    +0.000 C 
ATOM      3  C   UNL     1      46.024   4.387  11.463  0.00  0.00    +0.000 C 
ATOM      4  C   UNL     1      44.817   3.847  12.249  0.00  0.00    +0.000 C 
ATOM      5  C   UNL     1      44.294   4.939  13.198  0.00  0.00    +0.000 C 
ATOM      6  C   UNL     1      44.009   6.276  12.520  0.00  0.00    +0.000 C 
ENDROOT
BRANCH   1   7
ATOM      7  C   UNL     1      46.284   7.466  12.436  0.00  0.00    +0.000 C 
BRANCH   7   8
ATOM      8  O   UNL     1      46.615   6.722  13.619  0.00  0.00    +0.000 OA
BRANCH   8  10
ATOM      9  O   UNL     1      48.738   6.291  12.902  0.00  0.00    +0.000 OA
ATOM     10  C   UNL     1      47.917   6.391  13.805  0.00  0.00    +0.000 C 
BRANCH  10  11
ATOM     11  C   UNL     1      48.267   6.211  15.215  0.00  0.00    +0.000 A 
ATOM     12  C   UNL     1      48.821   7.250  15.950  0.00  0.00    +0.000 A 
ATOM     13  S   UNL     1      49.173   6.821  17.566  0.00  0.00    +0.000 S 
ATOM     14  C   UNL     1      48.557   5.249  17.342  0.00  0.00    +0.000 A 
ATOM     15  N   UNL     1      48.534   4.359  18.370  0.00  0.00    +0.000 NA
ATOM     16  C   UNL     1      48.013   3.211  18.067  0.00  0.00    +0.000 A 
ATOM     17  N   UNL     1      47.531   2.879  16.830  0.00  0.00    +0.000 N 
ATOM     18  C   UNL     1      47.631   3.707  15.735  0.00  0.00    +0.000 A 
ATOM     19  O   UNL     1      47.353   3.288  14.616  0.00  0.00    +0.000 OA
ATOM     20  C   UNL     1      48.127   5.038  16.043  0.00  0.00    +0.000 A 
ATOM     21  H   UNL     1      47.178   1.952  16.643  0.00  0.00    +0.000 HD
ENDBRANCH  10  11
ENDBRANCH   8  10
ENDBRANCH   7   8
ENDBRANCH   1   7
BRANCH   4  22
ATOM     22  C   UNL     1      43.714   3.252  11.333  0.00  0.00    +0.000 C 
BRANCH  22  23
ATOM     23  N   UNL     1      44.346   2.428  10.301  0.00  0.00    +0.000 NA
ATOM     24  H   UNL     1      43.924   1.501  10.292  0.00  0.00    +0.000 HD
BRANCH  23  25
ATOM     25  C   UNL     1      44.280   2.988   8.952  0.00  0.00    +0.000 C 
BRANCH  25  26
ATOM     26  C   UNL     1      45.501   2.571   8.168  0.00  0.00    +0.000 A 
ATOM     27  C   UNL     1      46.161   3.464   7.315  0.00  0.00    +0.000 A 
ATOM     28  C   UNL     1      47.318   3.068   6.649  0.00  0.00    +0.000 A 
ATOM     29  C   UNL     1      47.779   1.779   6.851  0.00  0.00    +0.000 A 
ATOM     30  N   UNL     1      47.162   0.877   7.646  0.00  0.00    +0.000 NA
ATOM     31  C   UNL     1      46.039   1.293   8.280  0.00  0.00    +0.000 A 
ENDBRANCH  25  26
ENDBRANCH  23  25
ENDBRANCH  22  23
ENDBRANCH   4  22
TORSDOF 8
ENDMDL
MODEL 3
REMARK VINA RESULT:    -7.222      4.297      5.189
REMARK INTER + INTRA:         -11.418
REMARK INTER:                 -10.626
REMARK INTRA:                  -0.792
REMARK UNBOUND:                -0.818
REMARK  Name = 
REMARK  8 active torsions:
REMARK  status: ('A' for Active; 'I' for Inactive)
REMARK    1  A    between atoms: C_2  and  O_3
REMARK    2  A    between atoms: C_2  and  C_20
REMARK    3  A    between atoms: O_3  and  C_4
REMARK    4  A    between atoms: C_4  and  C_5
REMARK    5  A    between atoms: C_8  and  C_9
REMARK    6  A    between atoms: C_9  and  N_10
REMARK    7  A    between atoms: N_10  and  C_11
REMARK    8  A    between atoms: C_11  and  C_12
REMARK                            x       y       z     vdW  Elec       q    Type
REMARK                         _______ _______ _______ _____ _____    ______ ____
ROOT
ATOM      1  C   UNL     1      44.797   6.631  11.476  0.00  0.00    +0.000 C 
ATOM      2  C   UNL     1      45.737   5.451  11.187  0.00  0.00    +0.000 C 
ATOM      3  C   UNL     1      45.648   4.333  12.227  0.00  0.00    +0.000 C 
ATOM      4  C   UNL     1      44.213   3.819  12.432  0.00  0.00    +0.000 C 
ATOM      5  C   UNL     1      43.289   5.000  12.776  0.00  0.00    +0.000 C 
ATOM      6  C   UNL     1      43.365   6.163  11.790  0.00  0.00    +0.000 C 
ENDROOT
BRANCH   1   7
ATOM      7  C   UNL     1      45.388   7.545  12.564  0.00  0.00    +0.000 C 
BRANCH   7   8
ATOM      8  O   UNL     1      46.677   8.055  12.189  0.00  0.00    +0.000 OA
BRANCH   8  10
ATOM      9  O   UNL     1      47.042   8.811  14.312  0.00  0.00    +0.000 OA
ATOM     10  C   UNL     1      47.402   8.683  13.148  0.00  0.00    +0.000 C 
BRANCH  10  11
ATOM     11  C   UNL     1      48.700   9.159  12.665  0.00  0.00    +0.000 A 
ATOM     12  C   UNL     1      48.780  10.140  11.686  0.00  0.00    +0.000 A 
ATOM     13  S   UNL     1      50.384  10.532  11.253  0.00  0.00    +0.000 S 
ATOM     14  C   UNL     1      51.020   9.433  12.390  0.00  0.00    +0.000 A 
ATOM     15  N   UNL     1      52.363   9.299  12.551  0.00  0.00    +0.000 NA
ATOM     16  C   UNL     1      52.706   8.449  13.467  0.00  0.00    +0.000 A 
ATOM     17  N   UNL     1      51.825   7.719  14.219  0.00  0.00    +0.000 N 
ATOM     18  C   UNL     1      50.463   7.743  14.017  0.00  0.00    +0.000 A 
ATOM     19  O   UNL     1      49.741   6.934  14.590  0.00  0.00    +0.000 OA
ATOM     20  C   UNL     1      50.024   8.745  13.062  0.00  0.00    +0.000 A 
ATOM     21  H   UNL     1      52.153   7.039  14.888  0.00  0.00    +0.000 HD
ENDBRANCH  10  11
ENDBRANCH   8  10
ENDBRANCH   7   8
ENDBRANCH   1   7
BRANCH   4  22
ATOM     22  C   UNL     1      43.698   2.965  11.243  0.00  0.00    +0.000 C 
BRANCH  22  23
ATOM     23  N   UNL     1      44.846   2.463  10.486  0.00  0.00    +0.000 NA
ATOM     24  H   UNL     1      45.322   1.736  11.020  0.00  0.00    +0.000 HD
BRANCH  23  25
ATOM     25  C   UNL     1      44.519   1.935   9.162  0.00  0.00    +0.000 C 
BRANCH  25  26
ATOM     26  C   UNL     1      45.701   2.107   8.240  0.00  0.00    +0.000 A 
ATOM     27  C   UNL     1      46.050   3.362   7.725  0.00  0.00    +0.000 A 
ATOM     28  C   UNL     1      47.179   3.499   6.923  0.00  0.00    +0.000 A 
ATOM     29  C   UNL     1      47.927   2.367   6.650  0.00  0.00    +0.000 A 
ATOM     30  N   UNL     1      47.615   1.134   7.104  0.00  0.00    +0.000 NA
ATOM     31  C   UNL     1      46.511   1.033   7.882  0.00  0.00    +0.000 A 
ENDBRANCH  25  26
ENDBRANCH  23  25
ENDBRANCH  22  23
ENDBRANCH   4  22
TORSDOF 8
ENDMDL
MODEL 4
REMARK VINA RESULT:    -7.184      2.146      2.597
REMARK INTER + INTRA:         -11.363
REMARK INTER:                 -10.298
REMARK INTRA:                  -1.065
REMARK UNBOUND:                -0.818
REMARK  Name = 
REMARK  8 active torsions:
REMARK  status: ('A' for Active; 'I' for Inactive)
REMARK    1  A    between atoms: C_2  and  O_3
REMARK    2  A    between atoms: C_2  and  C_20
REMARK    3  A    between atoms: O_3  and  C_4
REMARK    4  A    between atoms: C_4  and  C_5
REMARK    5  A    between atoms: C_8  and  C_9
REMARK    6  A    between atoms: C_9  and  N_10
REMARK    7  A    between atoms: N_10  and  C_11
REMARK    8  A    between atoms: C_11  and  C_12
REMARK                            x       y       z     vdW  Elec       q    Type
REMARK                         _______ _______ _______ _____ _____    ______ ____
ROOT
ATOM      1  C   UNL     1      47.800   7.731  12.858  0.00  0.00    +0.000 C 
ATOM      2  C   UNL     1      47.901   6.206  12.703  0.00  0.00    +0.000 C 
ATOM      3  C   UNL     1      46.600   5.474  13.033  0.00  0.00    +0.000 C 
ATOM      4  C   UNL     1      45.396   6.000  12.233  0.00  0.00    +0.000 C 
ATOM      5  C   UNL     1      45.269   7.519  12.436  0.00  0.00    +0.000 C 
ATOM      6  C   UNL     1      46.552   8.299  12.157  0.00  0.00    +0.000 C 
ENDROOT
BRANCH   1   7
ATOM      7  C   UNL     1      47.902   8.138  14.337  0.00  0.00    +0.000 C 
BRANCH   7   8
ATOM      8  O   UNL     1      48.965   7.444  15.009  0.00  0.00    +0.000 OA
BRANCH   8  10
ATOM      9  O   UNL     1      48.569   8.015  17.183  0.00  0.00    +0.000 OA
ATOM     10  C   UNL     1      48.796   7.170  16.326  0.00  0.00    +0.000 C 
BRANCH  10  11
ATOM     11  C   UNL     1      48.862   5.738  16.626  0.00  0.00    +0.000 A 
ATOM     12  C   UNL     1      47.741   4.930  16.498  0.00  0.00    +0.000 A 
ATOM     13  S   UNL     1      48.031   3.300  16.917  0.00  0.00    +0.000 S 
ATOM     14  C   UNL     1      49.673   3.618  17.243  0.00  0.00    +0.000 A 
ATOM     15  N   UNL     1      50.510   2.618  17.628  0.00  0.00    +0.000 NA
ATOM     16  C   UNL     1      51.736   2.995  17.815  0.00  0.00    +0.000 A 
ATOM     17  N   UNL     1      52.186   4.279  17.664  0.00  0.00    +0.000 N 
ATOM     18  C   UNL     1      51.355   5.340  17.380  0.00  0.00    +0.000 A 
ATOM     19  O   UNL     1      51.780   6.489  17.440  0.00  0.00    +0.000 OA
ATOM     20  C   UNL     1      49.988   4.955  17.075  0.00  0.00    +0.000 A 
ATOM     21  H   UNL     1      53.145   4.520  17.867  0.00  0.00    +0.000 HD
ENDBRANCH  10  11
ENDBRANCH   8  10
ENDBRANCH   7   8
ENDBRANCH   1   7
BRANCH   4  22
ATOM     22  C   UNL     1      45.433   5.583  10.738  0.00  0.00    +0.000 C 
BRANCH  22  23
ATOM     23  N   UNL     1      44.893   4.229  10.608  0.00  0.00    +0.000 NA
ATOM     24  H   UNL     1      44.167   4.078  11.307  0.00  0.00    +0.000 HD
BRANCH  23  25
ATOM     25  C   UNL     1      44.347   3.916   9.288  0.00  0.00    +0.000 C 
BRANCH  25  26
ATOM     26  C   UNL     1      45.349   3.105   8.503  0.00  0.00    +0.000 A 
ATOM     27  C   UNL     1      46.174   3.698   7.538  0.00  0.00    +0.000 A 
ATOM     28  C   UNL     1      47.127   2.936   6.870  0.00  0.00    +0.000 A 
ATOM     29  C   UNL     1      47.224   1.591   7.182  0.00  0.00    +0.000 A 
ATOM     30  N   UNL     1      46.434   0.972   8.087  0.00  0.00    +0.000 NA
ATOM     31  C   UNL     1      45.516   1.741   8.720  0.00  0.00    +0.000 A 
ENDBRANCH  25  26
ENDBRANCH  23  25
ENDBRANCH  22  23
ENDBRANCH   4  22
TORSDOF 8
ENDMDL
MODEL 5
REMARK VINA RESULT:    -7.018      2.943      3.706
REMARK INTER + INTRA:         -11.118
REMARK INTER:                 -10.196
REMARK INTRA:                  -0.922
REMARK UNBOUND:                -0.818
REMARK  Name = 
REMARK  8 active torsions:
REMARK  status: ('A' for Active; 'I' for Inactive)
REMARK    1  A    between atoms: C_2  and  O_3
REMARK    2  A    between atoms: C_2  and  C_20
REMARK    3  A    between atoms: O_3  and  C_4
REMARK    4  A    between atoms: C_4  and  C_5
REMARK    5  A    between atoms: C_8  and  C_9
REMARK    6  A    between atoms: C_9  and  N_10
REMARK    7  A    between atoms: N_10  and  C_11
REMARK    8  A    between atoms: C_11  and  C_12
REMARK                            x       y       z     vdW  Elec       q    Type
REMARK                         _______ _______ _______ _____ _____    ______ ____
ROOT
ATOM      1  C   UNL     1      47.940   7.284  13.098  0.00  0.00    +0.000 C 
ATOM      2  C   UNL     1      47.653   5.778  12.997  0.00  0.00    +0.000 C 
ATOM      3  C   UNL     1      46.161   5.443  12.993  0.00  0.00    +0.000 C 
ATOM      4  C   UNL     1      45.380   6.196  11.903  0.00  0.00    +0.000 C 
ATOM      5  C   UNL     1      45.629   7.707  12.046  0.00  0.00    +0.000 C 
ATOM      6  C   UNL     1      47.105   8.098  12.093  0.00  0.00    +0.000 C 
ENDROOT
BRANCH   1   7
ATOM      7  C   UNL     1      47.788   7.773  14.548  0.00  0.00    +0.000 C 
BRANCH   7   8
ATOM      8  O   UNL     1      49.062   8.021  15.163  0.00  0.00    +0.000 OA
BRANCH   8  10
ATOM      9  O   UNL     1      50.838   6.630  15.512  0.00  0.00    +0.000 OA
ATOM     10  C   UNL     1      49.686   6.971  15.752  0.00  0.00    +0.000 C 
BRANCH  10  11
ATOM     11  C   UNL     1      48.856   6.301  16.755  0.00  0.00    +0.000 A 
ATOM     12  C   UNL     1      48.303   5.053  16.505  0.00  0.00    +0.000 A 
ATOM     13  S   UNL     1      47.354   4.463  17.796  0.00  0.00    +0.000 S 
ATOM     14  C   UNL     1      47.688   5.839  18.744  0.00  0.00    +0.000 A 
ATOM     15  N   UNL     1      47.191   5.952  20.004  0.00  0.00    +0.000 NA
ATOM     16  C   UNL     1      47.546   7.035  20.621  0.00  0.00    +0.000 A 
ATOM     17  N   UNL     1      48.339   8.012  20.081  0.00  0.00    +0.000 N 
ATOM     18  C   UNL     1      48.777   7.991  18.776  0.00  0.00    +0.000 A 
ATOM     19  O   UNL     1      49.325   8.976  18.293  0.00  0.00    +0.000 OA
ATOM     20  C   UNL     1      48.478   6.756  18.072  0.00  0.00    +0.000 A 
ATOM     21  H   UNL     1      48.546   8.855  20.595  0.00  0.00    +0.000 HD
ENDBRANCH  10  11
ENDBRANCH   8  10
ENDBRANCH   7   8
ENDBRANCH   1   7
BRANCH   4  22
ATOM     22  C   UNL     1      45.663   5.660  10.474  0.00  0.00    +0.000 C 
BRANCH  22  23
ATOM     23  N   UNL     1      45.025   4.352  10.322  0.00  0.00    +0.000 NA
ATOM     24  H   UNL     1      44.241   4.272  10.968  0.00  0.00    +0.000 HD
BRANCH  23  25
ATOM     25  C   UNL     1      44.551   4.060   8.970  0.00  0.00    +0.000 C 
BRANCH  25  26
ATOM     26  C   UNL     1      45.510   3.113   8.288  0.00  0.00    +0.000 A 
ATOM     27  C   UNL     1      46.396   3.558   7.299  0.00  0.00    +0.000 A 
ATOM     28  C   UNL     1      47.307   2.674   6.730  0.00  0.00    +0.000 A 
ATOM     29  C   UNL     1      47.300   1.359   7.163  0.00  0.00    +0.000 A 
ATOM     30  N   UNL     1      46.448   0.881   8.095  0.00  0.00    +0.000 NA
ATOM     31  C   UNL     1      45.574   1.766   8.631  0.00  0.00    +0.000 A 
ENDBRANCH  25  26
ENDBRANCH  23  25
ENDBRANCH  22  23
ENDBRANCH   4  22
TORSDOF 8
ENDMDL
MODEL 6
REMARK VINA RESULT:    -7.004      2.194      2.895
REMARK INTER + INTRA:         -11.098
REMARK INTER:                 -10.185
REMARK INTRA:                  -0.913
REMARK UNBOUND:                -0.818
REMARK  Name = 
REMARK  8 active torsions:
REMARK  status: ('A' for Active; 'I' for Inactive)
REMARK    1  A    between atoms: C_2  and  O_3
REMARK    2  A    between atoms: C_2  and  C_20
REMARK    3  A    between atoms: O_3  and  C_4
REMARK    4  A    between atoms: C_4  and  C_5
REMARK    5  A    between atoms: C_8  and  C_9
REMARK    6  A    between atoms: C_9  and  N_10
REMARK    7  A    between atoms: N_10  and  C_11
REMARK    8  A    between atoms: C_11  and  C_12
REMARK                            x       y       z     vdW  Elec       q    Type
REMARK                         _______ _______ _______ _____ _____    ______ ____
ROOT
ATOM      1  C   UNL     1      48.057   6.423  13.003  0.00  0.00    +0.000 C 
ATOM      2  C   UNL     1      47.160   5.292  13.526  0.00  0.00    +0.000 C 
ATOM      3  C   UNL     1      45.666   5.571  13.353  0.00  0.00    +0.000 C 
ATOM      4  C   UNL     1      45.285   5.910  11.902  0.00  0.00    +0.000 C 
ATOM      5  C   UNL     1      46.150   7.080  11.404  0.00  0.00    +0.000 C 
ATOM      6  C   UNL     1      47.652   6.872  11.588  0.00  0.00    +0.000 C 
ENDROOT
BRANCH   1   7
ATOM      7  C   UNL     1      48.118   7.583  14.012  0.00  0.00    +0.000 C 
BRANCH   7   8
ATOM      8  O   UNL     1      48.287   7.110  15.358  0.00  0.00    +0.000 OA
BRANCH   8  10
ATOM      9  O   UNL     1      50.555   7.006  15.130  0.00  0.00    +0.000 OA
ATOM     10  C   UNL     1      49.553   7.022  15.835  0.00  0.00    +0.000 C 
BRANCH  10  11
ATOM     11  C   UNL     1      49.614   6.998  17.297  0.00  0.00    +0.000 A 
ATOM     12  C   UNL     1      50.042   8.109  18.011  0.00  0.00    +0.000 A 
ATOM     13  S   UNL     1      50.058   7.861  19.701  0.00  0.00    +0.000 S 
ATOM     14  C   UNL     1      49.453   6.277  19.531  0.00  0.00    +0.000 A 
ATOM     15  N   UNL     1      49.204   5.507  20.623  0.00  0.00    +0.000 NA
ATOM     16  C   UNL     1      48.722   4.337  20.349  0.00  0.00    +0.000 A 
ATOM     17  N   UNL     1      48.483   3.871  19.085  0.00  0.00    +0.000 N 
ATOM     18  C   UNL     1      48.819   4.572  17.948  0.00  0.00    +0.000 A 
ATOM     19  O   UNL     1      48.754   4.032  16.849  0.00  0.00    +0.000 OA
ATOM     20  C   UNL     1      49.281   5.925  18.203  0.00  0.00    +0.000 A 
ATOM     21  H   UNL     1      48.147   2.931  18.932  0.00  0.00    +0.000 HD
ENDBRANCH  10  11
ENDBRANCH   8  10
ENDBRANCH   7   8
ENDBRANCH   1   7
BRANCH   4  22
ATOM     22  C   UNL     1      45.322   4.676  10.960  0.00  0.00    +0.000 C 
BRANCH  22  23
ATOM     23  N   UNL     1      45.068   5.117   9.588  0.00  0.00    +0.000 NA
ATOM     24  H   UNL     1      45.933   5.456   9.168  0.00  0.00    +0.000 HD
BRANCH  23  25
ATOM     25  C   UNL     1      44.492   4.094   8.717  0.00  0.00    +0.000 C 
BRANCH  25  26
ATOM     26  C   UNL     1      45.590   3.210   8.176  0.00  0.00    +0.000 A 
ATOM     27  C   UNL     1      45.613   1.833   8.433  0.00  0.00    +0.000 A 
ATOM     28  C   UNL     1      46.607   1.036   7.873  0.00  0.00    +0.000 A 
ATOM     29  C   UNL     1      47.560   1.643   7.074  0.00  0.00    +0.000 A 
ATOM     30  N   UNL     1      47.590   2.969   6.819  0.00  0.00    +0.000 NA
ATOM     31  C   UNL     1      46.610   3.719   7.378  0.00  0.00    +0.000 A 
ENDBRANCH  25  26
ENDBRANCH  23  25
ENDBRANCH  22  23
ENDBRANCH   4  22
TORSDOF 8
ENDMDL
MODEL 7
REMARK VINA RESULT:    -6.757      3.546      8.667
REMARK INTER + INTRA:         -10.736
REMARK INTER:                  -9.205
REMARK INTRA:                  -1.530
REMARK UNBOUND:                -0.818
REMARK  Name = 
REMARK  8 active torsions:
REMARK  status: ('A' for Active; 'I' for Inactive)
REMARK    1  A    between atoms: C_2  and  O_3
REMARK    2  A    between atoms: C_2  and  C_20
REMARK    3  A    between atoms: O_3  and  C_4
REMARK    4  A    between atoms: C_4  and  C_5
REMARK    5  A    between atoms: C_8  and  C_9
REMARK    6  A    between atoms: C_9  and  N_10
REMARK    7  A    between atoms: N_10  and  C_11
REMARK    8  A    between atoms: C_11  and  C_12
REMARK                            x       y       z     vdW  Elec       q    Type
REMARK                         _______ _______ _______ _____ _____    ______ ____
ROOT
ATOM      1  C   UNL     1      47.324   8.447  13.563  0.00  0.00    +0.000 C 
ATOM      2  C   UNL     1      47.887   7.138  14.135  0.00  0.00    +0.000 C 
ATOM      3  C   UNL     1      49.400   6.998  13.956  0.00  0.00    +0.000 C 
ATOM      4  C   UNL     1      50.184   8.194  14.521  0.00  0.00    +0.000 C 
ATOM      5  C   UNL     1      49.649   9.497  13.903  0.00  0.00    +0.000 C 
ATOM      6  C   UNL     1      48.137   9.672  14.019  0.00  0.00    +0.000 C 
ENDROOT
BRANCH   1   7
ATOM      7  C   UNL     1      47.172   8.356  12.035  0.00  0.00    +0.000 C 
BRANCH   7   8
ATOM      8  O   UNL     1      46.591   7.106  11.631  0.00  0.00    +0.000 OA
BRANCH   8  10
ATOM      9  O   UNL     1      44.540   8.046  11.288  0.00  0.00    +0.000 OA
ATOM     10  C   UNL     1      45.244   7.063  11.483  0.00  0.00    +0.000 C 
BRANCH  10  11
ATOM     11  C   UNL     1      44.706   5.702  11.528  0.00  0.00    +0.000 A 
ATOM     12  C   UNL     1      44.028   5.240  12.647  0.00  0.00    +0.000 A 
ATOM     13  S   UNL     1      43.504   3.621  12.500  0.00  0.00    +0.000 S 
ATOM     14  C   UNL     1      44.132   3.502  10.920  0.00  0.00    +0.000 A 
ATOM     15  N   UNL     1      43.990   2.358  10.201  0.00  0.00    +0.000 NA
ATOM     16  C   UNL     1      44.490   2.416   9.007  0.00  0.00    +0.000 A 
ATOM     17  N   UNL     1      45.127   3.509   8.483  0.00  0.00    +0.000 N 
ATOM     18  C   UNL     1      45.387   4.649   9.210  0.00  0.00    +0.000 A 
ATOM     19  O   UNL     1      46.120   5.519   8.751  0.00  0.00    +0.000 OA
ATOM     20  C   UNL     1      44.769   4.666  10.525  0.00  0.00    +0.000 A 
ATOM     21  H   UNL     1      45.535   3.479   7.561  0.00  0.00    +0.000 HD
ENDBRANCH  10  11
ENDBRANCH   8  10
ENDBRANCH   7   8
ENDBRANCH   1   7
BRANCH   4  22
ATOM     22  C   UNL     1      50.214   8.220  16.073  0.00  0.00    +0.000 C 
BRANCH  22  23
ATOM     23  N   UNL     1      50.754   6.950  16.560  0.00  0.00    +0.000 NA
ATOM     24  H   UNL     1      51.746   7.054  16.769  0.00  0.00    +0.000 HD
BRANCH  23  25
ATOM     25  C   UNL     1      50.078   6.414  17.741  0.00  0.00    +0.000 C 
BRANCH  25  26
ATOM     26  C   UNL     1      49.423   5.098  17.398  0.00  0.00    +0.000 A 
ATOM     27  C   UNL     1      48.064   5.023  17.067  0.00  0.00    +0.000 A 
ATOM     28  C   UNL     1      47.502   3.804  16.700  0.00  0.00    +0.000 A 
ATOM     29  C   UNL     1      48.318   2.686  16.682  0.00  0.00    +0.000 A 
ATOM     30  N   UNL     1      49.627   2.708  17.016  0.00  0.00    +0.000 NA
ATOM     31  C   UNL     1      50.145   3.909  17.368  0.00  0.00    +0.000 A 
ENDBRANCH  25  26
ENDBRANCH  23  25
ENDBRANCH  22  23
ENDBRANCH   4  22
TORSDOF 8
ENDMDL
MODEL 8
REMARK VINA RESULT:    -6.746      3.124      3.858
REMARK INTER + INTRA:         -10.719
REMARK INTER:                 -10.521
REMARK INTRA:                  -0.198
REMARK UNBOUND:                -0.818
REMARK  Name = 
REMARK  8 active torsions:
REMARK  status: ('A' for Active; 'I' for Inactive)
REMARK    1  A    between atoms: C_2  and  O_3
REMARK    2  A    between atoms: C_2  and  C_20
REMARK    3  A    between atoms: O_3  and  C_4
REMARK    4  A    between atoms: C_4  and  C_5
REMARK    5  A    between atoms: C_8  and  C_9
REMARK    6  A    between atoms: C_9  and  N_10
REMARK    7  A    between atoms: N_10  and  C_11
REMARK    8  A    between atoms: C_11  and  C_12
REMARK                            x       y       z     vdW  Elec       q    Type
REMARK                         _______ _______ _______ _____ _____    ______ ____
ROOT
ATOM      1  C   UNL     1      46.377   5.520  11.853  0.00  0.00    +0.000 C 
ATOM      2  C   UNL     1      45.979   4.469  12.900  0.00  0.00    +0.000 C 
ATOM      3  C   UNL     1      44.491   4.496  13.254  0.00  0.00    +0.000 C 
ATOM      4  C   UNL     1      43.579   4.376  12.021  0.00  0.00    +0.000 C 
ATOM      5  C   UNL     1      43.949   5.466  11.001  0.00  0.00    +0.000 C 
ATOM      6  C   UNL     1      45.431   5.510  10.638  0.00  0.00    +0.000 C 
ENDROOT
BRANCH   1   7
ATOM      7  C   UNL     1      46.518   6.908  12.499  0.00  0.00    +0.000 C 
BRANCH   7   8
ATOM      8  O   UNL     1      47.857   7.148  12.960  0.00  0.00    +0.000 OA
BRANCH   8  10
ATOM      9  O   UNL     1      47.336   8.841  14.399  0.00  0.00    +0.000 OA
ATOM     10  C   UNL     1      48.006   7.858  14.105  0.00  0.00    +0.000 C 
BRANCH  10  11
ATOM     11  C   UNL     1      49.025   7.301  14.996  0.00  0.00    +0.000 A 
ATOM     12  C   UNL     1      48.671   6.495  16.069  0.00  0.00    +0.000 A 
ATOM     13  S   UNL     1      50.009   5.970  16.991  0.00  0.00    +0.000 S 
ATOM     14  C   UNL     1      51.105   6.771  15.960  0.00  0.00    +0.000 A 
ATOM     15  N   UNL     1      52.444   6.697  16.178  0.00  0.00    +0.000 NA
ATOM     16  C   UNL     1      53.160   7.329  15.303  0.00  0.00    +0.000 A 
ATOM     17  N   UNL     1      52.652   8.035  14.246  0.00  0.00    +0.000 N 
ATOM     18  C   UNL     1      51.303   8.226  14.048  0.00  0.00    +0.000 A 
ATOM     19  O   UNL     1      50.911   9.018  13.196  0.00  0.00    +0.000 OA
ATOM     20  C   UNL     1      50.458   7.464  14.951  0.00  0.00    +0.000 A 
ATOM     21  H   UNL     1      53.259   8.545  13.622  0.00  0.00    +0.000 HD
ENDBRANCH  10  11
ENDBRANCH   8  10
ENDBRANCH   7   8
ENDBRANCH   1   7
BRANCH   4  22
ATOM     22  C   UNL     1      43.567   2.947  11.413  0.00  0.00    +0.000 C 
BRANCH  22  23
ATOM     23  N   UNL     1      44.722   2.798  10.525  0.00  0.00    +0.000 NA
ATOM     24  H   UNL     1      45.495   2.370  11.033  0.00  0.00    +0.000 HD
BRANCH  23  25
ATOM     25  C   UNL     1      44.462   2.017   9.317  0.00  0.00    +0.000 C 
BRANCH  25  26
ATOM     26  C   UNL     1      45.613   2.176   8.352  0.00  0.00    +0.000 A 
ATOM     27  C   UNL     1      45.939   3.422   7.802  0.00  0.00    +0.000 A 
ATOM     28  C   UNL     1      47.040   3.548   6.961  0.00  0.00    +0.000 A 
ATOM     29  C   UNL     1      47.784   2.415   6.685  0.00  0.00    +0.000 A 
ATOM     30  N   UNL     1      47.494   1.189   7.173  0.00  0.00    +0.000 NA
ATOM     31  C   UNL     1      46.417   1.099   7.989  0.00  0.00    +0.000 A 
ENDBRANCH  25  26
ENDBRANCH  23  25
ENDBRANCH  22  23
ENDBRANCH   4  22
TORSDOF 8
ENDMDL
MODEL 9
REMARK VINA RESULT:    -6.536      3.805      9.471
REMARK INTER + INTRA:         -10.411
REMARK INTER:                  -8.793
REMARK INTRA:                  -1.618
REMARK UNBOUND:                -0.818
REMARK  Name = 
REMARK  8 active torsions:
REMARK  status: ('A' for Active; 'I' for Inactive)
REMARK    1  A    between atoms: C_2  and  O_3
REMARK    2  A    between atoms: C_2  and  C_20
REMARK    3  A    between atoms: O_3  and  C_4
REMARK    4  A    between atoms: C_4  and  C_5
REMARK    5  A    between atoms: C_8  and  C_9
REMARK    6  A    between atoms: C_9  and  N_10
REMARK    7  A    between atoms: N_10  and  C_11
REMARK    8  A    between atoms: C_11  and  C_12
REMARK                            x       y       z     vdW  Elec       q    Type
REMARK                         _______ _______ _______ _____ _____    ______ ____
ROOT
ATOM      1  C   UNL     1      47.742   4.124  17.683  0.00  0.00    +0.000 C 
ATOM      2  C   UNL     1      48.769   3.233  18.397  0.00  0.00    +0.000 C 
ATOM      3  C   UNL     1      50.160   3.279  17.764  0.00  0.00    +0.000 C 
ATOM      4  C   UNL     1      50.712   4.709  17.633  0.00  0.00    +0.000 C 
ATOM      5  C   UNL     1      49.702   5.581  16.869  0.00  0.00    +0.000 C 
ATOM      6  C   UNL     1      48.285   5.543  17.436  0.00  0.00    +0.000 C 
ENDROOT
BRANCH   1   7
ATOM      7  C   UNL     1      47.224   3.443  16.405  0.00  0.00    +0.000 C 
BRANCH   7   8
ATOM      8  O   UNL     1      46.564   4.375  15.534  0.00  0.00    +0.000 OA
BRANCH   8  10
ATOM      9  O   UNL     1      47.410   3.329  13.691  0.00  0.00    +0.000 OA
ATOM     10  C   UNL     1      46.788   4.252  14.202  0.00  0.00    +0.000 C 
BRANCH  10  11
ATOM     11  C   UNL     1      46.164   5.317  13.416  0.00  0.00    +0.000 A 
ATOM     12  C   UNL     1      46.830   6.511  13.178  0.00  0.00    +0.000 A 
ATOM     13  S   UNL     1      45.917   7.624  12.259  0.00  0.00    +0.000 S 
ATOM     14  C   UNL     1      44.620   6.527  12.117  0.00  0.00    +0.000 A 
ATOM     15  N   UNL     1      43.507   6.856  11.409  0.00  0.00    +0.000 NA
ATOM     16  C   UNL     1      42.613   5.919  11.360  0.00  0.00    +0.000 A 
ATOM     17  N   UNL     1      42.734   4.697  11.966  0.00  0.00    +0.000 N 
ATOM     18  C   UNL     1      43.792   4.361  12.779  0.00  0.00    +0.000 A 
ATOM     19  O   UNL     1      43.758   3.330  13.442  0.00  0.00    +0.000 OA
ATOM     20  C   UNL     1      44.862   5.345  12.795  0.00  0.00    +0.000 A 
ATOM     21  H   UNL     1      41.983   4.023  11.929  0.00  0.00    +0.000 HD
ENDBRANCH  10  11
ENDBRANCH   8  10
ENDBRANCH   7   8
ENDBRANCH   1   7
BRANCH   4  22
ATOM     22  C   UNL     1      51.142   5.320  18.994  0.00  0.00    +0.000 C 
BRANCH  22  23
ATOM     23  N   UNL     1      51.495   6.726  18.794  0.00  0.00    +0.000 NA
ATOM     24  H   UNL     1      51.147   7.045  17.891  0.00  0.00    +0.000 HD
BRANCH  23  25
ATOM     25  C   UNL     1      51.004   7.630  19.834  0.00  0.00    +0.000 C 
BRANCH  25  26
ATOM     26  C   UNL     1      49.743   8.312  19.360  0.00  0.00    +0.000 A 
ATOM     27  C   UNL     1      48.538   8.190  20.065  0.00  0.00    +0.000 A 
ATOM     28  C   UNL     1      47.406   8.876  19.635  0.00  0.00    +0.000 A 
ATOM     29  C   UNL     1      47.509   9.662  18.501  0.00  0.00    +0.000 A 
ATOM     30  N   UNL     1      48.643   9.790  17.777  0.00  0.00    +0.000 NA
ATOM     31  C   UNL     1      49.727   9.110  18.221  0.00  0.00    +0.000 A 
ENDBRANCH  25  26
ENDBRANCH  23  25
ENDBRANCH  22  23
ENDBRANCH   4  22
TORSDOF 8
ENDMDL
