MODEL 1
REMARK VINA RESULT:    -7.251      0.000      0.000
REMARK INTER + INTRA:         -10.507
REMARK INTER:                  -9.794
REMARK INTRA:                  -0.713
REMARK UNBOUND:                -0.713
REMARK  Name = 
REMARK  8 active torsions:
REMARK  status: ('A' for Active; 'I' for Inactive)
REMARK    1  A    between atoms: C_1  and  C_2
REMARK    2  A    between atoms: C_5  and  O_6
REMARK    3  A    between atoms: O_6  and  C_7
REMARK    4  A    between atoms: C_7  and  C_8
REMARK    5  A    between atoms: C_8  and  C_9
REMARK    6  A    between atoms: C_8  and  C_10
REMARK    7  A    between atoms: C_14  and  O_15
REMARK    8  A    between atoms: O_15  and  C_16
REMARK                            x       y       z     vdW  Elec       q    Type
REMARK                         _______ _______ _______ _____ _____    ______ ____
ROOT
ATOM      1  C   UNL     1      45.319   5.041  12.584  0.00  0.00    +0.000 A 
ATOM      2  C   UNL     1      45.835   6.017  11.716  0.00  0.00    +0.000 A 
ATOM      3  C   UNL     1      47.039   6.667  11.991  0.00  0.00    +0.000 A 
ATOM      4  C   UNL     1      47.761   6.357  13.143  0.00  0.00    +0.000 A 
ATOM      5  C   UNL     1      47.285   5.381  14.008  0.00  0.00    +0.000 A 
ATOM      6  C   UNL     1      46.076   4.730  13.732  0.00  0.00    +0.000 A 
ENDROOT
BRANCH   1   7
ATOM      7  C   UNL     1      44.004   4.306  12.320  0.00  0.00    +0.000 C 
ATOM      8  C   UNL     1      43.040   5.193  11.515  0.00  0.00    +0.000 C 
BRANCH   7   9
ATOM      9  C   UNL     1      44.137   2.952  11.587  0.00  0.00    +0.000 C 
BRANCH   9  10
ATOM     10  O   UNL     1      43.711   3.095  10.229  0.00  0.00    +0.000 OA
BRANCH  10  15
ATOM     11  C   UNL     1      46.840   0.616   7.603  0.00  0.00    +0.000 C 
ATOM     12  C   UNL     1      46.139   1.843   8.053  0.00  0.00    +0.000 A 
ATOM     13  C   UNL     1      46.344   3.133   7.601  0.00  0.00    +0.000 A 
ATOM     14  S   UNL     1      45.306   4.217   8.431  0.00  0.00    +0.000 S 
ATOM     15  C   UNL     1      44.669   2.902   9.321  0.00  0.00    +0.000 A 
ATOM     16  N   UNL     1      45.172   1.722   9.037  0.00  0.00    +0.000 NA
ENDBRANCH  10  15
ENDBRANCH   9  10
ENDBRANCH   7   9
ENDBRANCH   1   7
BRANCH   5  17
ATOM     17  O   UNL     1      47.912   5.009  15.172  0.00  0.00    +0.000 OA
BRANCH  17  18
ATOM     18  C   UNL     1      47.187   4.175  16.108  0.00  0.00    +0.000 C 
ATOM     19  C   UNL     1      47.180   4.606  17.589  0.00  0.00    +0.000 C 
ATOM     20  N   UNL     1      47.623   3.263  17.996  0.00  0.00    +0.000 NA
ATOM     21  C   UNL     1      47.946   2.928  16.600  0.00  0.00    +0.000 C 
ATOM     22  H   UNL     1      46.887   2.688  18.403  0.00  0.00    +0.000 HD
ENDBRANCH  17  18
ENDBRANCH   5  17
TORSDOF 6
ENDMDL
MODEL 2
REMARK VINA RESULT:    -7.162      2.566      7.366
REMARK INTER + INTRA:         -10.388
REMARK INTER:                  -9.870
REMARK INTRA:                  -0.517
REMARK UNBOUND:                -0.713
REMARK  Name = 
REMARK  8 active torsions:
REMARK  status: ('A' for Active; 'I' for Inactive)
REMARK    1  A    between atoms: C_1  and  C_2
REMARK    2  A    between atoms: C_5  and  O_6
REMARK    3  A    between atoms: O_6  and  C_7
REMARK    4  A    between atoms: C_7  and  C_8
REMARK    5  A    between atoms: C_8  and  C_9
REMARK    6  A    between atoms: C_8  and  C_10
REMARK    7  A    between atoms: C_14  and  O_15
REMARK    8  A    between atoms: O_15  and  C_16
REMARK                            x       y       z     vdW  Elec       q    Type
REMARK                         _______ _______ _______ _____ _____    ______ ____
ROOT
ATOM      1  C   UNL     1      45.131   5.022  10.463  0.00  0.00    +0.000 A 
ATOM      2  C   UNL     1      44.328   3.938  10.852  0.00  0.00    +0.000 A 
ATOM      3  C   UNL     1      44.118   2.851  10.002  0.00  0.00    +0.000 A 
ATOM      4  C   UNL     1      44.708   2.819   8.739  0.00  0.00    +0.000 A 
ATOM      5  C   UNL     1      45.524   3.868   8.337  0.00  0.00    +0.000 A 
ATOM      6  C   UNL     1      45.734   4.959   9.190  0.00  0.00    +0.000 A 
ENDROOT
BRANCH   1   7
ATOM      7  C   UNL     1      45.386   6.233  11.363  0.00  0.00    +0.000 C 
ATOM      8  C   UNL     1      44.216   6.438  12.339  0.00  0.00    +0.000 C 
BRANCH   7   9
ATOM      9  C   UNL     1      46.695   6.184  12.185  0.00  0.00    +0.000 C 
BRANCH   9  10
ATOM     10  O   UNL     1      46.830   4.899  12.800  0.00  0.00    +0.000 OA
BRANCH  10  15
ATOM     11  C   UNL     1      47.245   3.372  17.308  0.00  0.00    +0.000 C 
ATOM     12  C   UNL     1      47.484   4.302  16.178  0.00  0.00    +0.000 A 
ATOM     13  C   UNL     1      48.213   5.477  16.205  0.00  0.00    +0.000 A 
ATOM     14  S   UNL     1      48.192   6.215  14.657  0.00  0.00    +0.000 S 
ATOM     15  C   UNL     1      47.225   4.930  14.073  0.00  0.00    +0.000 A 
ATOM     16  N   UNL     1      46.927   3.995  14.948  0.00  0.00    +0.000 NA
ENDBRANCH  10  15
ENDBRANCH   9  10
ENDBRANCH   7   9
ENDBRANCH   1   7
BRANCH   5  17
ATOM     17  O   UNL     1      46.143   3.939   7.113  0.00  0.00    +0.000 OA
BRANCH  17  18
ATOM     18  C   UNL     1      46.530   2.704   6.464  0.00  0.00    +0.000 C 
ATOM     19  C   UNL     1      47.746   1.949   7.039  0.00  0.00    +0.000 C 
ATOM     20  N   UNL     1      48.357   1.887   5.702  0.00  0.00    +0.000 NA
ATOM     21  C   UNL     1      47.386   2.869   5.195  0.00  0.00    +0.000 C 
ATOM     22  H   UNL     1      48.294   0.972   5.258  0.00  0.00    +0.000 HD
ENDBRANCH  17  18
ENDBRANCH   5  17
TORSDOF 6
ENDMDL
MODEL 3
REMARK VINA RESULT:    -6.766      2.811      7.555
REMARK INTER + INTRA:          -9.852
REMARK INTER:                  -9.329
REMARK INTRA:                  -0.523
REMARK UNBOUND:                -0.713
REMARK  Name = 
REMARK  8 active torsions:
REMARK  status: ('A' for Active; 'I' for Inactive)
REMARK    1  A    between atoms: C_1  and  C_2
REMARK    2  A    between atoms: C_5  and  O_6
REMARK    3  A    between atoms: O_6  and  C_7
REMARK    4  A    between atoms: C_7  and  C_8
REMARK    5  A    between atoms: C_8  and  C_9
REMARK    6  A    between atoms: C_8  and  C_10
REMARK    7  A    between atoms: C_14  and  O_15
REMARK    8  A    between atoms: O_15  and  C_16
REMARK                            x       y       z     vdW  Elec       q    Type
REMARK                         _______ _______ _______ _____ _____    ______ ____
ROOT
ATOM      1  C   UNL     1      45.220   5.156  10.465  0.00  0.00    +0.000 A 
ATOM      2  C   UNL     1      44.475   4.069  10.949  0.00  0.00    +0.000 A 
ATOM      3  C   UNL     1      44.257   2.935  10.166  0.00  0.00    +0.000 A 
ATOM      4  C   UNL     1      44.780   2.857   8.876  0.00  0.00    +0.000 A 
ATOM      5  C   UNL     1      45.539   3.908   8.380  0.00  0.00    +0.000 A 
ATOM      6  C   UNL     1      45.757   5.047   9.166  0.00  0.00    +0.000 A 
ENDROOT
BRANCH   1   7
ATOM      7  C   UNL     1      45.482   6.418  11.290  0.00  0.00    +0.000 C 
ATOM      8  C   UNL     1      44.238   7.321  11.307  0.00  0.00    +0.000 C 
BRANCH   7   9
ATOM      9  C   UNL     1      45.920   6.175  12.752  0.00  0.00    +0.000 C 
BRANCH   9  10
ATOM     10  O   UNL     1      47.226   5.591  12.774  0.00  0.00    +0.000 OA
BRANCH  10  15
ATOM     11  C   UNL     1      49.409   6.474  16.931  0.00  0.00    +0.000 C 
ATOM     12  C   UNL     1      49.162   6.651  15.480  0.00  0.00    +0.000 A 
ATOM     13  C   UNL     1      49.811   7.523  14.624  0.00  0.00    +0.000 A 
ATOM     14  S   UNL     1      49.168   7.377  13.041  0.00  0.00    +0.000 S 
ATOM     15  C   UNL     1      48.086   6.179  13.606  0.00  0.00    +0.000 A 
ATOM     16  N   UNL     1      48.178   5.881  14.883  0.00  0.00    +0.000 NA
ENDBRANCH  10  15
ENDBRANCH   9  10
ENDBRANCH   7   9
ENDBRANCH   1   7
BRANCH   5  17
ATOM     17  O   UNL     1      46.090   3.936   7.122  0.00  0.00    +0.000 OA
BRANCH  17  18
ATOM     18  C   UNL     1      46.507   2.685   6.525  0.00  0.00    +0.000 C 
ATOM     19  C   UNL     1      47.828   2.063   7.024  0.00  0.00    +0.000 C 
ATOM     20  N   UNL     1      48.310   1.942   5.639  0.00  0.00    +0.000 NA
ATOM     21  C   UNL     1      47.221   2.811   5.166  0.00  0.00    +0.000 C 
ATOM     22  H   UNL     1      48.276   0.993   5.268  0.00  0.00    +0.000 HD
ENDBRANCH  17  18
ENDBRANCH   5  17
TORSDOF 6
ENDMDL
MODEL 4
REMARK VINA RESULT:    -6.600      3.447      7.362
REMARK INTER + INTRA:          -9.629
REMARK INTER:                  -9.074
REMARK INTRA:                  -0.554
REMARK UNBOUND:                -0.713
REMARK  Name = 
REMARK  8 active torsions:
REMARK  status: ('A' for Active; 'I' for Inactive)
REMARK    1  A    between atoms: C_1  and  C_2
REMARK    2  A    between atoms: C_5  and  O_6
REMARK    3  A    between atoms: O_6  and  C_7
REMARK    4  A    between atoms: C_7  and  C_8
REMARK    5  A    between atoms: C_8  and  C_9
REMARK    6  A    between atoms: C_8  and  C_10
REMARK    7  A    between atoms: C_14  and  O_15
REMARK    8  A    between atoms: O_15  and  C_16
REMARK                            x       y       z     vdW  Elec       q    Type
REMARK                         _______ _______ _______ _____ _____    ______ ____
ROOT
ATOM      1  C   UNL     1      45.328   4.931  10.365  0.00  0.00    +0.000 A 
ATOM      2  C   UNL     1      44.587   3.868  10.906  0.00  0.00    +0.000 A 
ATOM      3  C   UNL     1      44.260   2.749  10.137  0.00  0.00    +0.000 A 
ATOM      4  C   UNL     1      44.667   2.664   8.807  0.00  0.00    +0.000 A 
ATOM      5  C   UNL     1      45.420   3.691   8.253  0.00  0.00    +0.000 A 
ATOM      6  C   UNL     1      45.747   4.814   9.025  0.00  0.00    +0.000 A 
ENDROOT
BRANCH   1   7
ATOM      7  C   UNL     1      45.707   6.175  11.172  0.00  0.00    +0.000 C 
ATOM      8  C   UNL     1      44.450   6.971  11.561  0.00  0.00    +0.000 C 
BRANCH   7   9
ATOM      9  C   UNL     1      46.524   5.908  12.457  0.00  0.00    +0.000 C 
BRANCH   9  10
ATOM     10  O   UNL     1      46.841   7.149  13.094  0.00  0.00    +0.000 OA
BRANCH  10  15
ATOM     11  C   UNL     1      51.135   7.790  11.100  0.00  0.00    +0.000 C 
ATOM     12  C   UNL     1      49.802   8.222  11.585  0.00  0.00    +0.000 A 
ATOM     13  C   UNL     1      49.278   9.501  11.554  0.00  0.00    +0.000 A 
ATOM     14  S   UNL     1      47.707   9.507  12.243  0.00  0.00    +0.000 S 
ATOM     15  C   UNL     1      47.841   7.826  12.528  0.00  0.00    +0.000 A 
ATOM     16  N   UNL     1      48.966   7.268  12.141  0.00  0.00    +0.000 NA
ENDBRANCH  10  15
ENDBRANCH   9  10
ENDBRANCH   7   9
ENDBRANCH   1   7
BRANCH   5  17
ATOM     17  O   UNL     1      45.862   3.710   6.953  0.00  0.00    +0.000 OA
BRANCH  17  18
ATOM     18  C   UNL     1      46.445   2.504   6.406  0.00  0.00    +0.000 C 
ATOM     19  C   UNL     1      47.732   1.971   7.070  0.00  0.00    +0.000 C 
ATOM     20  N   UNL     1      48.399   1.909   5.760  0.00  0.00    +0.000 NA
ATOM     21  C   UNL     1      47.320   2.706   5.155  0.00  0.00    +0.000 C 
ATOM     22  H   UNL     1      48.484   0.967   5.380  0.00  0.00    +0.000 HD
ENDBRANCH  17  18
ENDBRANCH   5  17
TORSDOF 6
ENDMDL
MODEL 5
REMARK VINA RESULT:    -6.017      2.315      2.607
REMARK INTER + INTRA:          -8.840
REMARK INTER:                  -8.250
REMARK INTRA:                  -0.591
REMARK UNBOUND:                -0.713
REMARK  Name = 
REMARK  8 active torsions:
REMARK  status: ('A' for Active; 'I' for Inactive)
REMARK    1  A    between atoms: C_1  and  C_2
REMARK    2  A    between atoms: C_5  and  O_6
REMARK    3  A    between atoms: O_6  and  C_7
REMARK    4  A    between atoms: C_7  and  C_8
REMARK    5  A    between atoms: C_8  and  C_9
REMARK    6  A    between atoms: C_8  and  C_10
REMARK    7  A    between atoms: C_14  and  O_15
REMARK    8  A    between atoms: O_15  and  C_16
REMARK                            x       y       z     vdW  Elec       q    Type
REMARK                         _______ _______ _______ _____ _____    ______ ____
ROOT
ATOM      1  C   UNL     1      45.257   4.908  12.191  0.00  0.00    +0.000 A 
ATOM      2  C   UNL     1      44.777   6.115  11.658  0.00  0.00    +0.000 A 
ATOM      3  C   UNL     1      45.496   7.304  11.798  0.00  0.00    +0.000 A 
ATOM      4  C   UNL     1      46.715   7.316  12.474  0.00  0.00    +0.000 A 
ATOM      5  C   UNL     1      47.223   6.133  12.992  0.00  0.00    +0.000 A 
ATOM      6  C   UNL     1      46.501   4.940  12.852  0.00  0.00    +0.000 A 
ENDROOT
BRANCH   1   7
ATOM      7  C   UNL     1      44.501   3.584  12.061  0.00  0.00    +0.000 C 
ATOM      8  C   UNL     1      43.413   3.473  13.141  0.00  0.00    +0.000 C 
BRANCH   7   9
ATOM      9  C   UNL     1      43.841   3.329  10.686  0.00  0.00    +0.000 C 
BRANCH   9  10
ATOM     10  O   UNL     1      44.468   2.212  10.049  0.00  0.00    +0.000 OA
BRANCH  10  15
ATOM     11  C   UNL     1      47.665   1.473   6.577  0.00  0.00    +0.000 C 
ATOM     12  C   UNL     1      46.715   2.283   7.377  0.00  0.00    +0.000 A 
ATOM     13  C   UNL     1      46.424   3.625   7.218  0.00  0.00    +0.000 A 
ATOM     14  S   UNL     1      45.275   4.119   8.392  0.00  0.00    +0.000 S 
ATOM     15  C   UNL     1      45.252   2.527   9.018  0.00  0.00    +0.000 A 
ATOM     16  N   UNL     1      46.033   1.662   8.410  0.00  0.00    +0.000 NA
ENDBRANCH  10  15
ENDBRANCH   9  10
ENDBRANCH   7   9
ENDBRANCH   1   7
BRANCH   5  17
ATOM     17  O   UNL     1      48.406   6.037  13.683  0.00  0.00    +0.000 OA
BRANCH  17  18
ATOM     18  C   UNL     1      48.958   7.239  14.272  0.00  0.00    +0.000 C 
ATOM     19  C   UNL     1      50.185   7.871  13.584  0.00  0.00    +0.000 C 
ATOM     20  N   UNL     1      50.910   7.892  14.864  0.00  0.00    +0.000 NA
ATOM     21  C   UNL     1      49.900   7.010  15.469  0.00  0.00    +0.000 C 
ATOM     22  H   UNL     1      50.969   8.814  15.294  0.00  0.00    +0.000 HD
ENDBRANCH  17  18
ENDBRANCH   5  17
TORSDOF 6
ENDMDL
MODEL 6
REMARK VINA RESULT:    -6.013      2.688      3.194
REMARK INTER + INTRA:          -8.836
REMARK INTER:                  -8.481
REMARK INTRA:                  -0.355
REMARK UNBOUND:                -0.713
REMARK  Name = 
REMARK  8 active torsions:
REMARK  status: ('A' for Active; 'I' for Inactive)
REMARK    1  A    between atoms: C_1  and  C_2
REMARK    2  A    between atoms: C_5  and  O_6
REMARK    3  A    between atoms: O_6  and  C_7
REMARK    4  A    between atoms: C_7  and  C_8
REMARK    5  A    between atoms: C_8  and  C_9
REMARK    6  A    between atoms: C_8  and  C_10
REMARK    7  A    between atoms: C_14  and  O_15
REMARK    8  A    between atoms: O_15  and  C_16
REMARK                            x       y       z     vdW  Elec       q    Type
REMARK                         _______ _______ _______ _____ _____    ______ ____
ROOT
ATOM      1  C   UNL     1      44.562   6.672  11.927  0.00  0.00    +0.000 A 
ATOM      2  C   UNL     1      44.027   7.680  11.109  0.00  0.00    +0.000 A 
ATOM      3  C   UNL     1      44.473   9.000  11.201  0.00  0.00    +0.000 A 
ATOM      4  C   UNL     1      45.467   9.346  12.114  0.00  0.00    +0.000 A 
ATOM      5  C   UNL     1      46.029   8.366  12.920  0.00  0.00    +0.000 A 
ATOM      6  C   UNL     1      45.582   7.042  12.828  0.00  0.00    +0.000 A 
ENDROOT
BRANCH   1   7
ATOM      7  C   UNL     1      44.102   5.214  11.859  0.00  0.00    +0.000 C 
ATOM      8  C   UNL     1      42.942   4.967  12.838  0.00  0.00    +0.000 C 
BRANCH   7   9
ATOM      9  C   UNL     1      43.664   4.722  10.461  0.00  0.00    +0.000 C 
BRANCH   9  10
ATOM     10  O   UNL     1      44.010   3.343  10.305  0.00  0.00    +0.000 OA
BRANCH  10  15
ATOM     11  C   UNL     1      46.857   0.696   7.526  0.00  0.00    +0.000 C 
ATOM     12  C   UNL     1      46.236   1.958   7.998  0.00  0.00    +0.000 A 
ATOM     13  C   UNL     1      46.461   3.232   7.508  0.00  0.00    +0.000 A 
ATOM     14  S   UNL     1      45.525   4.370   8.385  0.00  0.00    +0.000 S 
ATOM     15  C   UNL     1      44.898   3.097   9.340  0.00  0.00    +0.000 A 
ATOM     16  N   UNL     1      45.333   1.892   9.045  0.00  0.00    +0.000 NA
ENDBRANCH  10  15
ENDBRANCH   9  10
ENDBRANCH   7   9
ENDBRANCH   1   7
BRANCH   5  17
ATOM     17  O   UNL     1      47.006   8.603  13.857  0.00  0.00    +0.000 OA
BRANCH  17  18
ATOM     18  C   UNL     1      48.387   8.382  13.482  0.00  0.00    +0.000 C 
ATOM     19  C   UNL     1      48.656   7.666  12.143  0.00  0.00    +0.000 C 
ATOM     20  N   UNL     1      49.540   6.703  12.819  0.00  0.00    +0.000 NA
ATOM     21  C   UNL     1      49.055   7.156  14.133  0.00  0.00    +0.000 C 
ATOM     22  H   UNL     1      50.533   6.869  12.662  0.00  0.00    +0.000 HD
ENDBRANCH  17  18
ENDBRANCH   5  17
TORSDOF 6
ENDMDL
MODEL 7
REMARK VINA RESULT:    -5.916      3.091      7.102
REMARK INTER + INTRA:          -8.704
REMARK INTER:                  -8.054
REMARK INTRA:                  -0.650
REMARK UNBOUND:                -0.713
REMARK  Name = 
REMARK  8 active torsions:
REMARK  status: ('A' for Active; 'I' for Inactive)
REMARK    1  A    between atoms: C_1  and  C_2
REMARK    2  A    between atoms: C_5  and  O_6
REMARK    3  A    between atoms: O_6  and  C_7
REMARK    4  A    between atoms: C_7  and  C_8
REMARK    5  A    between atoms: C_8  and  C_9
REMARK    6  A    between atoms: C_8  and  C_10
REMARK    7  A    between atoms: C_14  and  O_15
REMARK    8  A    between atoms: O_15  and  C_16
REMARK                            x       y       z     vdW  Elec       q    Type
REMARK                         _______ _______ _______ _____ _____    ______ ____
ROOT
ATOM      1  C   UNL     1      47.242   7.312  12.359  0.00  0.00    +0.000 A 
ATOM      2  C   UNL     1      46.554   8.521  12.553  0.00  0.00    +0.000 A 
ATOM      3  C   UNL     1      45.246   8.690  12.094  0.00  0.00    +0.000 A 
ATOM      4  C   UNL     1      44.592   7.655  11.429  0.00  0.00    +0.000 A 
ATOM      5  C   UNL     1      45.241   6.442  11.243  0.00  0.00    +0.000 A 
ATOM      6  C   UNL     1      46.553   6.272  11.702  0.00  0.00    +0.000 A 
ENDROOT
BRANCH   1   7
ATOM      7  C   UNL     1      48.675   7.084  12.845  0.00  0.00    +0.000 C 
ATOM      8  C   UNL     1      49.685   7.676  11.848  0.00  0.00    +0.000 C 
BRANCH   7   9
ATOM      9  C   UNL     1      48.997   7.649  14.247  0.00  0.00    +0.000 C 
BRANCH   9  10
ATOM     10  O   UNL     1      49.729   6.679  15.001  0.00  0.00    +0.000 OA
BRANCH  10  15
ATOM     11  C   UNL     1      47.186   3.408  17.381  0.00  0.00    +0.000 C 
ATOM     12  C   UNL     1      47.894   4.701  17.218  0.00  0.00    +0.000 A 
ATOM     13  C   UNL     1      48.020   5.706  18.159  0.00  0.00    +0.000 A 
ATOM     14  S   UNL     1      48.913   7.015  17.502  0.00  0.00    +0.000 S 
ATOM     15  C   UNL     1      49.063   6.155  16.031  0.00  0.00    +0.000 A 
ATOM     16  N   UNL     1      48.501   4.968  16.002  0.00  0.00    +0.000 NA
ENDBRANCH  10  15
ENDBRANCH   9  10
ENDBRANCH   7   9
ENDBRANCH   1   7
BRANCH   5  17
ATOM     17  O   UNL     1      44.691   5.364  10.593  0.00  0.00    +0.000 OA
BRANCH  17  18
ATOM     18  C   UNL     1      44.706   4.079  11.259  0.00  0.00    +0.000 C 
ATOM     19  C   UNL     1      44.405   2.830  10.405  0.00  0.00    +0.000 C 
ATOM     20  N   UNL     1      43.380   2.400  11.369  0.00  0.00    +0.000 NA
ATOM     21  C   UNL     1      43.416   3.719  12.020  0.00  0.00    +0.000 C 
ATOM     22  H   UNL     1      43.671   1.630  11.970  0.00  0.00    +0.000 HD
ENDBRANCH  17  18
ENDBRANCH   5  17
TORSDOF 6
ENDMDL
MODEL 8
REMARK VINA RESULT:    -5.848      2.953      4.117
REMARK INTER + INTRA:          -8.612
REMARK INTER:                  -8.225
REMARK INTRA:                  -0.387
REMARK UNBOUND:                -0.713
REMARK  Name = 
REMARK  8 active torsions:
REMARK  status: ('A' for Active; 'I' for Inactive)
REMARK    1  A    between atoms: C_1  and  C_2
REMARK    2  A    between atoms: C_5  and  O_6
REMARK    3  A    between atoms: O_6  and  C_7
REMARK    4  A    between atoms: C_7  and  C_8
REMARK    5  A    between atoms: C_8  and  C_9
REMARK    6  A    between atoms: C_8  and  C_10
REMARK    7  A    between atoms: C_14  and  O_15
REMARK    8  A    between atoms: O_15  and  C_16
REMARK                            x       y       z     vdW  Elec       q    Type
REMARK                         _______ _______ _______ _____ _____    ______ ____
ROOT
ATOM      1  C   UNL     1      45.585   4.687  11.871  0.00  0.00    +0.000 A 
ATOM      2  C   UNL     1      45.933   4.118  13.106  0.00  0.00    +0.000 A 
ATOM      3  C   UNL     1      46.733   4.806  14.020  0.00  0.00    +0.000 A 
ATOM      4  C   UNL     1      47.206   6.083  13.722  0.00  0.00    +0.000 A 
ATOM      5  C   UNL     1      46.859   6.679  12.517  0.00  0.00    +0.000 A 
ATOM      6  C   UNL     1      46.057   5.988  11.600  0.00  0.00    +0.000 A 
ENDROOT
BRANCH   1   7
ATOM      7  C   UNL     1      44.711   3.968  10.840  0.00  0.00    +0.000 C 
ATOM      8  C   UNL     1      43.297   3.737  11.397  0.00  0.00    +0.000 C 
BRANCH   7   9
ATOM      9  C   UNL     1      44.579   4.677   9.473  0.00  0.00    +0.000 C 
BRANCH   9  10
ATOM     10  O   UNL     1      44.181   3.732   8.476  0.00  0.00    +0.000 OA
BRANCH  10  15
ATOM     11  C   UNL     1      47.668   2.742   5.363  0.00  0.00    +0.000 C 
ATOM     12  C   UNL     1      46.824   2.495   6.557  0.00  0.00    +0.000 A 
ATOM     13  C   UNL     1      46.898   1.419   7.423  0.00  0.00    +0.000 A 
ATOM     14  S   UNL     1      45.704   1.567   8.645  0.00  0.00    +0.000 S 
ATOM     15  C   UNL     1      45.183   3.035   7.938  0.00  0.00    +0.000 A 
ATOM     16  N   UNL     1      45.839   3.418   6.866  0.00  0.00    +0.000 NA
ENDBRANCH  10  15
ENDBRANCH   9  10
ENDBRANCH   7   9
ENDBRANCH   1   7
BRANCH   5  17
ATOM     17  O   UNL     1      47.278   7.926  12.123  0.00  0.00    +0.000 OA
BRANCH  17  18
ATOM     18  C   UNL     1      46.707   9.083  12.779  0.00  0.00    +0.000 C 
ATOM     19  C   UNL     1      45.274   9.492  12.381  0.00  0.00    +0.000 C 
ATOM     20  N   UNL     1      45.720  10.871  12.134  0.00  0.00    +0.000 NA
ATOM     21  C   UNL     1      47.127  10.444  12.193  0.00  0.00    +0.000 C 
ATOM     22  H   UNL     1      45.455  11.532  12.864  0.00  0.00    +0.000 HD
ENDBRANCH  17  18
ENDBRANCH   5  17
TORSDOF 6
ENDMDL
MODEL 9
REMARK VINA RESULT:    -5.784      2.668      7.615
REMARK INTER + INTRA:          -8.526
REMARK INTER:                  -8.352
REMARK INTRA:                  -0.173
REMARK UNBOUND:                -0.713
REMARK  Name = 
REMARK  8 active torsions:
REMARK  status: ('A' for Active; 'I' for Inactive)
REMARK    1  A    between atoms: C_1  and  C_2
REMARK    2  A    between atoms: C_5  and  O_6
REMARK    3  A    between atoms: O_6  and  C_7
REMARK    4  A    between atoms: C_7  and  C_8
REMARK    5  A    between atoms: C_8  and  C_9
REMARK    6  A    between atoms: C_8  and  C_10
REMARK    7  A    between atoms: C_14  and  O_15
REMARK    8  A    between atoms: O_15  and  C_16
REMARK                            x       y       z     vdW  Elec       q    Type
REMARK                         _______ _______ _______ _____ _____    ______ ____
ROOT
ATOM      1  C   UNL     1      45.475   4.581  12.696  0.00  0.00    +0.000 A 
ATOM      2  C   UNL     1      44.290   5.239  13.061  0.00  0.00    +0.000 A 
ATOM      3  C   UNL     1      43.081   4.960  12.421  0.00  0.00    +0.000 A 
ATOM      4  C   UNL     1      43.026   4.013  11.399  0.00  0.00    +0.000 A 
ATOM      5  C   UNL     1      44.178   3.332  11.033  0.00  0.00    +0.000 A 
ATOM      6  C   UNL     1      45.392   3.613  11.675  0.00  0.00    +0.000 A 
ENDROOT
BRANCH   1   7
ATOM      7  C   UNL     1      46.821   4.857  13.370  0.00  0.00    +0.000 C 
ATOM      8  C   UNL     1      47.266   6.306  13.115  0.00  0.00    +0.000 C 
BRANCH   7   9
ATOM      9  C   UNL     1      46.863   4.603  14.894  0.00  0.00    +0.000 C 
BRANCH   9  10
ATOM     10  O   UNL     1      47.985   5.281  15.466  0.00  0.00    +0.000 OA
BRANCH  10  15
ATOM     11  C   UNL     1      51.540   3.961  18.373  0.00  0.00    +0.000 C 
ATOM     12  C   UNL     1      50.138   3.981  17.889  0.00  0.00    +0.000 A 
ATOM     13  C   UNL     1      49.062   3.296  18.422  0.00  0.00    +0.000 A 
ATOM     14  S   UNL     1      47.648   3.625  17.510  0.00  0.00    +0.000 S 
ATOM     15  C   UNL     1      48.563   4.643  16.484  0.00  0.00    +0.000 A 
ATOM     16  N   UNL     1      49.839   4.755  16.780  0.00  0.00    +0.000 NA
ENDBRANCH  10  15
ENDBRANCH   9  10
ENDBRANCH   7   9
ENDBRANCH   1   7
BRANCH   5  17
ATOM     17  O   UNL     1      44.234   2.390  10.035  0.00  0.00    +0.000 OA
BRANCH  17  18
ATOM     18  C   UNL     1      44.498   2.835   8.683  0.00  0.00    +0.000 C 
ATOM     19  C   UNL     1      45.892   2.539   8.095  0.00  0.00    +0.000 C 
ATOM     20  N   UNL     1      46.049   3.952   7.717  0.00  0.00    +0.000 NA
ATOM     21  C   UNL     1      44.887   4.318   8.544  0.00  0.00    +0.000 C 
ATOM     22  H   UNL     1      45.925   4.134   6.722  0.00  0.00    +0.000 HD
ENDBRANCH  17  18
ENDBRANCH   5  17
TORSDOF 6
ENDMDL
