MODEL 1
REMARK VINA RESULT:    -8.257      0.000      0.000
REMARK INTER + INTRA:         -13.526
REMARK INTER:                 -12.118
REMARK INTRA:                  -1.408
REMARK UNBOUND:                -1.408
REMARK  Name = 
REMARK  9 active torsions:
REMARK  status: ('A' for Active; 'I' for Inactive)
REMARK    1  A    between atoms: C_1  and  C_2
REMARK    2  A    between atoms: C_2  and  C_3
REMARK    3  A    between atoms: C_3  and  N_4
REMARK    4  A    between atoms: C_3  and  C_17
REMARK    5  A    between atoms: C_5  and  C_7
REMARK    6  A    between atoms: C_20  and  C_21
REMARK    7  A    between atoms: C_21  and  N_22
REMARK    8  A    between atoms: N_22  and  C_23
REMARK    9  A    between atoms: C_23  and  C_24
REMARK                            x       y       z     vdW  Elec       q    Type
REMARK                         _______ _______ _______ _____ _____    ______ ____
ROOT
ATOM      1  C   UNL     1      48.137   6.697  13.347  0.00  0.00    +0.000 C 
ENDROOT
BRANCH   1   2
ATOM      2  C   UNL     1      46.992   5.899  12.755  0.00  0.00    +0.000 A 
ATOM      3  C   UNL     1      46.408   6.234  11.531  0.00  0.00    +0.000 A 
ATOM      4  C   UNL     1      45.372   5.461  11.018  0.00  0.00    +0.000 A 
ATOM      5  C   UNL     1      44.927   4.362  11.745  0.00  0.00    +0.000 A 
ATOM      6  N   UNL     1      45.465   4.021  12.945  0.00  0.00    +0.000 NA
ATOM      7  C   UNL     1      46.478   4.787  13.416  0.00  0.00    +0.000 A 
BRANCH   5   8
ATOM      8  C   UNL     1      43.778   3.518  11.218  0.00  0.00    +0.000 C 
BRANCH   8   9
ATOM      9  N   UNL     1      43.809   3.286   9.765  0.00  0.00    +0.000 NA
ATOM     10  H   UNL     1      44.343   4.054   9.356  0.00  0.00    +0.000 HD
BRANCH   9  11
ATOM     11  C   UNL     1      44.480   2.031   9.424  0.00  0.00    +0.000 C 
BRANCH  11  12
ATOM     12  C   UNL     1      45.591   2.260   8.428  0.00  0.00    +0.000 A 
ATOM     13  C   UNL     1      46.402   1.199   8.011  0.00  0.00    +0.000 A 
ATOM     14  C   UNL     1      47.409   1.450   7.093  0.00  0.00    +0.000 A 
ATOM     15  N   UNL     1      47.663   2.667   6.569  0.00  0.00    +0.000 NA
ATOM     16  C   UNL     1      46.872   3.681   6.986  0.00  0.00    +0.000 A 
ATOM     17  C   UNL     1      45.837   3.529   7.895  0.00  0.00    +0.000 A 
ENDBRANCH  11  12
ENDBRANCH   9  11
ENDBRANCH   8   9
ENDBRANCH   5   8
ENDBRANCH   1   2
BRANCH   1  18
ATOM     18  N   UNL     1      47.972   6.760  14.796  0.00  0.00    +0.000 N 
ATOM     19  C   UNL     1      49.045   6.751  15.659  0.00  0.00    +0.000 C 
ATOM     20  O   UNL     1      50.202   6.666  15.267  0.00  0.00    +0.000 OA
ATOM     21  H   UNL     1      47.038   6.820  15.170  0.00  0.00    +0.000 HD
BRANCH  19  22
ATOM     22  C   UNL     1      48.694   6.885  17.075  0.00  0.00    +0.000 A 
ATOM     23  C   UNL     1      48.286   8.076  17.658  0.00  0.00    +0.000 A 
ATOM     24  S   UNL     1      47.989   7.943  19.335  0.00  0.00    +0.000 S 
ATOM     25  C   UNL     1      48.416   6.295  19.340  0.00  0.00    +0.000 A 
ATOM     26  N   UNL     1      48.389   5.567  20.487  0.00  0.00    +0.000 NA
ATOM     27  C   UNL     1      48.751   4.337  20.344  0.00  0.00    +0.000 A 
ATOM     28  N   UNL     1      49.132   3.767  19.153  0.00  0.00    +0.000 N 
ATOM     29  C   UNL     1      49.109   4.443  17.955  0.00  0.00    +0.000 A 
ATOM     30  O   UNL     1      49.316   3.850  16.900  0.00  0.00    +0.000 OA
ATOM     31  C   UNL     1      48.763   5.848  18.076  0.00  0.00    +0.000 A 
ATOM     32  H   UNL     1      49.366   2.789  19.097  0.00  0.00    +0.000 HD
ENDBRANCH  19  22
ENDBRANCH   1  18
BRANCH   1  34
ATOM     33  C   UNL     1      49.464   8.367  11.903  0.00  0.00    +0.000 C 
ATOM     34  C   UNL     1      48.228   8.124  12.762  0.00  0.00    +0.000 C 
ENDBRANCH   1  34
TORSDOF 8
ENDMDL
MODEL 2
REMARK VINA RESULT:    -7.910      1.559      2.584
REMARK INTER + INTRA:         -13.018
REMARK INTER:                 -11.387
REMARK INTRA:                  -1.631
REMARK UNBOUND:                -1.408
REMARK  Name = 
REMARK  9 active torsions:
REMARK  status: ('A' for Active; 'I' for Inactive)
REMARK    1  A    between atoms: C_1  and  C_2
REMARK    2  A    between atoms: C_2  and  C_3
REMARK    3  A    between atoms: C_3  and  N_4
REMARK    4  A    between atoms: C_3  and  C_17
REMARK    5  A    between atoms: C_5  and  C_7
REMARK    6  A    between atoms: C_20  and  C_21
REMARK    7  A    between atoms: C_21  and  N_22
REMARK    8  A    between atoms: N_22  and  C_23
REMARK    9  A    between atoms: C_23  and  C_24
REMARK                            x       y       z     vdW  Elec       q    Type
REMARK                         _______ _______ _______ _____ _____    ______ ____
ROOT
ATOM      1  C   UNL     1      48.286   6.526  13.507  0.00  0.00    +0.000 C 
ENDROOT
BRANCH   1   2
ATOM      2  C   UNL     1      47.078   5.843  12.896  0.00  0.00    +0.000 A 
ATOM      3  C   UNL     1      46.504   6.280  11.699  0.00  0.00    +0.000 A 
ATOM      4  C   UNL     1      45.408   5.611  11.166  0.00  0.00    +0.000 A 
ATOM      5  C   UNL     1      44.893   4.512  11.846  0.00  0.00    +0.000 A 
ATOM      6  N   UNL     1      45.420   4.074  13.019  0.00  0.00    +0.000 NA
ATOM      7  C   UNL     1      46.493   4.740  13.510  0.00  0.00    +0.000 A 
BRANCH   5   8
ATOM      8  C   UNL     1      43.680   3.781  11.298  0.00  0.00    +0.000 C 
BRANCH   8   9
ATOM      9  N   UNL     1      43.739   3.497   9.855  0.00  0.00    +0.000 NA
ATOM     10  H   UNL     1      44.293   4.243   9.432  0.00  0.00    +0.000 HD
BRANCH   9  11
ATOM     11  C   UNL     1      44.400   2.223   9.573  0.00  0.00    +0.000 C 
BRANCH  11  12
ATOM     12  C   UNL     1      45.497   2.392   8.550  0.00  0.00    +0.000 A 
ATOM     13  C   UNL     1      46.272   1.298   8.152  0.00  0.00    +0.000 A 
ATOM     14  C   UNL     1      47.268   1.493   7.209  0.00  0.00    +0.000 A 
ATOM     15  N   UNL     1      47.542   2.687   6.641  0.00  0.00    +0.000 NA
ATOM     16  C   UNL     1      46.786   3.733   7.040  0.00  0.00    +0.000 A 
ATOM     17  C   UNL     1      45.765   3.636   7.973  0.00  0.00    +0.000 A 
ENDBRANCH  11  12
ENDBRANCH   9  11
ENDBRANCH   8   9
ENDBRANCH   5   8
ENDBRANCH   1   2
BRANCH   1  18
ATOM     18  N   UNL     1      47.995   6.847  14.901  0.00  0.00    +0.000 N 
ATOM     19  C   UNL     1      48.933   6.707  15.899  0.00  0.00    +0.000 C 
ATOM     20  O   UNL     1      50.062   6.283  15.684  0.00  0.00    +0.000 OA
ATOM     21  H   UNL     1      47.075   7.190  15.132  0.00  0.00    +0.000 HD
BRANCH  19  22
ATOM     22  C   UNL     1      48.485   7.137  17.226  0.00  0.00    +0.000 A 
ATOM     23  C   UNL     1      48.284   6.268  18.288  0.00  0.00    +0.000 A 
ATOM     24  S   UNL     1      47.713   7.044  19.700  0.00  0.00    +0.000 S 
ATOM     25  C   UNL     1      47.696   8.562  18.929  0.00  0.00    +0.000 A 
ATOM     26  N   UNL     1      47.292   9.679  19.589  0.00  0.00    +0.000 NA
ATOM     27  C   UNL     1      47.316  10.755  18.877  0.00  0.00    +0.000 A 
ATOM     28  N   UNL     1      47.718  10.815  17.564  0.00  0.00    +0.000 N 
ATOM     29  C   UNL     1      48.201   9.726  16.875  0.00  0.00    +0.000 A 
ATOM     30  O   UNL     1      48.685   9.861  15.755  0.00  0.00    +0.000 OA
ATOM     31  C   UNL     1      48.138   8.481  17.619  0.00  0.00    +0.000 A 
ATOM     32  H   UNL     1      47.755  11.693  17.072  0.00  0.00    +0.000 HD
ENDBRANCH  19  22
ENDBRANCH   1  18
BRANCH   1  34
ATOM     33  C   UNL     1      50.197   8.000  12.609  0.00  0.00    +0.000 C 
ATOM     34  C   UNL     1      48.691   7.805  12.742  0.00  0.00    +0.000 C 
ENDBRANCH   1  34
TORSDOF 8
ENDMDL
MODEL 3
REMARK VINA RESULT:    -7.422      3.337      7.980
REMARK INTER + INTRA:         -12.301
REMARK INTER:                 -10.844
REMARK INTRA:                  -1.457
REMARK UNBOUND:                -1.408
REMARK  Name = 
REMARK  9 active torsions:
REMARK  status: ('A' for Active; 'I' for Inactive)
REMARK    1  A    between atoms: C_1  and  C_2
REMARK    2  A    between atoms: C_2  and  C_3
REMARK    3  A    between atoms: C_3  and  N_4
REMARK    4  A    between atoms: C_3  and  C_17
REMARK    5  A    between atoms: C_5  and  C_7
REMARK    6  A    between atoms: C_20  and  C_21
REMARK    7  A    between atoms: C_21  and  N_22
REMARK    8  A    between atoms: N_22  and  C_23
REMARK    9  A    between atoms: C_23  and  C_24
REMARK                            x       y       z     vdW  Elec       q    Type
REMARK                         _______ _______ _______ _____ _____    ______ ____
ROOT
ATOM      1  C   UNL     1      47.857   8.210  12.424  0.00  0.00    +0.000 C 
ENDROOT
BRANCH   1   2
ATOM      2  C   UNL     1      48.265   7.839  13.836  0.00  0.00    +0.000 A 
ATOM      3  C   UNL     1      48.599   8.804  14.790  0.00  0.00    +0.000 A 
ATOM      4  C   UNL     1      48.949   8.418  16.079  0.00  0.00    +0.000 A 
ATOM      5  C   UNL     1      48.968   7.064  16.395  0.00  0.00    +0.000 A 
ATOM      6  N   UNL     1      48.663   6.103  15.485  0.00  0.00    +0.000 NA
ATOM      7  C   UNL     1      48.317   6.508  14.239  0.00  0.00    +0.000 A 
BRANCH   5   8
ATOM      8  C   UNL     1      49.373   6.616  17.789  0.00  0.00    +0.000 C 
BRANCH   8   9
ATOM      9  N   UNL     1      48.278   6.042  18.587  0.00  0.00    +0.000 NA
ATOM     10  H   UNL     1      47.499   5.883  17.946  0.00  0.00    +0.000 HD
BRANCH   9  11
ATOM     11  C   UNL     1      48.647   4.757  19.182  0.00  0.00    +0.000 C 
BRANCH  11  12
ATOM     12  C   UNL     1      48.908   3.718  18.119  0.00  0.00    +0.000 A 
ATOM     13  C   UNL     1      50.187   3.180  17.950  0.00  0.00    +0.000 A 
ATOM     14  C   UNL     1      50.386   2.226  16.965  0.00  0.00    +0.000 A 
ATOM     15  N   UNL     1      49.411   1.775  16.148  0.00  0.00    +0.000 NA
ATOM     16  C   UNL     1      48.182   2.308  16.324  0.00  0.00    +0.000 A 
ATOM     17  C   UNL     1      47.884   3.263  17.284  0.00  0.00    +0.000 A 
ENDBRANCH  11  12
ENDBRANCH   9  11
ENDBRANCH   8   9
ENDBRANCH   5   8
ENDBRANCH   1   2
BRANCH   1  18
ATOM     18  N   UNL     1      47.252   7.046  11.784  0.00  0.00    +0.000 N 
ATOM     19  C   UNL     1      45.919   7.006  11.440  0.00  0.00    +0.000 C 
ATOM     20  O   UNL     1      45.153   7.933  11.671  0.00  0.00    +0.000 OA
ATOM     21  H   UNL     1      47.838   6.251  11.583  0.00  0.00    +0.000 HD
BRANCH  19  22
ATOM     22  C   UNL     1      45.501   5.782  10.750  0.00  0.00    +0.000 A 
ATOM     23  C   UNL     1      45.740   5.537   9.406  0.00  0.00    +0.000 A 
ATOM     24  S   UNL     1      45.095   4.051   8.863  0.00  0.00    +0.000 S 
ATOM     25  C   UNL     1      44.459   3.698  10.402  0.00  0.00    +0.000 A 
ATOM     26  N   UNL     1      43.764   2.552  10.627  0.00  0.00    +0.000 NA
ATOM     27  C   UNL     1      43.327   2.423  11.834  0.00  0.00    +0.000 A 
ATOM     28  N   UNL     1      43.531   3.337  12.840  0.00  0.00    +0.000 N 
ATOM     29  C   UNL     1      44.286   4.476  12.681  0.00  0.00    +0.000 A 
ATOM     30  O   UNL     1      44.560   5.183  13.646  0.00  0.00    +0.000 OA
ATOM     31  C   UNL     1      44.749   4.691  11.321  0.00  0.00    +0.000 A 
ATOM     32  H   UNL     1      43.200   3.161  13.776  0.00  0.00    +0.000 HD
ENDBRANCH  19  22
ENDBRANCH   1  18
BRANCH   1  34
ATOM     33  C   UNL     1      50.173   7.706  11.414  0.00  0.00    +0.000 C 
ATOM     34  C   UNL     1      49.046   8.720  11.579  0.00  0.00    +0.000 C 
ENDBRANCH   1  34
TORSDOF 8
ENDMDL
MODEL 4
REMARK VINA RESULT:    -7.333      2.499      4.615
REMARK INTER + INTRA:         -12.171
REMARK INTER:                 -10.706
REMARK INTRA:                  -1.465
REMARK UNBOUND:                -1.408
REMARK  Name = 
REMARK  9 active torsions:
REMARK  status: ('A' for Active; 'I' for Inactive)
REMARK    1  A    between atoms: C_1  and  C_2
REMARK    2  A    between atoms: C_2  and  C_3
REMARK    3  A    between atoms: C_3  and  N_4
REMARK    4  A    between atoms: C_3  and  C_17
REMARK    5  A    between atoms: C_5  and  C_7
REMARK    6  A    between atoms: C_20  and  C_21
REMARK    7  A    between atoms: C_21  and  N_22
REMARK    8  A    between atoms: N_22  and  C_23
REMARK    9  A    between atoms: C_23  and  C_24
REMARK                            x       y       z     vdW  Elec       q    Type
REMARK                         _______ _______ _______ _____ _____    ______ ____
ROOT
ATOM      1  C   UNL     1      47.142   5.024  14.958  0.00  0.00    +0.000 C 
ENDROOT
BRANCH   1   2
ATOM      2  C   UNL     1      46.251   4.801  13.752  0.00  0.00    +0.000 A 
ATOM      3  C   UNL     1      46.130   3.552  13.138  0.00  0.00    +0.000 A 
ATOM      4  C   UNL     1      45.284   3.391  12.046  0.00  0.00    +0.000 A 
ATOM      5  C   UNL     1      44.574   4.490  11.575  0.00  0.00    +0.000 A 
ATOM      6  N   UNL     1      44.683   5.720  12.142  0.00  0.00    +0.000 NA
ATOM      7  C   UNL     1      45.507   5.846  13.210  0.00  0.00    +0.000 A 
BRANCH   5   8
ATOM      8  C   UNL     1      43.665   4.346  10.367  0.00  0.00    +0.000 C 
BRANCH   8   9
ATOM      9  N   UNL     1      44.118   3.355   9.378  0.00  0.00    +0.000 NA
ATOM     10  H   UNL     1      43.278   2.932   8.979  0.00  0.00    +0.000 HD
BRANCH   9  11
ATOM     11  C   UNL     1      44.878   3.972   8.291  0.00  0.00    +0.000 C 
BRANCH  11  12
ATOM     12  C   UNL     1      45.902   3.015   7.730  0.00  0.00    +0.000 A 
ATOM     13  C   UNL     1      46.013   1.716   8.235  0.00  0.00    +0.000 A 
ATOM     14  C   UNL     1      46.964   0.867   7.691  0.00  0.00    +0.000 A 
ATOM     15  N   UNL     1      47.800   1.217   6.692  0.00  0.00    +0.000 NA
ATOM     16  C   UNL     1      47.681   2.477   6.218  0.00  0.00    +0.000 A 
ATOM     17  C   UNL     1      46.758   3.397   6.693  0.00  0.00    +0.000 A 
ENDBRANCH  11  12
ENDBRANCH   9  11
ENDBRANCH   8   9
ENDBRANCH   5   8
ENDBRANCH   1   2
BRANCH   1  18
ATOM     18  N   UNL     1      48.323   5.775  14.543  0.00  0.00    +0.000 N 
ATOM     19  C   UNL     1      48.797   6.852  15.259  0.00  0.00    +0.000 C 
ATOM     20  O   UNL     1      48.246   7.262  16.273  0.00  0.00    +0.000 OA
ATOM     21  H   UNL     1      48.806   5.485  13.708  0.00  0.00    +0.000 HD
BRANCH  19  22
ATOM     22  C   UNL     1      50.028   7.445  14.728  0.00  0.00    +0.000 A 
ATOM     23  C   UNL     1      51.239   7.438  15.405  0.00  0.00    +0.000 A 
ATOM     24  S   UNL     1      52.489   8.246  14.565  0.00  0.00    +0.000 S 
ATOM     25  C   UNL     1      51.446   8.648  13.281  0.00  0.00    +0.000 A 
ATOM     26  N   UNL     1      51.891   9.363  12.214  0.00  0.00    +0.000 NA
ATOM     27  C   UNL     1      50.989   9.607  11.325  0.00  0.00    +0.000 A 
ATOM     28  N   UNL     1      49.681   9.193  11.404  0.00  0.00    +0.000 N 
ATOM     29  C   UNL     1      49.200   8.409  12.427  0.00  0.00    +0.000 A 
ATOM     30  O   UNL     1      48.066   7.944  12.377  0.00  0.00    +0.000 OA
ATOM     31  C   UNL     1      50.167   8.157  13.481  0.00  0.00    +0.000 A 
ATOM     32  H   UNL     1      49.032   9.380  10.656  0.00  0.00    +0.000 HD
ENDBRANCH  19  22
ENDBRANCH   1  18
BRANCH   1  34
ATOM     33  C   UNL     1      48.012   3.853  17.082  0.00  0.00    +0.000 C 
ATOM     34  C   UNL     1      47.567   3.700  15.632  0.00  0.00    +0.000 C 
ENDBRANCH   1  34
TORSDOF 8
ENDMDL
MODEL 5
REMARK VINA RESULT:    -7.083      3.075      8.469
REMARK INTER + INTRA:         -11.804
REMARK INTER:                 -10.541
REMARK INTRA:                  -1.262
REMARK UNBOUND:                -1.408
REMARK  Name = 
REMARK  9 active torsions:
REMARK  status: ('A' for Active; 'I' for Inactive)
REMARK    1  A    between atoms: C_1  and  C_2
REMARK    2  A    between atoms: C_2  and  C_3
REMARK    3  A    between atoms: C_3  and  N_4
REMARK    4  A    between atoms: C_3  and  C_17
REMARK    5  A    between atoms: C_5  and  C_7
REMARK    6  A    between atoms: C_20  and  C_21
REMARK    7  A    between atoms: C_21  and  N_22
REMARK    8  A    between atoms: N_22  and  C_23
REMARK    9  A    between atoms: C_23  and  C_24
REMARK                            x       y       z     vdW  Elec       q    Type
REMARK                         _______ _______ _______ _____ _____    ______ ____
ROOT
ATOM      1  C   UNL     1      47.370   7.752  12.773  0.00  0.00    +0.000 C 
ENDROOT
BRANCH   1   2
ATOM      2  C   UNL     1      48.052   7.595  14.118  0.00  0.00    +0.000 A 
ATOM      3  C   UNL     1      48.128   8.643  15.039  0.00  0.00    +0.000 A 
ATOM      4  C   UNL     1      48.746   8.447  16.269  0.00  0.00    +0.000 A 
ATOM      5  C   UNL     1      49.290   7.201  16.558  0.00  0.00    +0.000 A 
ATOM      6  N   UNL     1      49.245   6.168  15.677  0.00  0.00    +0.000 NA
ATOM      7  C   UNL     1      48.629   6.385  14.490  0.00  0.00    +0.000 A 
BRANCH   5   8
ATOM      8  C   UNL     1      49.995   6.970  17.885  0.00  0.00    +0.000 C 
BRANCH   8   9
ATOM      9  N   UNL     1      49.215   6.194  18.862  0.00  0.00    +0.000 NA
ATOM     10  H   UNL     1      48.342   5.933  18.401  0.00  0.00    +0.000 HD
BRANCH   9  11
ATOM     11  C   UNL     1      49.902   4.966  19.263  0.00  0.00    +0.000 C 
BRANCH  11  12
ATOM     12  C   UNL     1      49.720   3.877  18.234  0.00  0.00    +0.000 A 
ATOM     13  C   UNL     1      50.811   3.112  17.809  0.00  0.00    +0.000 A 
ATOM     14  C   UNL     1      50.602   2.120  16.864  0.00  0.00    +0.000 A 
ATOM     15  N   UNL     1      49.399   1.840  16.322  0.00  0.00    +0.000 NA
ATOM     16  C   UNL     1      48.357   2.590  16.742  0.00  0.00    +0.000 A 
ATOM     17  C   UNL     1      48.465   3.601  17.685  0.00  0.00    +0.000 A 
ENDBRANCH  11  12
ENDBRANCH   9  11
ENDBRANCH   8   9
ENDBRANCH   5   8
ENDBRANCH   1   2
BRANCH   1  18
ATOM     18  N   UNL     1      46.581   6.555  12.498  0.00  0.00    +0.000 N 
ATOM     19  C   UNL     1      45.385   6.604  11.818  0.00  0.00    +0.000 C 
ATOM     20  O   UNL     1      44.896   7.655  11.422  0.00  0.00    +0.000 OA
ATOM     21  H   UNL     1      46.935   5.665  12.814  0.00  0.00    +0.000 HD
BRANCH  19  22
ATOM     22  C   UNL     1      44.763   5.298  11.578  0.00  0.00    +0.000 A 
ATOM     23  C   UNL     1      43.959   4.648  12.502  0.00  0.00    +0.000 A 
ATOM     24  S   UNL     1      43.412   3.120  11.969  0.00  0.00    +0.000 S 
ATOM     25  C   UNL     1      44.250   3.270  10.495  0.00  0.00    +0.000 A 
ATOM     26  N   UNL     1      44.211   2.281   9.563  0.00  0.00    +0.000 NA
ATOM     27  C   UNL     1      44.905   2.524   8.502  0.00  0.00    +0.000 A 
ATOM     28  N   UNL     1      45.629   3.672   8.287  0.00  0.00    +0.000 N 
ATOM     29  C   UNL     1      45.643   4.729   9.168  0.00  0.00    +0.000 A 
ATOM     30  O   UNL     1      46.184   5.787   8.864  0.00  0.00    +0.000 OA
ATOM     31  C   UNL     1      44.923   4.477  10.403  0.00  0.00    +0.000 A 
ATOM     32  H   UNL     1      46.118   3.822   7.419  0.00  0.00    +0.000 HD
ENDBRANCH  19  22
ENDBRANCH   1  18
BRANCH   1  34
ATOM     33  C   UNL     1      48.865   9.438  11.525  0.00  0.00    +0.000 C 
ATOM     34  C   UNL     1      48.376   7.998  11.626  0.00  0.00    +0.000 C 
ENDBRANCH   1  34
TORSDOF 8
ENDMDL
MODEL 6
REMARK VINA RESULT:    -6.907      2.939      4.635
REMARK INTER + INTRA:         -11.546
REMARK INTER:                 -10.395
REMARK INTRA:                  -1.151
REMARK UNBOUND:                -1.408
REMARK  Name = 
REMARK  9 active torsions:
REMARK  status: ('A' for Active; 'I' for Inactive)
REMARK    1  A    between atoms: C_1  and  C_2
REMARK    2  A    between atoms: C_2  and  C_3
REMARK    3  A    between atoms: C_3  and  N_4
REMARK    4  A    between atoms: C_3  and  C_17
REMARK    5  A    between atoms: C_5  and  C_7
REMARK    6  A    between atoms: C_20  and  C_21
REMARK    7  A    between atoms: C_21  and  N_22
REMARK    8  A    between atoms: N_22  and  C_23
REMARK    9  A    between atoms: C_23  and  C_24
REMARK                            x       y       z     vdW  Elec       q    Type
REMARK                         _______ _______ _______ _____ _____    ______ ____
ROOT
ATOM      1  C   UNL     1      47.490   5.946  14.687  0.00  0.00    +0.000 C 
ENDROOT
BRANCH   1   2
ATOM      2  C   UNL     1      46.543   5.222  13.749  0.00  0.00    +0.000 A 
ATOM      3  C   UNL     1      46.677   3.860  13.465  0.00  0.00    +0.000 A 
ATOM      4  C   UNL     1      45.773   3.234  12.614  0.00  0.00    +0.000 A 
ATOM      5  C   UNL     1      44.748   3.985  12.049  0.00  0.00    +0.000 A 
ATOM      6  N   UNL     1      44.602   5.313  12.295  0.00  0.00    +0.000 NA
ATOM      7  C   UNL     1      45.491   5.895  13.135  0.00  0.00    +0.000 A 
BRANCH   5   8
ATOM      8  C   UNL     1      43.764   3.329  11.095  0.00  0.00    +0.000 C 
BRANCH   8   9
ATOM      9  N   UNL     1      44.385   2.470  10.074  0.00  0.00    +0.000 NA
ATOM     10  H   UNL     1      43.717   1.723   9.873  0.00  0.00    +0.000 HD
BRANCH   9  11
ATOM     11  C   UNL     1      44.645   3.195   8.831  0.00  0.00    +0.000 C 
BRANCH  11  12
ATOM     12  C   UNL     1      45.815   2.599   8.087  0.00  0.00    +0.000 A 
ATOM     13  C   UNL     1      46.650   3.408   7.309  0.00  0.00    +0.000 A 
ATOM     14  C   UNL     1      47.715   2.823   6.643  0.00  0.00    +0.000 A 
ATOM     15  N   UNL     1      48.004   1.506   6.698  0.00  0.00    +0.000 NA
ATOM     16  C   UNL     1      47.186   0.739   7.451  0.00  0.00    +0.000 A 
ATOM     17  C   UNL     1      46.099   1.232   8.157  0.00  0.00    +0.000 A 
ENDBRANCH  11  12
ENDBRANCH   9  11
ENDBRANCH   8   9
ENDBRANCH   5   8
ENDBRANCH   1   2
BRANCH   1  18
ATOM     18  N   UNL     1      48.518   6.617  13.898  0.00  0.00    +0.000 N 
ATOM     19  C   UNL     1      48.569   7.988  13.772  0.00  0.00    +0.000 C 
ATOM     20  O   UNL     1      47.744   8.727  14.295  0.00  0.00    +0.000 OA
ATOM     21  H   UNL     1      49.214   6.052  13.438  0.00  0.00    +0.000 HD
BRANCH  19  22
ATOM     22  C   UNL     1      49.706   8.489  12.995  0.00  0.00    +0.000 A 
ATOM     23  C   UNL     1      49.579   9.126  11.769  0.00  0.00    +0.000 A 
ATOM     24  S   UNL     1      51.077   9.558  11.071  0.00  0.00    +0.000 S 
ATOM     25  C   UNL     1      51.944   8.889  12.375  0.00  0.00    +0.000 A 
ATOM     26  N   UNL     1      53.302   8.915  12.400  0.00  0.00    +0.000 NA
ATOM     27  C   UNL     1      53.825   8.358  13.441  0.00  0.00    +0.000 A 
ATOM     28  N   UNL     1      53.108   7.784  14.463  0.00  0.00    +0.000 N 
ATOM     29  C   UNL     1      51.733   7.795  14.517  0.00  0.00    +0.000 A 
ATOM     30  O   UNL     1      51.145   7.401  15.519  0.00  0.00    +0.000 OA
ATOM     31  C   UNL     1      51.101   8.360  13.338  0.00  0.00    +0.000 A 
ATOM     32  H   UNL     1      53.573   7.401  15.271  0.00  0.00    +0.000 HD
ENDBRANCH  19  22
ENDBRANCH   1  18
BRANCH   1  34
ATOM     33  C   UNL     1      47.160   4.338  16.673  0.00  0.00    +0.000 C 
ATOM     34  C   UNL     1      48.146   4.996  15.713  0.00  0.00    +0.000 C 
ENDBRANCH   1  34
TORSDOF 8
ENDMDL
MODEL 7
REMARK VINA RESULT:    -6.148      2.025      2.602
REMARK INTER + INTRA:         -10.432
REMARK INTER:                  -9.608
REMARK INTRA:                  -0.825
REMARK UNBOUND:                -1.408
REMARK  Name = 
REMARK  9 active torsions:
REMARK  status: ('A' for Active; 'I' for Inactive)
REMARK    1  A    between atoms: C_1  and  C_2
REMARK    2  A    between atoms: C_2  and  C_3
REMARK    3  A    between atoms: C_3  and  N_4
REMARK    4  A    between atoms: C_3  and  C_17
REMARK    5  A    between atoms: C_5  and  C_7
REMARK    6  A    between atoms: C_20  and  C_21
REMARK    7  A    between atoms: C_21  and  N_22
REMARK    8  A    between atoms: N_22  and  C_23
REMARK    9  A    between atoms: C_23  and  C_24
REMARK                            x       y       z     vdW  Elec       q    Type
REMARK                         _______ _______ _______ _____ _____    ______ ____
ROOT
ATOM      1  C   UNL     1      49.033   8.315  13.257  0.00  0.00    +0.000 C 
ENDROOT
BRANCH   1   2
ATOM      2  C   UNL     1      47.708   7.700  12.855  0.00  0.00    +0.000 A 
ATOM      3  C   UNL     1      47.593   6.356  12.489  0.00  0.00    +0.000 A 
ATOM      4  C   UNL     1      46.352   5.830  12.146  0.00  0.00    +0.000 A 
ATOM      5  C   UNL     1      45.238   6.662  12.167  0.00  0.00    +0.000 A 
ATOM      6  N   UNL     1      45.321   7.975  12.505  0.00  0.00    +0.000 NA
ATOM      7  C   UNL     1      46.541   8.459  12.842  0.00  0.00    +0.000 A 
BRANCH   5   8
ATOM      8  C   UNL     1      43.876   6.118  11.771  0.00  0.00    +0.000 C 
BRANCH   8   9
ATOM      9  N   UNL     1      43.810   5.576  10.405  0.00  0.00    +0.000 NA
ATOM     10  H   UNL     1      44.680   5.842   9.941  0.00  0.00    +0.000 HD
BRANCH   9  11
ATOM     11  C   UNL     1      43.717   4.116  10.397  0.00  0.00    +0.000 C 
BRANCH  11  12
ATOM     12  C   UNL     1      44.712   3.511   9.437  0.00  0.00    +0.000 A 
ATOM     13  C   UNL     1      45.411   4.320   8.534  0.00  0.00    +0.000 A 
ATOM     14  C   UNL     1      46.319   3.726   7.671  0.00  0.00    +0.000 A 
ATOM     15  N   UNL     1      46.576   2.402   7.645  0.00  0.00    +0.000 NA
ATOM     16  C   UNL     1      45.890   1.636   8.521  0.00  0.00    +0.000 A 
ATOM     17  C   UNL     1      44.966   2.137   9.426  0.00  0.00    +0.000 A 
ENDBRANCH  11  12
ENDBRANCH   9  11
ENDBRANCH   8   9
ENDBRANCH   5   8
ENDBRANCH   1   2
BRANCH   1  18
ATOM     18  N   UNL     1      49.646   7.490  14.293  0.00  0.00    +0.000 N 
ATOM     19  C   UNL     1      49.240   7.540  15.609  0.00  0.00    +0.000 C 
ATOM     20  O   UNL     1      48.358   8.297  15.995  0.00  0.00    +0.000 OA
ATOM     21  H   UNL     1      50.385   6.858  14.028  0.00  0.00    +0.000 HD
BRANCH  19  22
ATOM     22  C   UNL     1      49.923   6.596  16.497  0.00  0.00    +0.000 A 
ATOM     23  C   UNL     1      51.111   6.880  17.154  0.00  0.00    +0.000 A 
ATOM     24  S   UNL     1      51.701   5.573  18.084  0.00  0.00    +0.000 S 
ATOM     25  C   UNL     1      50.398   4.580  17.620  0.00  0.00    +0.000 A 
ATOM     26  N   UNL     1      50.300   3.300  18.066  0.00  0.00    +0.000 NA
ATOM     27  C   UNL     1      49.271   2.661  17.622  0.00  0.00    +0.000 A 
ATOM     28  N   UNL     1      48.326   3.190  16.777  0.00  0.00    +0.000 N 
ATOM     29  C   UNL     1      48.344   4.500  16.354  0.00  0.00    +0.000 A 
ATOM     30  O   UNL     1      47.401   4.964  15.721  0.00  0.00    +0.000 OA
ATOM     31  C   UNL     1      49.516   5.242  16.783  0.00  0.00    +0.000 A 
ATOM     32  H   UNL     1      47.521   2.653  16.497  0.00  0.00    +0.000 HD
ENDBRANCH  19  22
ENDBRANCH   1  18
BRANCH   1  34
ATOM     33  C   UNL     1      49.535  10.810  12.858  0.00  0.00    +0.000 C 
ATOM     34  C   UNL     1      48.882   9.769  13.759  0.00  0.00    +0.000 C 
ENDBRANCH   1  34
TORSDOF 8
ENDMDL
MODEL 8
REMARK VINA RESULT:    -5.744      4.749      9.246
REMARK INTER + INTRA:          -9.839
REMARK INTER:                  -9.859
REMARK INTRA:                   0.019
REMARK UNBOUND:                -1.408
REMARK  Name = 
REMARK  9 active torsions:
REMARK  status: ('A' for Active; 'I' for Inactive)
REMARK    1  A    between atoms: C_1  and  C_2
REMARK    2  A    between atoms: C_2  and  C_3
REMARK    3  A    between atoms: C_3  and  N_4
REMARK    4  A    between atoms: C_3  and  C_17
REMARK    5  A    between atoms: C_5  and  C_7
REMARK    6  A    between atoms: C_20  and  C_21
REMARK    7  A    between atoms: C_21  and  N_22
REMARK    8  A    between atoms: N_22  and  C_23
REMARK    9  A    between atoms: C_23  and  C_24
REMARK                            x       y       z     vdW  Elec       q    Type
REMARK                         _______ _______ _______ _____ _____    ______ ____
ROOT
ATOM      1  C   UNL     1      47.632   4.395  17.412  0.00  0.00    +0.000 C 
ENDROOT
BRANCH   1   2
ATOM      2  C   UNL     1      49.032   3.822  17.506  0.00  0.00    +0.000 A 
ATOM      3  C   UNL     1      49.297   2.468  17.283  0.00  0.00    +0.000 A 
ATOM      4  C   UNL     1      50.601   1.991  17.360  0.00  0.00    +0.000 A 
ATOM      5  C   UNL     1      51.626   2.879  17.670  0.00  0.00    +0.000 A 
ATOM      6  N   UNL     1      51.397   4.196  17.907  0.00  0.00    +0.000 NA
ATOM      7  C   UNL     1      50.118   4.635  17.816  0.00  0.00    +0.000 A 
BRANCH   5   8
ATOM      8  C   UNL     1      53.055   2.376  17.787  0.00  0.00    +0.000 C 
BRANCH   8   9
ATOM      9  N   UNL     1      53.191   1.073  18.456  0.00  0.00    +0.000 NA
ATOM     10  H   UNL     1      52.646   0.404  17.909  0.00  0.00    +0.000 HD
BRANCH   9  11
ATOM     11  C   UNL     1      54.579   0.613  18.488  0.00  0.00    +0.000 C 
BRANCH  11  12
ATOM     12  C   UNL     1      54.724  -0.730  17.815  0.00  0.00    +0.000 A 
ATOM     13  C   UNL     1      54.889  -0.817  16.429  0.00  0.00    +0.000 A 
ATOM     14  C   UNL     1      55.021  -2.069  15.850  0.00  0.00    +0.000 A 
ATOM     15  N   UNL     1      55.003  -3.225  16.545  0.00  0.00    +0.000 NA
ATOM     16  C   UNL     1      54.841  -3.122  17.883  0.00  0.00    +0.000 A 
ATOM     17  C   UNL     1      54.705  -1.917  18.554  0.00  0.00    +0.000 A 
ENDBRANCH  11  12
ENDBRANCH   9  11
ENDBRANCH   8   9
ENDBRANCH   5   8
ENDBRANCH   1   2
BRANCH   1  18
ATOM     18  N   UNL     1      47.497   5.116  16.151  0.00  0.00    +0.000 N 
ATOM     19  C   UNL     1      47.316   4.468  14.949  0.00  0.00    +0.000 C 
ATOM     20  O   UNL     1      47.279   3.247  14.860  0.00  0.00    +0.000 OA
ATOM     21  H   UNL     1      47.532   6.124  16.169  0.00  0.00    +0.000 HD
BRANCH  19  22
ATOM     22  C   UNL     1      47.137   5.355  13.796  0.00  0.00    +0.000 A 
ATOM     23  C   UNL     1      47.765   6.584  13.666  0.00  0.00    +0.000 A 
ATOM     24  S   UNL     1      47.331   7.420  12.241  0.00  0.00    +0.000 S 
ATOM     25  C   UNL     1      46.275   6.174  11.762  0.00  0.00    +0.000 A 
ATOM     26  N   UNL     1      45.562   6.265  10.609  0.00  0.00    +0.000 NA
ATOM     27  C   UNL     1      44.791   5.255  10.380  0.00  0.00    +0.000 A 
ATOM     28  N   UNL     1      44.676   4.158  11.200  0.00  0.00    +0.000 N 
ATOM     29  C   UNL     1      45.427   3.989  12.340  0.00  0.00    +0.000 A 
ATOM     30  O   UNL     1      45.395   2.928  12.957  0.00  0.00    +0.000 OA
ATOM     31  C   UNL     1      46.267   5.127  12.668  0.00  0.00    +0.000 A 
ATOM     32  H   UNL     1      44.087   3.381  10.947  0.00  0.00    +0.000 HD
ENDBRANCH  19  22
ENDBRANCH   1  18
BRANCH   1  34
ATOM     33  C   UNL     1      47.662   6.791  18.358  0.00  0.00    +0.000 C 
ATOM     34  C   UNL     1      47.296   5.330  18.595  0.00  0.00    +0.000 C 
ENDBRANCH   1  34
TORSDOF 8
ENDMDL
MODEL 9
REMARK VINA RESULT:    -5.735      4.694      9.009
REMARK INTER + INTRA:          -9.825
REMARK INTER:                  -9.027
REMARK INTRA:                  -0.798
REMARK UNBOUND:                -1.408
REMARK  Name = 
REMARK  9 active torsions:
REMARK  status: ('A' for Active; 'I' for Inactive)
REMARK    1  A    between atoms: C_1  and  C_2
REMARK    2  A    between atoms: C_2  and  C_3
REMARK    3  A    between atoms: C_3  and  N_4
REMARK    4  A    between atoms: C_3  and  C_17
REMARK    5  A    between atoms: C_5  and  C_7
REMARK    6  A    between atoms: C_20  and  C_21
REMARK    7  A    between atoms: C_21  and  N_22
REMARK    8  A    between atoms: N_22  and  C_23
REMARK    9  A    between atoms: C_23  and  C_24
REMARK                            x       y       z     vdW  Elec       q    Type
REMARK                         _______ _______ _______ _____ _____    ______ ____
ROOT
ATOM      1  C   UNL     1      47.589   4.407  17.392  0.00  0.00    +0.000 C 
ENDROOT
BRANCH   1   2
ATOM      2  C   UNL     1      48.981   3.814  17.499  0.00  0.00    +0.000 A 
ATOM      3  C   UNL     1      49.243   2.475  17.199  0.00  0.00    +0.000 A 
ATOM      4  C   UNL     1      50.539   1.980  17.293  0.00  0.00    +0.000 A 
ATOM      5  C   UNL     1      51.559   2.834  17.698  0.00  0.00    +0.000 A 
ATOM      6  N   UNL     1      51.332   4.136  18.011  0.00  0.00    +0.000 NA
ATOM      7  C   UNL     1      50.061   4.593  17.901  0.00  0.00    +0.000 A 
BRANCH   5   8
ATOM      8  C   UNL     1      52.978   2.310  17.835  0.00  0.00    +0.000 C 
BRANCH   8   9
ATOM      9  N   UNL     1      53.085   1.007  18.511  0.00  0.00    +0.000 NA
ATOM     10  H   UNL     1      52.553   0.340  17.949  0.00  0.00    +0.000 HD
BRANCH   9  11
ATOM     11  C   UNL     1      54.468   0.539  18.586  0.00  0.00    +0.000 C 
BRANCH  11  12
ATOM     12  C   UNL     1      54.636  -0.784  17.879  0.00  0.00    +0.000 A 
ATOM     13  C   UNL     1      54.859  -0.830  16.499  0.00  0.00    +0.000 A 
ATOM     14  C   UNL     1      55.010  -2.064  15.888  0.00  0.00    +0.000 A 
ATOM     15  N   UNL     1      54.956  -3.241  16.546  0.00  0.00    +0.000 NA
ATOM     16  C   UNL     1      54.737  -3.178  17.878  0.00  0.00    +0.000 A 
ATOM     17  C   UNL     1      54.578  -1.992  18.580  0.00  0.00    +0.000 A 
ENDBRANCH  11  12
ENDBRANCH   9  11
ENDBRANCH   8   9
ENDBRANCH   5   8
ENDBRANCH   1   2
BRANCH   1  18
ATOM     18  N   UNL     1      47.498   5.181  16.158  0.00  0.00    +0.000 N 
ATOM     19  C   UNL     1      47.289   4.589  14.932  0.00  0.00    +0.000 C 
ATOM     20  O   UNL     1      47.190   3.375  14.797  0.00  0.00    +0.000 OA
ATOM     21  H   UNL     1      47.584   6.184  16.214  0.00  0.00    +0.000 HD
BRANCH  19  22
ATOM     22  C   UNL     1      47.161   5.526  13.813  0.00  0.00    +0.000 A 
ATOM     23  C   UNL     1      46.115   5.500  12.903  0.00  0.00    +0.000 A 
ATOM     24  S   UNL     1      46.254   6.681  11.676  0.00  0.00    +0.000 S 
ATOM     25  C   UNL     1      47.728   7.250  12.310  0.00  0.00    +0.000 A 
ATOM     26  N   UNL     1      48.400   8.270  11.714  0.00  0.00    +0.000 NA
ATOM     27  C   UNL     1      49.508   8.586  12.293  0.00  0.00    +0.000 A 
ATOM     28  N   UNL     1      50.002   7.977  13.422  0.00  0.00    +0.000 N 
ATOM     29  C   UNL     1      49.326   6.989  14.101  0.00  0.00    +0.000 A 
ATOM     30  O   UNL     1      49.737   6.582  15.183  0.00  0.00    +0.000 OA
ATOM     31  C   UNL     1      48.099   6.561  13.452  0.00  0.00    +0.000 A 
ATOM     32  H   UNL     1      50.855   8.296  13.853  0.00  0.00    +0.000 HD
ENDBRANCH  19  22
ENDBRANCH   1  18
BRANCH   1  34
ATOM     33  C   UNL     1      47.620   6.761  18.437  0.00  0.00    +0.000 C 
ATOM     34  C   UNL     1      47.231   5.296  18.603  0.00  0.00    +0.000 C 
ENDBRANCH   1  34
TORSDOF 8
ENDMDL
