MODEL 1
REMARK VINA RESULT:    -9.123      0.000      0.000
REMARK INTER + INTRA:         -12.595
REMARK INTER:                 -11.789
REMARK INTRA:                  -0.806
REMARK UNBOUND:                -0.806
REMARK  Name = 
REMARK  5 active torsions:
REMARK  status: ('A' for Active; 'I' for Inactive)
REMARK    1  A    between atoms: C_2  and  C_4
REMARK    2  A    between atoms: C_8  and  O_9
REMARK    3  A    between atoms: O_9  and  C_10
REMARK    4  A    between atoms: C_10  and  C_11
REMARK    5  A    between atoms: C_15  and  C_16
REMARK                            x       y       z     vdW  Elec       q    Type
REMARK                         _______ _______ _______ _____ _____    ______ ____
ROOT
ATOM      1  C   UNL     1      43.170   6.278  11.083  0.00  0.00    +0.000 C 
ENDROOT
BRANCH   1   2
ATOM      2  C   UNL     1      43.500   4.845  10.781  0.00  0.00    +0.000 A 
ATOM      3  C   UNL     1      42.981   3.814  11.548  0.00  0.00    +0.000 A 
ATOM      4  N   UNL     1      43.269   2.513  11.347  0.00  0.00    +0.000 NA
ATOM      5  C   UNL     1      44.103   2.225  10.318  0.00  0.00    +0.000 A 
ATOM      6  C   UNL     1      44.683   3.165   9.459  0.00  0.00    +0.000 A 
ATOM      7  C   UNL     1      44.346   4.502   9.717  0.00  0.00    +0.000 A 
BRANCH   6   8
ATOM      8  C   UNL     1      45.608   2.783   8.369  0.00  0.00    +0.000 A 
ATOM      9  C   UNL     1      46.005   3.709   7.383  0.00  0.00    +0.000 A 
ATOM     10  C   UNL     1      46.903   3.358   6.370  0.00  0.00    +0.000 A 
ATOM     11  C   UNL     1      47.407   2.068   6.320  0.00  0.00    +0.000 A 
ATOM     12  F   UNL     1      48.267   1.730   5.352  0.00  0.00    +0.000 F 
ATOM     13  C   UNL     1      47.032   1.124   7.264  0.00  0.00    +0.000 A 
ATOM     14  C   UNL     1      46.144   1.482   8.283  0.00  0.00    +0.000 A 
ENDBRANCH   6   8
ENDBRANCH   1   2
BRANCH   1  15
ATOM     15  O   UNL     1      43.702   6.621  12.361  0.00  0.00    +0.000 OA
BRANCH  15  20
ATOM     16  C   UNL     1      46.771   5.259  13.744  0.00  0.00    +0.000 A 
ATOM     17  C   UNL     1      47.760   5.938  13.021  0.00  0.00    +0.000 A 
ATOM     18  C   UNL     1      47.396   6.864  12.048  0.00  0.00    +0.000 A 
ATOM     19  C   UNL     1      46.047   7.121  11.795  0.00  0.00    +0.000 A 
ATOM     20  C   UNL     1      45.053   6.458  12.518  0.00  0.00    +0.000 A 
ATOM     21  C   UNL     1      45.420   5.534  13.500  0.00  0.00    +0.000 A 
BRANCH  16  23
ATOM     22  N   UNL     1      47.209   4.673  16.063  0.00  0.00    +0.000 N 
ATOM     23  C   UNL     1      47.196   4.263  14.760  0.00  0.00    +0.000 C 
ATOM     24  O   UNL     1      47.477   3.110  14.453  0.00  0.00    +0.000 OA
ATOM     25  H   UNL     1      47.394   3.962  16.757  0.00  0.00    +0.000 HD
ATOM     26  H   UNL     1      46.756   5.523  16.370  0.00  0.00    +0.000 HD
ENDBRANCH  16  23
ENDBRANCH  15  20
ENDBRANCH   1  15
TORSDOF 5
ENDMDL
MODEL 2
REMARK VINA RESULT:    -8.458      1.703      2.209
REMARK INTER + INTRA:         -11.736
REMARK INTER:                 -10.868
REMARK INTRA:                  -0.868
REMARK UNBOUND:                -0.806
REMARK  Name = 
REMARK  5 active torsions:
REMARK  status: ('A' for Active; 'I' for Inactive)
REMARK    1  A    between atoms: C_2  and  C_4
REMARK    2  A    between atoms: C_8  and  O_9
REMARK    3  A    between atoms: O_9  and  C_10
REMARK    4  A    between atoms: C_10  and  C_11
REMARK    5  A    between atoms: C_15  and  C_16
REMARK                            x       y       z     vdW  Elec       q    Type
REMARK                         _______ _______ _______ _____ _____    ______ ____
ROOT
ATOM      1  C   UNL     1      43.603   6.339  11.376  0.00  0.00    +0.000 C 
ENDROOT
BRANCH   1   2
ATOM      2  C   UNL     1      43.776   4.916  10.932  0.00  0.00    +0.000 A 
ATOM      3  C   UNL     1      43.120   3.880  11.577  0.00  0.00    +0.000 A 
ATOM      4  N   UNL     1      43.264   2.581  11.246  0.00  0.00    +0.000 NA
ATOM      5  C   UNL     1      44.091   2.305  10.208  0.00  0.00    +0.000 A 
ATOM      6  C   UNL     1      44.799   3.253   9.463  0.00  0.00    +0.000 A 
ATOM      7  C   UNL     1      44.609   4.587   9.854  0.00  0.00    +0.000 A 
BRANCH   6   8
ATOM      8  C   UNL     1      45.707   2.879   8.356  0.00  0.00    +0.000 A 
ATOM      9  C   UNL     1      46.225   1.572   8.237  0.00  0.00    +0.000 A 
ATOM     10  C   UNL     1      47.058   1.210   7.174  0.00  0.00    +0.000 A 
ATOM     11  C   UNL     1      47.398   2.156   6.220  0.00  0.00    +0.000 A 
ATOM     12  F   UNL     1      48.195   1.811   5.201  0.00  0.00    +0.000 F 
ATOM     13  C   UNL     1      46.920   3.454   6.307  0.00  0.00    +0.000 A 
ATOM     14  C   UNL     1      46.077   3.810   7.364  0.00  0.00    +0.000 A 
ENDBRANCH   6   8
ENDBRANCH   1   2
BRANCH   1  15
ATOM     15  O   UNL     1      44.306   6.536  12.601  0.00  0.00    +0.000 OA
BRANCH  15  20
ATOM     16  C   UNL     1      47.757   7.638  12.845  0.00  0.00    +0.000 A 
ATOM     17  C   UNL     1      47.666   9.001  12.538  0.00  0.00    +0.000 A 
ATOM     18  C   UNL     1      46.429   9.563  12.236  0.00  0.00    +0.000 A 
ATOM     19  C   UNL     1      45.278   8.771  12.245  0.00  0.00    +0.000 A 
ATOM     20  C   UNL     1      45.358   7.413  12.562  0.00  0.00    +0.000 A 
ATOM     21  C   UNL     1      46.599   6.853  12.872  0.00  0.00    +0.000 A 
BRANCH  16  23
ATOM     22  N   UNL     1      50.015   7.086  12.132  0.00  0.00    +0.000 N 
ATOM     23  C   UNL     1      49.096   7.068  13.142  0.00  0.00    +0.000 C 
ATOM     24  O   UNL     1      49.383   6.644  14.256  0.00  0.00    +0.000 OA
ATOM     25  H   UNL     1      50.954   6.798  12.372  0.00  0.00    +0.000 HD
ATOM     26  H   UNL     1      49.893   7.641  11.296  0.00  0.00    +0.000 HD
ENDBRANCH  16  23
ENDBRANCH  15  20
ENDBRANCH   1  15
TORSDOF 5
ENDMDL
MODEL 3
REMARK VINA RESULT:    -8.424      3.533      6.619
REMARK INTER + INTRA:         -11.692
REMARK INTER:                 -11.153
REMARK INTRA:                  -0.538
REMARK UNBOUND:                -0.806
REMARK  Name = 
REMARK  5 active torsions:
REMARK  status: ('A' for Active; 'I' for Inactive)
REMARK    1  A    between atoms: C_2  and  C_4
REMARK    2  A    between atoms: C_8  and  O_9
REMARK    3  A    between atoms: O_9  and  C_10
REMARK    4  A    between atoms: C_10  and  C_11
REMARK    5  A    between atoms: C_15  and  C_16
REMARK                            x       y       z     vdW  Elec       q    Type
REMARK                         _______ _______ _______ _____ _____    ______ ____
ROOT
ATOM      1  C   UNL     1      43.460   3.662  11.264  0.00  0.00    +0.000 C 
ENDROOT
BRANCH   1   2
ATOM      2  C   UNL     1      44.694   4.106  11.995  0.00  0.00    +0.000 A 
ATOM      3  C   UNL     1      45.343   3.260  12.882  0.00  0.00    +0.000 A 
ATOM      4  N   UNL     1      46.432   3.614  13.592  0.00  0.00    +0.000 NA
ATOM      5  C   UNL     1      46.907   4.869  13.395  0.00  0.00    +0.000 A 
ATOM      6  C   UNL     1      46.359   5.814  12.523  0.00  0.00    +0.000 A 
ATOM      7  C   UNL     1      45.228   5.388  11.810  0.00  0.00    +0.000 A 
BRANCH   6   8
ATOM      8  C   UNL     1      46.914   7.178  12.375  0.00  0.00    +0.000 A 
ATOM      9  C   UNL     1      48.238   7.391  11.938  0.00  0.00    +0.000 A 
ATOM     10  C   UNL     1      48.753   8.680  11.768  0.00  0.00    +0.000 A 
ATOM     11  C   UNL     1      47.954   9.777  12.049  0.00  0.00    +0.000 A 
ATOM     12  F   UNL     1      48.445  11.012  11.887  0.00  0.00    +0.000 F 
ATOM     13  C   UNL     1      46.652   9.611  12.492  0.00  0.00    +0.000 A 
ATOM     14  C   UNL     1      46.135   8.321  12.649  0.00  0.00    +0.000 A 
ENDBRANCH   6   8
ENDBRANCH   1   2
BRANCH   1  15
ATOM     15  O   UNL     1      43.797   2.593  10.383  0.00  0.00    +0.000 OA
BRANCH  15  20
ATOM     16  C   UNL     1      46.315   2.016   7.832  0.00  0.00    +0.000 A 
ATOM     17  C   UNL     1      46.448   3.278   7.241  0.00  0.00    +0.000 A 
ATOM     18  C   UNL     1      45.676   4.343   7.699  0.00  0.00    +0.000 A 
ATOM     19  C   UNL     1      44.775   4.155   8.749  0.00  0.00    +0.000 A 
ATOM     20  C   UNL     1      44.644   2.903   9.352  0.00  0.00    +0.000 A 
ATOM     21  C   UNL     1      45.425   1.837   8.897  0.00  0.00    +0.000 A 
BRANCH  16  23
ATOM     22  N   UNL     1      46.765  -0.367   7.654  0.00  0.00    +0.000 N 
ATOM     23  C   UNL     1      47.139   0.899   7.305  0.00  0.00    +0.000 C 
ATOM     24  O   UNL     1      48.085   1.097   6.551  0.00  0.00    +0.000 OA
ATOM     25  H   UNL     1      47.263  -1.125   7.206  0.00  0.00    +0.000 HD
ATOM     26  H   UNL     1      45.864  -0.575   8.063  0.00  0.00    +0.000 HD
ENDBRANCH  16  23
ENDBRANCH  15  20
ENDBRANCH   1  15
TORSDOF 5
ENDMDL
MODEL 4
REMARK VINA RESULT:    -8.357      1.840      2.291
REMARK INTER + INTRA:         -11.606
REMARK INTER:                 -10.695
REMARK INTRA:                  -0.911
REMARK UNBOUND:                -0.806
REMARK  Name = 
REMARK  5 active torsions:
REMARK  status: ('A' for Active; 'I' for Inactive)
REMARK    1  A    between atoms: C_2  and  C_4
REMARK    2  A    between atoms: C_8  and  O_9
REMARK    3  A    between atoms: O_9  and  C_10
REMARK    4  A    between atoms: C_10  and  C_11
REMARK    5  A    between atoms: C_15  and  C_16
REMARK                            x       y       z     vdW  Elec       q    Type
REMARK                         _______ _______ _______ _____ _____    ______ ____
ROOT
ATOM      1  C   UNL     1      43.397   6.270  11.343  0.00  0.00    +0.000 C 
ENDROOT
BRANCH   1   2
ATOM      2  C   UNL     1      43.636   4.845  10.937  0.00  0.00    +0.000 A 
ATOM      3  C   UNL     1      43.036   3.797  11.618  0.00  0.00    +0.000 A 
ATOM      4  N   UNL     1      43.241   2.498  11.323  0.00  0.00    +0.000 NA
ATOM      5  C   UNL     1      44.073   2.232  10.285  0.00  0.00    +0.000 A 
ATOM      6  C   UNL     1      44.728   3.192   9.508  0.00  0.00    +0.000 A 
ATOM      7  C   UNL     1      44.476   4.526   9.861  0.00  0.00    +0.000 A 
BRANCH   6   8
ATOM      8  C   UNL     1      45.645   2.831   8.403  0.00  0.00    +0.000 A 
ATOM      9  C   UNL     1      46.069   3.786   7.457  0.00  0.00    +0.000 A 
ATOM     10  C   UNL     1      46.960   3.454   6.431  0.00  0.00    +0.000 A 
ATOM     11  C   UNL     1      47.429   2.153   6.329  0.00  0.00    +0.000 A 
ATOM     12  F   UNL     1      48.282   1.833   5.348  0.00  0.00    +0.000 F 
ATOM     13  C   UNL     1      47.028   1.182   7.232  0.00  0.00    +0.000 A 
ATOM     14  C   UNL     1      46.146   1.521   8.264  0.00  0.00    +0.000 A 
ENDBRANCH   6   8
ENDBRANCH   1   2
BRANCH   1  15
ATOM     15  O   UNL     1      43.890   6.470  12.665  0.00  0.00    +0.000 OA
BRANCH  15  20
ATOM     16  C   UNL     1      47.455   7.105  12.391  0.00  0.00    +0.000 A 
ATOM     17  C   UNL     1      48.012   6.032  13.099  0.00  0.00    +0.000 A 
ATOM     18  C   UNL     1      47.181   5.081  13.685  0.00  0.00    +0.000 A 
ATOM     19  C   UNL     1      45.794   5.192  13.564  0.00  0.00    +0.000 A 
ATOM     20  C   UNL     1      45.230   6.251  12.851  0.00  0.00    +0.000 A 
ATOM     21  C   UNL     1      46.065   7.201  12.257  0.00  0.00    +0.000 A 
BRANCH  16  23
ATOM     22  N   UNL     1      47.905   9.392  11.699  0.00  0.00    +0.000 N 
ATOM     23  C   UNL     1      48.370   8.111  11.797  0.00  0.00    +0.000 C 
ATOM     24  O   UNL     1      49.510   7.820  11.452  0.00  0.00    +0.000 OA
ATOM     25  H   UNL     1      48.570  10.091  11.395  0.00  0.00    +0.000 HD
ATOM     26  H   UNL     1      47.081   9.710  12.189  0.00  0.00    +0.000 HD
ENDBRANCH  16  23
ENDBRANCH  15  20
ENDBRANCH   1  15
TORSDOF 5
ENDMDL
MODEL 5
REMARK VINA RESULT:    -7.895      3.628      6.850
REMARK INTER + INTRA:         -11.009
REMARK INTER:                 -10.156
REMARK INTRA:                  -0.853
REMARK UNBOUND:                -0.806
REMARK  Name = 
REMARK  5 active torsions:
REMARK  status: ('A' for Active; 'I' for Inactive)
REMARK    1  A    between atoms: C_2  and  C_4
REMARK    2  A    between atoms: C_8  and  O_9
REMARK    3  A    between atoms: O_9  and  C_10
REMARK    4  A    between atoms: C_10  and  C_11
REMARK    5  A    between atoms: C_15  and  C_16
REMARK                            x       y       z     vdW  Elec       q    Type
REMARK                         _______ _______ _______ _____ _____    ______ ____
ROOT
ATOM      1  C   UNL     1      44.187   5.240  10.847  0.00  0.00    +0.000 C 
ENDROOT
BRANCH   1   2
ATOM      2  C   UNL     1      45.239   5.243  11.917  0.00  0.00    +0.000 A 
ATOM      3  C   UNL     1      45.121   4.437  13.039  0.00  0.00    +0.000 A 
ATOM      4  N   UNL     1      46.014   4.423  14.049  0.00  0.00    +0.000 NA
ATOM      5  C   UNL     1      47.087   5.242  13.924  0.00  0.00    +0.000 A 
ATOM      6  C   UNL     1      47.335   6.092  12.842  0.00  0.00    +0.000 A 
ATOM      7  C   UNL     1      46.372   6.063  11.822  0.00  0.00    +0.000 A 
BRANCH   6   8
ATOM      8  C   UNL     1      48.517   6.982  12.783  0.00  0.00    +0.000 A 
ATOM      9  C   UNL     1      48.872   7.656  11.596  0.00  0.00    +0.000 A 
ATOM     10  C   UNL     1      49.969   8.521  11.547  0.00  0.00    +0.000 A 
ATOM     11  C   UNL     1      50.739   8.713  12.684  0.00  0.00    +0.000 A 
ATOM     12  F   UNL     1      51.790   9.541  12.639  0.00  0.00    +0.000 F 
ATOM     13  C   UNL     1      50.431   8.060  13.867  0.00  0.00    +0.000 A 
ATOM     14  C   UNL     1      49.325   7.205  13.916  0.00  0.00    +0.000 A 
ENDBRANCH   6   8
ENDBRANCH   1   2
BRANCH   1  15
ATOM     15  O   UNL     1      44.817   5.137   9.572  0.00  0.00    +0.000 OA
BRANCH  15  20
ATOM     16  C   UNL     1      46.459   2.557   7.614  0.00  0.00    +0.000 A 
ATOM     17  C   UNL     1      45.860   1.384   8.089  0.00  0.00    +0.000 A 
ATOM     18  C   UNL     1      44.892   1.455   9.087  0.00  0.00    +0.000 A 
ATOM     19  C   UNL     1      44.515   2.692   9.613  0.00  0.00    +0.000 A 
ATOM     20  C   UNL     1      45.099   3.868   9.137  0.00  0.00    +0.000 A 
ATOM     21  C   UNL     1      46.064   3.797   8.130  0.00  0.00    +0.000 A 
BRANCH  16  23
ATOM     22  N   UNL     1      47.348   3.219   5.450  0.00  0.00    +0.000 N 
ATOM     23  C   UNL     1      47.501   2.443   6.563  0.00  0.00    +0.000 C 
ATOM     24  O   UNL     1      48.482   1.721   6.704  0.00  0.00    +0.000 OA
ATOM     25  H   UNL     1      48.113   3.217   4.789  0.00  0.00    +0.000 HD
ATOM     26  H   UNL     1      46.696   3.991   5.410  0.00  0.00    +0.000 HD
ENDBRANCH  16  23
ENDBRANCH  15  20
ENDBRANCH   1  15
TORSDOF 5
ENDMDL
MODEL 6
REMARK VINA RESULT:    -7.602      1.686      2.442
REMARK INTER + INTRA:         -10.630
REMARK INTER:                  -9.904
REMARK INTRA:                  -0.726
REMARK UNBOUND:                -0.806
REMARK  Name = 
REMARK  5 active torsions:
REMARK  status: ('A' for Active; 'I' for Inactive)
REMARK    1  A    between atoms: C_2  and  C_4
REMARK    2  A    between atoms: C_8  and  O_9
REMARK    3  A    between atoms: O_9  and  C_10
REMARK    4  A    between atoms: C_10  and  C_11
REMARK    5  A    between atoms: C_15  and  C_16
REMARK                            x       y       z     vdW  Elec       q    Type
REMARK                         _______ _______ _______ _____ _____    ______ ____
ROOT
ATOM      1  C   UNL     1      45.336   5.715  13.129  0.00  0.00    +0.000 C 
ENDROOT
BRANCH   1   2
ATOM      2  C   UNL     1      44.779   4.712  12.162  0.00  0.00    +0.000 A 
ATOM      3  C   UNL     1      43.589   4.051  12.423  0.00  0.00    +0.000 A 
ATOM      4  N   UNL     1      43.058   3.115  11.611  0.00  0.00    +0.000 NA
ATOM      5  C   UNL     1      43.742   2.837  10.473  0.00  0.00    +0.000 A 
ATOM      6  C   UNL     1      44.942   3.439  10.083  0.00  0.00    +0.000 A 
ATOM      7  C   UNL     1      45.444   4.405  10.967  0.00  0.00    +0.000 A 
BRANCH   6   8
ATOM      8  C   UNL     1      45.650   3.069   8.837  0.00  0.00    +0.000 A 
ATOM      9  C   UNL     1      45.949   1.725   8.532  0.00  0.00    +0.000 A 
ATOM     10  C   UNL     1      46.591   1.372   7.341  0.00  0.00    +0.000 A 
ATOM     11  C   UNL     1      46.956   2.362   6.442  0.00  0.00    +0.000 A 
ATOM     12  F   UNL     1      47.570   2.025   5.300  0.00  0.00    +0.000 F 
ATOM     13  C   UNL     1      46.691   3.695   6.710  0.00  0.00    +0.000 A 
ATOM     14  C   UNL     1      46.038   4.044   7.896  0.00  0.00    +0.000 A 
ENDBRANCH   6   8
ENDBRANCH   1   2
BRANCH   1  15
ATOM     15  O   UNL     1      46.754   5.762  12.992  0.00  0.00    +0.000 OA
BRANCH  15  20
ATOM     16  C   UNL     1      48.001   4.601  16.199  0.00  0.00    +0.000 A 
ATOM     17  C   UNL     1      48.849   5.643  16.592  0.00  0.00    +0.000 A 
ATOM     18  C   UNL     1      49.013   6.753  15.769  0.00  0.00    +0.000 A 
ATOM     19  C   UNL     1      48.331   6.831  14.553  0.00  0.00    +0.000 A 
ATOM     20  C   UNL     1      47.474   5.802  14.157  0.00  0.00    +0.000 A 
ATOM     21  C   UNL     1      47.303   4.693  14.988  0.00  0.00    +0.000 A 
BRANCH  16  23
ATOM     22  N   UNL     1      46.599   3.069  17.463  0.00  0.00    +0.000 N 
ATOM     23  C   UNL     1      47.865   3.424  17.093  0.00  0.00    +0.000 C 
ATOM     24  O   UNL     1      48.839   2.769  17.448  0.00  0.00    +0.000 OA
ATOM     25  H   UNL     1      46.507   2.205  17.982  0.00  0.00    +0.000 HD
ATOM     26  H   UNL     1      45.776   3.429  17.001  0.00  0.00    +0.000 HD
ENDBRANCH  16  23
ENDBRANCH  15  20
ENDBRANCH   1  15
TORSDOF 5
ENDMDL
MODEL 7
REMARK VINA RESULT:    -7.547      4.107      7.781
REMARK INTER + INTRA:         -10.559
REMARK INTER:                  -9.798
REMARK INTRA:                  -0.761
REMARK UNBOUND:                -0.806
REMARK  Name = 
REMARK  5 active torsions:
REMARK  status: ('A' for Active; 'I' for Inactive)
REMARK    1  A    between atoms: C_2  and  C_4
REMARK    2  A    between atoms: C_8  and  O_9
REMARK    3  A    between atoms: O_9  and  C_10
REMARK    4  A    between atoms: C_10  and  C_11
REMARK    5  A    between atoms: C_15  and  C_16
REMARK                            x       y       z     vdW  Elec       q    Type
REMARK                         _______ _______ _______ _____ _____    ______ ____
ROOT
ATOM      1  C   UNL     1      44.949   5.563  11.185  0.00  0.00    +0.000 C 
ENDROOT
BRANCH   1   2
ATOM      2  C   UNL     1      46.140   5.967  12.003  0.00  0.00    +0.000 A 
ATOM      3  C   UNL     1      47.077   6.863  11.510  0.00  0.00    +0.000 A 
ATOM      4  N   UNL     1      48.184   7.235  12.182  0.00  0.00    +0.000 NA
ATOM      5  C   UNL     1      48.356   6.700  13.416  0.00  0.00    +0.000 A 
ATOM      6  C   UNL     1      47.484   5.800  14.037  0.00  0.00    +0.000 A 
ATOM      7  C   UNL     1      46.350   5.450  13.288  0.00  0.00    +0.000 A 
BRANCH   6   8
ATOM      8  C   UNL     1      47.747   5.233  15.378  0.00  0.00    +0.000 A 
ATOM      9  C   UNL     1      47.144   4.030  15.800  0.00  0.00    +0.000 A 
ATOM     10  C   UNL     1      47.415   3.477  17.056  0.00  0.00    +0.000 A 
ATOM     11  C   UNL     1      48.285   4.130  17.916  0.00  0.00    +0.000 A 
ATOM     12  F   UNL     1      48.547   3.602  19.118  0.00  0.00    +0.000 F 
ATOM     13  C   UNL     1      48.889   5.320  17.543  0.00  0.00    +0.000 A 
ATOM     14  C   UNL     1      48.625   5.864  16.282  0.00  0.00    +0.000 A 
ENDBRANCH   6   8
ENDBRANCH   1   2
BRANCH   1  15
ATOM     15  O   UNL     1      45.324   5.496   9.811  0.00  0.00    +0.000 OA
BRANCH  15  20
ATOM     16  C   UNL     1      46.415   2.938   7.477  0.00  0.00    +0.000 A 
ATOM     17  C   UNL     1      45.819   1.780   7.992  0.00  0.00    +0.000 A 
ATOM     18  C   UNL     1      45.043   1.852   9.145  0.00  0.00    +0.000 A 
ATOM     19  C   UNL     1      44.854   3.078   9.786  0.00  0.00    +0.000 A 
ATOM     20  C   UNL     1      45.434   4.240   9.274  0.00  0.00    +0.000 A 
ATOM     21  C   UNL     1      46.206   4.167   8.112  0.00  0.00    +0.000 A 
BRANCH  16  23
ATOM     22  N   UNL     1      48.583   2.571   6.439  0.00  0.00    +0.000 N 
ATOM     23  C   UNL     1      47.252   2.819   6.256  0.00  0.00    +0.000 C 
ATOM     24  O   UNL     1      46.767   2.892   5.133  0.00  0.00    +0.000 OA
ATOM     25  H   UNL     1      49.125   2.384   5.606  0.00  0.00    +0.000 HD
ATOM     26  H   UNL     1      48.963   2.267   7.325  0.00  0.00    +0.000 HD
ENDBRANCH  16  23
ENDBRANCH  15  20
ENDBRANCH   1  15
TORSDOF 5
ENDMDL
MODEL 8
REMARK VINA RESULT:    -7.413      2.951      3.553
REMARK INTER + INTRA:         -10.385
REMARK INTER:                  -9.581
REMARK INTRA:                  -0.804
REMARK UNBOUND:                -0.806
REMARK  Name = 
REMARK  5 active torsions:
REMARK  status: ('A' for Active; 'I' for Inactive)
REMARK    1  A    between atoms: C_2  and  C_4
REMARK    2  A    between atoms: C_8  and  O_9
REMARK    3  A    between atoms: O_9  and  C_10
REMARK    4  A    between atoms: C_10  and  C_11
REMARK    5  A    between atoms: C_15  and  C_16
REMARK                            x       y       z     vdW  Elec       q    Type
REMARK                         _______ _______ _______ _____ _____    ______ ____
ROOT
ATOM      1  C   UNL     1      45.329   7.445  12.336  0.00  0.00    +0.000 C 
ENDROOT
BRANCH   1   2
ATOM      2  C   UNL     1      44.676   6.260  11.688  0.00  0.00    +0.000 A 
ATOM      3  C   UNL     1      43.412   5.839  12.073  0.00  0.00    +0.000 A 
ATOM      4  N   UNL     1      42.791   4.762  11.553  0.00  0.00    +0.000 NA
ATOM      5  C   UNL     1      43.457   4.081  10.588  0.00  0.00    +0.000 A 
ATOM      6  C   UNL     1      44.725   4.405  10.097  0.00  0.00    +0.000 A 
ATOM      7  C   UNL     1      45.321   5.536  10.676  0.00  0.00    +0.000 A 
BRANCH   6   8
ATOM      8  C   UNL     1      45.407   3.601   9.058  0.00  0.00    +0.000 A 
ATOM      9  C   UNL     1      46.055   4.211   7.964  0.00  0.00    +0.000 A 
ATOM     10  C   UNL     1      46.726   3.454   6.998  0.00  0.00    +0.000 A 
ATOM     11  C   UNL     1      46.746   2.071   7.106  0.00  0.00    +0.000 A 
ATOM     12  F   UNL     1      47.388   1.345   6.183  0.00  0.00    +0.000 F 
ATOM     13  C   UNL     1      46.111   1.434   8.160  0.00  0.00    +0.000 A 
ATOM     14  C   UNL     1      45.451   2.194   9.131  0.00  0.00    +0.000 A 
ENDBRANCH   6   8
ENDBRANCH   1   2
BRANCH   1  15
ATOM     15  O   UNL     1      46.707   7.157  12.558  0.00  0.00    +0.000 OA
BRANCH  15  20
ATOM     16  C   UNL     1      49.916   8.608  11.671  0.00  0.00    +0.000 A 
ATOM     17  C   UNL     1      49.597   9.957  11.474  0.00  0.00    +0.000 A 
ATOM     18  C   UNL     1      48.285  10.391  11.634  0.00  0.00    +0.000 A 
ATOM     19  C   UNL     1      47.286   9.485  11.995  0.00  0.00    +0.000 A 
ATOM     20  C   UNL     1      47.595   8.139  12.205  0.00  0.00    +0.000 A 
ATOM     21  C   UNL     1      48.915   7.707  12.052  0.00  0.00    +0.000 A 
BRANCH  16  23
ATOM     22  N   UNL     1      51.540   7.157  10.589  0.00  0.00    +0.000 N 
ATOM     23  C   UNL     1      51.322   8.177  11.472  0.00  0.00    +0.000 C 
ATOM     24  O   UNL     1      52.254   8.739  12.035  0.00  0.00    +0.000 OA
ATOM     25  H   UNL     1      52.505   6.943  10.377  0.00  0.00    +0.000 HD
ATOM     26  H   UNL     1      50.835   6.843   9.936  0.00  0.00    +0.000 HD
ENDBRANCH  16  23
ENDBRANCH  15  20
ENDBRANCH   1  15
TORSDOF 5
ENDMDL
MODEL 9
REMARK VINA RESULT:    -7.308      2.234      2.633
REMARK INTER + INTRA:         -10.250
REMARK INTER:                  -9.457
REMARK INTRA:                  -0.793
REMARK UNBOUND:                -0.806
REMARK  Name = 
REMARK  5 active torsions:
REMARK  status: ('A' for Active; 'I' for Inactive)
REMARK    1  A    between atoms: C_2  and  C_4
REMARK    2  A    between atoms: C_8  and  O_9
REMARK    3  A    between atoms: O_9  and  C_10
REMARK    4  A    between atoms: C_10  and  C_11
REMARK    5  A    between atoms: C_15  and  C_16
REMARK                            x       y       z     vdW  Elec       q    Type
REMARK                         _______ _______ _______ _____ _____    ______ ____
ROOT
ATOM      1  C   UNL     1      45.344   7.540  12.077  0.00  0.00    +0.000 C 
ENDROOT
BRANCH   1   2
ATOM      2  C   UNL     1      44.715   6.297  11.519  0.00  0.00    +0.000 A 
ATOM      3  C   UNL     1      43.484   5.851  11.976  0.00  0.00    +0.000 A 
ATOM      4  N   UNL     1      42.887   4.725  11.539  0.00  0.00    +0.000 NA
ATOM      5  C   UNL     1      43.543   4.017  10.586  0.00  0.00    +0.000 A 
ATOM      6  C   UNL     1      44.778   4.362  10.029  0.00  0.00    +0.000 A 
ATOM      7  C   UNL     1      45.350   5.544  10.522  0.00  0.00    +0.000 A 
BRANCH   6   8
ATOM      8  C   UNL     1      45.452   3.528   9.008  0.00  0.00    +0.000 A 
ATOM      9  C   UNL     1      46.139   4.107   7.922  0.00  0.00    +0.000 A 
ATOM     10  C   UNL     1      46.802   3.322   6.974  0.00  0.00    +0.000 A 
ATOM     11  C   UNL     1      46.775   1.940   7.092  0.00  0.00    +0.000 A 
ATOM     12  F   UNL     1      47.409   1.186   6.185  0.00  0.00    +0.000 F 
ATOM     13  C   UNL     1      46.100   1.332   8.138  0.00  0.00    +0.000 A 
ATOM     14  C   UNL     1      45.449   2.121   9.092  0.00  0.00    +0.000 A 
ENDBRANCH   6   8
ENDBRANCH   1   2
BRANCH   1  15
ATOM     15  O   UNL     1      46.133   7.196  13.213  0.00  0.00    +0.000 OA
BRANCH  15  20
ATOM     16  C   UNL     1      49.590   7.385  14.309  0.00  0.00    +0.000 A 
ATOM     17  C   UNL     1      50.232   7.952  13.200  0.00  0.00    +0.000 A 
ATOM     18  C   UNL     1      49.498   8.271  12.062  0.00  0.00    +0.000 A 
ATOM     19  C   UNL     1      48.122   8.033  12.024  0.00  0.00    +0.000 A 
ATOM     20  C   UNL     1      47.472   7.479  13.129  0.00  0.00    +0.000 A 
ATOM     21  C   UNL     1      48.208   7.166  14.274  0.00  0.00    +0.000 A 
BRANCH  16  23
ATOM     22  N   UNL     1      51.765   7.042  15.339  0.00  0.00    +0.000 N 
ATOM     23  C   UNL     1      50.408   7.039  15.498  0.00  0.00    +0.000 C 
ATOM     24  O   UNL     1      49.896   6.807  16.587  0.00  0.00    +0.000 OA
ATOM     25  H   UNL     1      52.317   6.912  16.177  0.00  0.00    +0.000 HD
ATOM     26  H   UNL     1      52.218   7.460  14.539  0.00  0.00    +0.000 HD
ENDBRANCH  16  23
ENDBRANCH  15  20
ENDBRANCH   1  15
TORSDOF 5
ENDMDL
