MODEL 1
REMARK VINA RESULT:    -8.305      0.000      0.000
REMARK INTER + INTRA:         -11.121
REMARK INTER:                 -10.490
REMARK INTRA:                  -0.631
REMARK UNBOUND:                -0.631
REMARK  Name = 
REMARK  5 active torsions:
REMARK  status: ('A' for Active; 'I' for Inactive)
REMARK    1  A    between atoms: C_2  and  C_4
REMARK    2  A    between atoms: C_7  and  C_8
REMARK    3  A    between atoms: C_8  and  N_9
REMARK    4  A    between atoms: C_14  and  C_15
REMARK    5  A    between atoms: C_15  and  O_17
REMARK                            x       y       z     vdW  Elec       q    Type
REMARK                         _______ _______ _______ _____ _____    ______ ____
ROOT
ATOM      1  N   UNL     1      44.415   4.644  11.539  0.00  0.00    +0.000 N 
ATOM      2  C   UNL     1      43.909   3.944  12.601  0.00  0.00    +0.000 A 
ATOM      3  N   UNL     1      44.623   4.127  13.686  0.00  0.00    +0.000 NA
ATOM      4  C   UNL     1      45.613   5.003  13.324  0.00  0.00    +0.000 A 
ATOM      5  C   UNL     1      46.655   5.524  14.103  0.00  0.00    +0.000 A 
ATOM      6  C   UNL     1      47.567   6.399  13.497  0.00  0.00    +0.000 A 
ATOM      7  C   UNL     1      47.403   6.791  12.160  0.00  0.00    +0.000 A 
ATOM      8  C   UNL     1      46.363   6.281  11.371  0.00  0.00    +0.000 A 
ATOM      9  C   UNL     1      45.494   5.372  11.985  0.00  0.00    +0.000 A 
ENDROOT
BRANCH   6  10
ATOM     10  C   UNL     1      48.713   6.963  14.251  0.00  0.00    +0.000 C 
ATOM     11  O   UNL     1      48.599   7.445  15.363  0.00  0.00    +0.000 OA
BRANCH  10  12
ATOM     12  O   UNL     1      49.879   6.947  13.568  0.00  0.00    +0.000 OA
ATOM     13  H   UNL     1      49.802   6.784  12.610  0.00  0.00    +0.000 HD
ENDBRANCH  10  12
ENDBRANCH   6  10
BRANCH   1  14
ATOM     14  C   UNL     1      43.905   4.574  10.178  0.00  0.00    +0.000 C 
BRANCH  14  18
ATOM     15  C   UNL     1      46.452   2.277   7.653  0.00  0.00    +0.000 A 
ATOM     16  C   UNL     1      46.428   3.648   7.450  0.00  0.00    +0.000 A 
ATOM     17  C   UNL     1      45.605   4.419   8.266  0.00  0.00    +0.000 A 
ATOM     18  C   UNL     1      44.816   3.808   9.250  0.00  0.00    +0.000 A 
ATOM     19  C   UNL     1      44.943   2.427   9.393  0.00  0.00    +0.000 A 
ATOM     20  N   UNL     1      45.731   1.644   8.620  0.00  0.00    +0.000 NA
BRANCH  15  22
ATOM     21  N   UNL     1      48.327   2.055   6.134  0.00  0.00    +0.000 N 
ATOM     22  C   UNL     1      47.294   1.417   6.763  0.00  0.00    +0.000 C 
ATOM     23  O   UNL     1      47.086   0.220   6.609  0.00  0.00    +0.000 OA
ATOM     24  H   UNL     1      48.953   1.529   5.544  0.00  0.00    +0.000 HD
ATOM     25  H   UNL     1      48.482   3.045   6.299  0.00  0.00    +0.000 HD
ENDBRANCH  15  22
ENDBRANCH  14  18
ENDBRANCH   1  14
TORSDOF 5
ENDMDL
MODEL 2
REMARK VINA RESULT:    -7.948      1.511      1.840
REMARK INTER + INTRA:         -10.670
REMARK INTER:                 -10.112
REMARK INTRA:                  -0.558
REMARK UNBOUND:                -0.631
REMARK  Name = 
REMARK  5 active torsions:
REMARK  status: ('A' for Active; 'I' for Inactive)
REMARK    1  A    between atoms: C_2  and  C_4
REMARK    2  A    between atoms: C_7  and  C_8
REMARK    3  A    between atoms: C_8  and  N_9
REMARK    4  A    between atoms: C_14  and  C_15
REMARK    5  A    between atoms: C_15  and  O_17
REMARK                            x       y       z     vdW  Elec       q    Type
REMARK                         _______ _______ _______ _____ _____    ______ ____
ROOT
ATOM      1  N   UNL     1      44.867   4.333  11.680  0.00  0.00    +0.000 N 
ATOM      2  C   UNL     1      45.255   3.474  12.672  0.00  0.00    +0.000 A 
ATOM      3  N   UNL     1      45.998   4.075  13.571  0.00  0.00    +0.000 NA
ATOM      4  C   UNL     1      46.071   5.383  13.163  0.00  0.00    +0.000 A 
ATOM      5  C   UNL     1      46.751   6.453  13.758  0.00  0.00    +0.000 A 
ATOM      6  C   UNL     1      46.692   7.708  13.136  0.00  0.00    +0.000 A 
ATOM      7  C   UNL     1      45.920   7.899  11.981  0.00  0.00    +0.000 A 
ATOM      8  C   UNL     1      45.231   6.838  11.379  0.00  0.00    +0.000 A 
ATOM      9  C   UNL     1      45.344   5.585  11.991  0.00  0.00    +0.000 A 
ENDROOT
BRANCH   6  10
ATOM     10  C   UNL     1      47.414   8.878  13.692  0.00  0.00    +0.000 C 
ATOM     11  O   UNL     1      48.104   9.614  13.009  0.00  0.00    +0.000 OA
BRANCH  10  12
ATOM     12  O   UNL     1      47.284   9.018  15.030  0.00  0.00    +0.000 OA
ATOM     13  H   UNL     1      47.988   9.529  15.469  0.00  0.00    +0.000 HD
ENDBRANCH  10  12
ENDBRANCH   6  10
BRANCH   1  14
ATOM     14  C   UNL     1      44.118   3.948  10.493  0.00  0.00    +0.000 C 
BRANCH  14  18
ATOM     15  C   UNL     1      46.617   2.708   7.276  0.00  0.00    +0.000 A 
ATOM     16  C   UNL     1      46.092   1.716   8.088  0.00  0.00    +0.000 A 
ATOM     17  C   UNL     1      45.270   2.098   9.145  0.00  0.00    +0.000 A 
ATOM     18  C   UNL     1      45.004   3.454   9.376  0.00  0.00    +0.000 A 
ATOM     19  C   UNL     1      45.554   4.367   8.476  0.00  0.00    +0.000 A 
ATOM     20  N   UNL     1      46.357   4.035   7.439  0.00  0.00    +0.000 NA
BRANCH  15  22
ATOM     21  N   UNL     1      47.394   3.053   5.006  0.00  0.00    +0.000 N 
ATOM     22  C   UNL     1      47.539   2.331   6.158  0.00  0.00    +0.000 C 
ATOM     23  O   UNL     1      48.376   1.443   6.261  0.00  0.00    +0.000 OA
ATOM     24  H   UNL     1      48.004   2.872   4.224  0.00  0.00    +0.000 HD
ATOM     25  H   UNL     1      46.702   3.795   4.962  0.00  0.00    +0.000 HD
ENDBRANCH  15  22
ENDBRANCH  14  18
ENDBRANCH   1  14
TORSDOF 5
ENDMDL
MODEL 3
REMARK VINA RESULT:    -7.725      2.062      6.792
REMARK INTER + INTRA:         -10.388
REMARK INTER:                  -9.895
REMARK INTRA:                  -0.493
REMARK UNBOUND:                -0.631
REMARK  Name = 
REMARK  5 active torsions:
REMARK  status: ('A' for Active; 'I' for Inactive)
REMARK    1  A    between atoms: C_2  and  C_4
REMARK    2  A    between atoms: C_7  and  C_8
REMARK    3  A    between atoms: C_8  and  N_9
REMARK    4  A    between atoms: C_14  and  C_15
REMARK    5  A    between atoms: C_15  and  O_17
REMARK                            x       y       z     vdW  Elec       q    Type
REMARK                         _______ _______ _______ _____ _____    ______ ____
ROOT
ATOM      1  N   UNL     1      43.900   4.357  10.581  0.00  0.00    +0.000 N 
ATOM      2  C   UNL     1      43.449   3.159  11.063  0.00  0.00    +0.000 A 
ATOM      3  N   UNL     1      43.973   2.147  10.413  0.00  0.00    +0.000 NA
ATOM      4  C   UNL     1      44.821   2.708   9.493  0.00  0.00    +0.000 A 
ATOM      5  C   UNL     1      45.624   2.074   8.536  0.00  0.00    +0.000 A 
ATOM      6  C   UNL     1      46.400   2.873   7.684  0.00  0.00    +0.000 A 
ATOM      7  C   UNL     1      46.418   4.268   7.829  0.00  0.00    +0.000 A 
ATOM      8  C   UNL     1      45.623   4.914   8.785  0.00  0.00    +0.000 A 
ATOM      9  C   UNL     1      44.821   4.099   9.592  0.00  0.00    +0.000 A 
ENDROOT
BRANCH   6  10
ATOM     10  C   UNL     1      47.249   2.273   6.626  0.00  0.00    +0.000 C 
ATOM     11  O   UNL     1      47.918   1.272   6.804  0.00  0.00    +0.000 OA
BRANCH  10  12
ATOM     12  O   UNL     1      47.257   2.971   5.469  0.00  0.00    +0.000 OA
ATOM     13  H   UNL     1      46.951   2.483   4.682  0.00  0.00    +0.000 HD
ENDBRANCH  10  12
ENDBRANCH   6  10
BRANCH   1  14
ATOM     14  C   UNL     1      43.434   5.662  11.027  0.00  0.00    +0.000 C 
BRANCH  14  18
ATOM     15  C   UNL     1      46.500   7.804  13.062  0.00  0.00    +0.000 A 
ATOM     16  C   UNL     1      45.715   8.517  12.171  0.00  0.00    +0.000 A 
ATOM     17  C   UNL     1      44.704   7.838  11.496  0.00  0.00    +0.000 A 
ATOM     18  C   UNL     1      44.511   6.466  11.712  0.00  0.00    +0.000 A 
ATOM     19  C   UNL     1      45.334   5.854  12.657  0.00  0.00    +0.000 A 
ATOM     20  N   UNL     1      46.326   6.479  13.331  0.00  0.00    +0.000 NA
BRANCH  15  22
ATOM     21  N   UNL     1      47.299   9.064  14.972  0.00  0.00    +0.000 N 
ATOM     22  C   UNL     1      47.623   8.497  13.771  0.00  0.00    +0.000 C 
ATOM     23  O   UNL     1      48.758   8.552  13.317  0.00  0.00    +0.000 OA
ATOM     24  H   UNL     1      48.015   9.520  15.517  0.00  0.00    +0.000 HD
ATOM     25  H   UNL     1      46.351   8.984  15.327  0.00  0.00    +0.000 HD
ENDBRANCH  15  22
ENDBRANCH  14  18
ENDBRANCH   1  14
TORSDOF 5
ENDMDL
MODEL 4
REMARK VINA RESULT:    -6.432      4.610      7.713
REMARK INTER + INTRA:          -8.755
REMARK INTER:                  -8.377
REMARK INTRA:                  -0.379
REMARK UNBOUND:                -0.631
REMARK  Name = 
REMARK  5 active torsions:
REMARK  status: ('A' for Active; 'I' for Inactive)
REMARK    1  A    between atoms: C_2  and  C_4
REMARK    2  A    between atoms: C_7  and  C_8
REMARK    3  A    between atoms: C_8  and  N_9
REMARK    4  A    between atoms: C_14  and  C_15
REMARK    5  A    between atoms: C_15  and  O_17
REMARK                            x       y       z     vdW  Elec       q    Type
REMARK                         _______ _______ _______ _____ _____    ______ ____
ROOT
ATOM      1  N   UNL     1      47.335   5.205  15.126  0.00  0.00    +0.000 N 
ATOM      2  C   UNL     1      48.243   6.214  14.950  0.00  0.00    +0.000 A 
ATOM      3  N   UNL     1      48.207   6.692  13.729  0.00  0.00    +0.000 NA
ATOM      4  C   UNL     1      47.215   5.988  13.095  0.00  0.00    +0.000 A 
ATOM      5  C   UNL     1      46.771   6.094  11.770  0.00  0.00    +0.000 A 
ATOM      6  C   UNL     1      45.744   5.242  11.342  0.00  0.00    +0.000 A 
ATOM      7  C   UNL     1      45.135   4.349  12.237  0.00  0.00    +0.000 A 
ATOM      8  C   UNL     1      45.567   4.236  13.565  0.00  0.00    +0.000 A 
ATOM      9  C   UNL     1      46.626   5.064  13.955  0.00  0.00    +0.000 A 
ENDROOT
BRANCH   6  10
ATOM     10  C   UNL     1      45.245   5.275   9.946  0.00  0.00    +0.000 C 
ATOM     11  O   UNL     1      45.969   5.489   8.991  0.00  0.00    +0.000 OA
BRANCH  10  12
ATOM     12  O   UNL     1      43.909   5.106   9.837  0.00  0.00    +0.000 OA
ATOM     13  H   UNL     1      43.450   5.746   9.262  0.00  0.00    +0.000 HD
ENDBRANCH  10  12
ENDBRANCH   6  10
BRANCH   1  14
ATOM     14  C   UNL     1      47.199   4.410  16.337  0.00  0.00    +0.000 C 
BRANCH  14  18
ATOM     15  C   UNL     1      50.742   2.280  17.357  0.00  0.00    +0.000 A 
ATOM     16  C   UNL     1      50.596   3.554  17.882  0.00  0.00    +0.000 A 
ATOM     17  C   UNL     1      49.444   4.268  17.564  0.00  0.00    +0.000 A 
ATOM     18  C   UNL     1      48.476   3.705  16.721  0.00  0.00    +0.000 A 
ATOM     19  C   UNL     1      48.706   2.403  16.278  0.00  0.00    +0.000 A 
ATOM     20  N   UNL     1      49.812   1.678  16.564  0.00  0.00    +0.000 NA
BRANCH  15  22
ATOM     21  N   UNL     1      51.799   0.222  18.079  0.00  0.00    +0.000 N 
ATOM     22  C   UNL     1      51.990   1.505  17.646  0.00  0.00    +0.000 C 
ATOM     23  O   UNL     1      53.111   1.975  17.500  0.00  0.00    +0.000 OA
ATOM     24  H   UNL     1      52.597  -0.367  18.262  0.00  0.00    +0.000 HD
ATOM     25  H   UNL     1      50.855  -0.142  18.171  0.00  0.00    +0.000 HD
ENDBRANCH  15  22
ENDBRANCH  14  18
ENDBRANCH   1  14
TORSDOF 5
ENDMDL
MODEL 5
REMARK VINA RESULT:    -5.965      3.975      6.954
REMARK INTER + INTRA:          -8.165
REMARK INTER:                  -7.601
REMARK INTRA:                  -0.565
REMARK UNBOUND:                -0.631
REMARK  Name = 
REMARK  5 active torsions:
REMARK  status: ('A' for Active; 'I' for Inactive)
REMARK    1  A    between atoms: C_2  and  C_4
REMARK    2  A    between atoms: C_7  and  C_8
REMARK    3  A    between atoms: C_8  and  N_9
REMARK    4  A    between atoms: C_14  and  C_15
REMARK    5  A    between atoms: C_15  and  O_17
REMARK                            x       y       z     vdW  Elec       q    Type
REMARK                         _______ _______ _______ _____ _____    ______ ____
ROOT
ATOM      1  N   UNL     1      47.219   6.225  13.649  0.00  0.00    +0.000 N 
ATOM      2  C   UNL     1      47.546   5.339  14.640  0.00  0.00    +0.000 A 
ATOM      3  N   UNL     1      46.972   4.174  14.457  0.00  0.00    +0.000 NA
ATOM      4  C   UNL     1      46.269   4.296  13.286  0.00  0.00    +0.000 A 
ATOM      5  C   UNL     1      45.468   3.347  12.638  0.00  0.00    +0.000 A 
ATOM      6  C   UNL     1      44.828   3.718  11.448  0.00  0.00    +0.000 A 
ATOM      7  C   UNL     1      45.035   4.988  10.888  0.00  0.00    +0.000 A 
ATOM      8  C   UNL     1      45.838   5.944  11.524  0.00  0.00    +0.000 A 
ATOM      9  C   UNL     1      46.428   5.567  12.735  0.00  0.00    +0.000 A 
ENDROOT
BRANCH   6  10
ATOM     10  C   UNL     1      43.938   2.777  10.725  0.00  0.00    +0.000 C 
ATOM     11  O   UNL     1      44.042   2.554   9.532  0.00  0.00    +0.000 OA
BRANCH  10  12
ATOM     12  O   UNL     1      42.969   2.237  11.496  0.00  0.00    +0.000 OA
ATOM     13  H   UNL     1      42.095   2.664  11.432  0.00  0.00    +0.000 HD
ENDBRANCH  10  12
ENDBRANCH   6  10
BRANCH   1  14
ATOM     14  C   UNL     1      47.618   7.624  13.618  0.00  0.00    +0.000 C 
BRANCH  14  18
ATOM     15  C   UNL     1      51.570   8.258  12.164  0.00  0.00    +0.000 A 
ATOM     16  C   UNL     1      50.605   7.897  11.237  0.00  0.00    +0.000 A 
ATOM     17  C   UNL     1      49.305   7.687  11.690  0.00  0.00    +0.000 A 
ATOM     18  C   UNL     1      49.002   7.826  13.051  0.00  0.00    +0.000 A 
ATOM     19  C   UNL     1      50.041   8.228  13.891  0.00  0.00    +0.000 A 
ATOM     20  N   UNL     1      51.315   8.441  13.489  0.00  0.00    +0.000 NA
BRANCH  15  22
ATOM     21  N   UNL     1      53.863   7.475  12.102  0.00  0.00    +0.000 N 
ATOM     22  C   UNL     1      52.986   8.449  11.714  0.00  0.00    +0.000 C 
ATOM     23  O   UNL     1      53.342   9.405  11.037  0.00  0.00    +0.000 OA
ATOM     24  H   UNL     1      54.826   7.525  11.808  0.00  0.00    +0.000 HD
ATOM     25  H   UNL     1      53.529   6.686  12.648  0.00  0.00    +0.000 HD
ENDBRANCH  15  22
ENDBRANCH  14  18
ENDBRANCH   1  14
TORSDOF 5
ENDMDL
MODEL 6
REMARK VINA RESULT:    -5.854      4.521      8.410
REMARK INTER + INTRA:          -8.025
REMARK INTER:                  -7.547
REMARK INTRA:                  -0.479
REMARK UNBOUND:                -0.631
REMARK  Name = 
REMARK  5 active torsions:
REMARK  status: ('A' for Active; 'I' for Inactive)
REMARK    1  A    between atoms: C_2  and  C_4
REMARK    2  A    between atoms: C_7  and  C_8
REMARK    3  A    between atoms: C_8  and  N_9
REMARK    4  A    between atoms: C_14  and  C_15
REMARK    5  A    between atoms: C_15  and  O_17
REMARK                            x       y       z     vdW  Elec       q    Type
REMARK                         _______ _______ _______ _____ _____    ______ ____
ROOT
ATOM      1  N   UNL     1      47.619   7.091  13.846  0.00  0.00    +0.000 N 
ATOM      2  C   UNL     1      47.171   8.372  13.669  0.00  0.00    +0.000 A 
ATOM      3  N   UNL     1      46.073   8.408  12.952  0.00  0.00    +0.000 NA
ATOM      4  C   UNL     1      45.779   7.097  12.677  0.00  0.00    +0.000 A 
ATOM      5  C   UNL     1      44.714   6.572  11.933  0.00  0.00    +0.000 A 
ATOM      6  C   UNL     1      44.635   5.182  11.773  0.00  0.00    +0.000 A 
ATOM      7  C   UNL     1      45.565   4.335  12.395  0.00  0.00    +0.000 A 
ATOM      8  C   UNL     1      46.631   4.847  13.145  0.00  0.00    +0.000 A 
ATOM      9  C   UNL     1      46.717   6.240  13.251  0.00  0.00    +0.000 A 
ENDROOT
BRANCH   6  10
ATOM     10  C   UNL     1      43.554   4.558  10.972  0.00  0.00    +0.000 C 
ATOM     11  O   UNL     1      42.939   3.575  11.343  0.00  0.00    +0.000 OA
BRANCH  10  12
ATOM     12  O   UNL     1      43.356   5.143   9.770  0.00  0.00    +0.000 OA
ATOM     13  H   UNL     1      43.024   4.555   9.066  0.00  0.00    +0.000 HD
ENDBRANCH  10  12
ENDBRANCH   6  10
BRANCH   1  14
ATOM     14  C   UNL     1      48.860   6.728  14.512  0.00  0.00    +0.000 C 
BRANCH  14  18
ATOM     15  C   UNL     1      48.241   5.646  18.584  0.00  0.00    +0.000 A 
ATOM     16  C   UNL     1      48.660   6.943  18.330  0.00  0.00    +0.000 A 
ATOM     17  C   UNL     1      48.865   7.320  17.006  0.00  0.00    +0.000 A 
ATOM     18  C   UNL     1      48.666   6.395  15.971  0.00  0.00    +0.000 A 
ATOM     19  C   UNL     1      48.211   5.129  16.336  0.00  0.00    +0.000 A 
ATOM     20  N   UNL     1      48.000   4.725  17.610  0.00  0.00    +0.000 NA
BRANCH  15  22
ATOM     21  N   UNL     1      48.582   3.976  20.307  0.00  0.00    +0.000 N 
ATOM     22  C   UNL     1      48.053   5.199  20.001  0.00  0.00    +0.000 C 
ATOM     23  O   UNL     1      47.473   5.879  20.838  0.00  0.00    +0.000 OA
ATOM     24  H   UNL     1      48.518   3.628  21.252  0.00  0.00    +0.000 HD
ATOM     25  H   UNL     1      49.073   3.448  19.593  0.00  0.00    +0.000 HD
ENDBRANCH  15  22
ENDBRANCH  14  18
ENDBRANCH   1  14
TORSDOF 5
ENDMDL
MODEL 7
REMARK VINA RESULT:    -5.657      4.817      7.359
REMARK INTER + INTRA:          -7.776
REMARK INTER:                  -7.172
REMARK INTRA:                  -0.604
REMARK UNBOUND:                -0.631
REMARK  Name = 
REMARK  5 active torsions:
REMARK  status: ('A' for Active; 'I' for Inactive)
REMARK    1  A    between atoms: C_2  and  C_4
REMARK    2  A    between atoms: C_7  and  C_8
REMARK    3  A    between atoms: C_8  and  N_9
REMARK    4  A    between atoms: C_14  and  C_15
REMARK    5  A    between atoms: C_15  and  O_17
REMARK                            x       y       z     vdW  Elec       q    Type
REMARK                         _______ _______ _______ _____ _____    ______ ____
ROOT
ATOM      1  N   UNL     1      47.229   4.985  15.082  0.00  0.00    +0.000 N 
ATOM      2  C   UNL     1      46.414   4.403  14.148  0.00  0.00    +0.000 A 
ATOM      3  N   UNL     1      46.486   5.018  12.992  0.00  0.00    +0.000 NA
ATOM      4  C   UNL     1      47.406   6.020  13.172  0.00  0.00    +0.000 A 
ATOM      5  C   UNL     1      47.850   6.981  12.254  0.00  0.00    +0.000 A 
ATOM      6  C   UNL     1      48.793   7.924  12.683  0.00  0.00    +0.000 A 
ATOM      7  C   UNL     1      49.325   7.868  13.980  0.00  0.00    +0.000 A 
ATOM      8  C   UNL     1      48.893   6.909  14.906  0.00  0.00    +0.000 A 
ATOM      9  C   UNL     1      47.915   6.008  14.469  0.00  0.00    +0.000 A 
ENDROOT
BRANCH   6  10
ATOM     10  C   UNL     1      49.284   8.991  11.777  0.00  0.00    +0.000 C 
ATOM     11  O   UNL     1      48.583   9.912  11.399  0.00  0.00    +0.000 OA
BRANCH  10  12
ATOM     12  O   UNL     1      50.559   8.814  11.363  0.00  0.00    +0.000 OA
ATOM     13  H   UNL     1      51.203   8.605  12.065  0.00  0.00    +0.000 HD
ENDBRANCH  10  12
ENDBRANCH   6  10
BRANCH   1  14
ATOM     14  C   UNL     1      47.300   4.595  16.482  0.00  0.00    +0.000 C 
BRANCH  14  18
ATOM     15  C   UNL     1      50.766   2.281  17.360  0.00  0.00    +0.000 A 
ATOM     16  C   UNL     1      50.739   3.584  17.829  0.00  0.00    +0.000 A 
ATOM     17  C   UNL     1      49.615   4.359  17.557  0.00  0.00    +0.000 A 
ATOM     18  C   UNL     1      48.554   3.824  16.812  0.00  0.00    +0.000 A 
ATOM     19  C   UNL     1      48.669   2.490  16.420  0.00  0.00    +0.000 A 
ATOM     20  N   UNL     1      49.744   1.707  16.665  0.00  0.00    +0.000 NA
BRANCH  15  22
ATOM     21  N   UNL     1      51.738   0.183  18.087  0.00  0.00    +0.000 N 
ATOM     22  C   UNL     1      51.980   1.438  17.601  0.00  0.00    +0.000 C 
ATOM     23  O   UNL     1      53.116   1.833  17.373  0.00  0.00    +0.000 OA
ATOM     24  H   UNL     1      52.508  -0.449  18.243  0.00  0.00    +0.000 HD
ATOM     25  H   UNL     1      50.781  -0.118  18.247  0.00  0.00    +0.000 HD
ENDBRANCH  15  22
ENDBRANCH  14  18
ENDBRANCH   1  14
TORSDOF 5
ENDMDL
MODEL 8
REMARK VINA RESULT:    -5.572      4.081      6.866
REMARK INTER + INTRA:          -7.669
REMARK INTER:                  -7.074
REMARK INTRA:                  -0.595
REMARK UNBOUND:                -0.631
REMARK  Name = 
REMARK  5 active torsions:
REMARK  status: ('A' for Active; 'I' for Inactive)
REMARK    1  A    between atoms: C_2  and  C_4
REMARK    2  A    between atoms: C_7  and  C_8
REMARK    3  A    between atoms: C_8  and  N_9
REMARK    4  A    between atoms: C_14  and  C_15
REMARK    5  A    between atoms: C_15  and  O_17
REMARK                            x       y       z     vdW  Elec       q    Type
REMARK                         _______ _______ _______ _____ _____    ______ ____
ROOT
ATOM      1  N   UNL     1      46.126   7.755  12.782  0.00  0.00    +0.000 N 
ATOM      2  C   UNL     1      45.293   8.565  12.058  0.00  0.00    +0.000 A 
ATOM      3  N   UNL     1      44.431   7.870  11.355  0.00  0.00    +0.000 NA
ATOM      4  C   UNL     1      44.693   6.558  11.657  0.00  0.00    +0.000 A 
ATOM      5  C   UNL     1      44.068   5.402  11.171  0.00  0.00    +0.000 A 
ATOM      6  C   UNL     1      44.531   4.157  11.619  0.00  0.00    +0.000 A 
ATOM      7  C   UNL     1      45.553   4.074  12.577  0.00  0.00    +0.000 A 
ATOM      8  C   UNL     1      46.182   5.223  13.074  0.00  0.00    +0.000 A 
ATOM      9  C   UNL     1      45.736   6.452  12.576  0.00  0.00    +0.000 A 
ENDROOT
BRANCH   6  10
ATOM     10  C   UNL     1      43.939   2.890  11.123  0.00  0.00    +0.000 C 
ATOM     11  O   UNL     1      42.911   2.419  11.576  0.00  0.00    +0.000 OA
BRANCH  10  12
ATOM     12  O   UNL     1      44.674   2.280  10.168  0.00  0.00    +0.000 OA
ATOM     13  H   UNL     1      44.661   2.707   9.291  0.00  0.00    +0.000 HD
ENDBRANCH  10  12
ENDBRANCH   6  10
BRANCH   1  14
ATOM     14  C   UNL     1      47.247   8.220  13.585  0.00  0.00    +0.000 C 
BRANCH  14  18
ATOM     15  C   UNL     1      50.739   9.003  11.276  0.00  0.00    +0.000 A 
ATOM     16  C   UNL     1      50.419   7.675  11.509  0.00  0.00    +0.000 A 
ATOM     17  C   UNL     1      49.279   7.395  12.259  0.00  0.00    +0.000 A 
ATOM     18  C   UNL     1      48.498   8.440  12.770  0.00  0.00    +0.000 A 
ATOM     19  C   UNL     1      48.891   9.738  12.446  0.00  0.00    +0.000 A 
ATOM     20  N   UNL     1      49.990  10.050  11.721  0.00  0.00    +0.000 NA
BRANCH  15  22
ATOM     21  N   UNL     1      52.952   8.372  10.514  0.00  0.00    +0.000 N 
ATOM     22  C   UNL     1      51.981   9.335  10.509  0.00  0.00    +0.000 C 
ATOM     23  O   UNL     1      52.125  10.392   9.908  0.00  0.00    +0.000 OA
ATOM     24  H   UNL     1      53.802   8.518   9.992  0.00  0.00    +0.000 HD
ATOM     25  H   UNL     1      52.791   7.499  11.008  0.00  0.00    +0.000 HD
ENDBRANCH  15  22
ENDBRANCH  14  18
ENDBRANCH   1  14
TORSDOF 5
ENDMDL
MODEL 9
REMARK VINA RESULT:    -5.530      5.664      8.192
REMARK INTER + INTRA:          -7.617
REMARK INTER:                  -7.088
REMARK INTRA:                  -0.529
REMARK UNBOUND:                -0.631
REMARK  Name = 
REMARK  5 active torsions:
REMARK  status: ('A' for Active; 'I' for Inactive)
REMARK    1  A    between atoms: C_2  and  C_4
REMARK    2  A    between atoms: C_7  and  C_8
REMARK    3  A    between atoms: C_8  and  N_9
REMARK    4  A    between atoms: C_14  and  C_15
REMARK    5  A    between atoms: C_15  and  O_17
REMARK                            x       y       z     vdW  Elec       q    Type
REMARK                         _______ _______ _______ _____ _____    ______ ____
ROOT
ATOM      1  N   UNL     1      50.245   4.959  17.894  0.00  0.00    +0.000 N 
ATOM      2  C   UNL     1      51.272   5.848  18.063  0.00  0.00    +0.000 A 
ATOM      3  N   UNL     1      52.437   5.245  18.076  0.00  0.00    +0.000 NA
ATOM      4  C   UNL     1      52.159   3.917  17.878  0.00  0.00    +0.000 A 
ATOM      5  C   UNL     1      53.045   2.833  17.816  0.00  0.00    +0.000 A 
ATOM      6  C   UNL     1      52.514   1.550  17.621  0.00  0.00    +0.000 A 
ATOM      7  C   UNL     1      51.136   1.366  17.431  0.00  0.00    +0.000 A 
ATOM      8  C   UNL     1      50.241   2.442  17.486  0.00  0.00    +0.000 A 
ATOM      9  C   UNL     1      50.789   3.707  17.729  0.00  0.00    +0.000 A 
ENDROOT
BRANCH   6  10
ATOM     10  C   UNL     1      53.387   0.352  17.577  0.00  0.00    +0.000 C 
ATOM     11  O   UNL     1      54.252   0.195  16.734  0.00  0.00    +0.000 OA
BRANCH  10  12
ATOM     12  O   UNL     1      53.097  -0.572  18.519  0.00  0.00    +0.000 OA
ATOM     13  H   UNL     1      53.686  -1.349  18.541  0.00  0.00    +0.000 HD
ENDBRANCH  10  12
ENDBRANCH   6  10
BRANCH   1  14
ATOM     14  C   UNL     1      48.832   5.305  17.932  0.00  0.00    +0.000 C 
BRANCH  14  18
ATOM     15  C   UNL     1      46.895   4.841  14.168  0.00  0.00    +0.000 A 
ATOM     16  C   UNL     1      47.754   5.918  14.309  0.00  0.00    +0.000 A 
ATOM     17  C   UNL     1      48.401   6.088  15.530  0.00  0.00    +0.000 A 
ATOM     18  C   UNL     1      48.165   5.194  16.583  0.00  0.00    +0.000 A 
ATOM     19  C   UNL     1      47.310   4.124  16.321  0.00  0.00    +0.000 A 
ATOM     20  N   UNL     1      46.663   3.925  15.150  0.00  0.00    +0.000 NA
BRANCH  15  22
ATOM     21  N   UNL     1      45.458   3.485  12.764  0.00  0.00    +0.000 N 
ATOM     22  C   UNL     1      46.153   4.657  12.880  0.00  0.00    +0.000 C 
ATOM     23  O   UNL     1      46.154   5.496  11.989  0.00  0.00    +0.000 OA
ATOM     24  H   UNL     1      44.910   3.310  11.936  0.00  0.00    +0.000 HD
ATOM     25  H   UNL     1      45.463   2.819  13.531  0.00  0.00    +0.000 HD
ENDBRANCH  15  22
ENDBRANCH  14  18
ENDBRANCH   1  14
TORSDOF 5
ENDMDL
