MODEL 1
REMARK VINA RESULT:    -8.978      0.000      0.000
REMARK INTER + INTRA:         -12.222
REMARK INTER:                 -11.078
REMARK INTRA:                  -1.144
REMARK UNBOUND:                -1.144
REMARK  Name = 
REMARK  4 active torsions:
REMARK  status: ('A' for Active; 'I' for Inactive)
REMARK    1  A    between atoms: C_2  and  C_4
REMARK    2  A    between atoms: N_8  and  C_9
REMARK    3  A    between atoms: C_9  and  C_10
REMARK    4  A    between atoms: C_14  and  C_15
REMARK                            x       y       z     vdW  Elec       q    Type
REMARK                         _______ _______ _______ _____ _____    ______ ____
ROOT
ATOM      1  C   UNL     1      43.803   4.890  11.361  0.00  0.00    +0.000 C 
ATOM      2  C   UNL     1      42.466   5.143  12.049  0.00  0.00    +0.000 C 
ATOM      3  C   UNL     1      42.979   6.123  11.048  0.00  0.00    +0.000 C 
ENDROOT
BRANCH   1   8
ATOM      4  C   UNL     1      46.563   2.758   7.505  0.00  0.00    +0.000 A 
ATOM      5  C   UNL     1      46.200   4.091   7.667  0.00  0.00    +0.000 A 
ATOM      6  C   UNL     1      45.313   4.439   8.689  0.00  0.00    +0.000 A 
ATOM      7  C   UNL     1      44.800   3.451   9.519  0.00  0.00    +0.000 A 
ATOM      8  N   UNL     1      43.825   3.697  10.493  0.00  0.00    +0.000 N 
ATOM      9  N   UNL     1      45.145   2.154   9.370  0.00  0.00    +0.000 NA
ATOM     10  C   UNL     1      46.010   1.832   8.374  0.00  0.00    +0.000 A 
ATOM     11  H   UNL     1      43.709   2.808  10.977  0.00  0.00    +0.000 HD
BRANCH   4  13
ATOM     12  N   UNL     1      47.408   2.938   5.232  0.00  0.00    +0.000 N 
ATOM     13  C   UNL     1      47.465   2.286   6.433  0.00  0.00    +0.000 C 
ATOM     14  O   UNL     1      48.250   1.367   6.617  0.00  0.00    +0.000 OA
ATOM     15  H   UNL     1      48.101   2.665   4.545  0.00  0.00    +0.000 HD
ATOM     16  H   UNL     1      46.978   3.844   5.123  0.00  0.00    +0.000 HD
ENDBRANCH   4  13
ENDBRANCH   1   8
BRANCH   1  17
ATOM     17  C   UNL     1      45.087   5.060  12.169  0.00  0.00    +0.000 A 
ATOM     18  C   UNL     1      45.563   4.054  13.024  0.00  0.00    +0.000 A 
ATOM     19  C   UNL     1      46.792   4.175  13.670  0.00  0.00    +0.000 A 
ATOM     20  C   UNL     1      47.584   5.303  13.458  0.00  0.00    +0.000 A 
ATOM     21  C   UNL     1      47.166   6.335  12.603  0.00  0.00    +0.000 A 
ATOM     22  C   UNL     1      45.900   6.200  11.999  0.00  0.00    +0.000 A 
BRANCH  21  23
ATOM     23  C   UNL     1      48.044   7.482  12.285  0.00  0.00    +0.000 A 
ATOM     24  C   UNL     1      49.425   7.310  12.107  0.00  0.00    +0.000 A 
ATOM     25  C   UNL     1      50.215   8.395  11.762  0.00  0.00    +0.000 A 
ATOM     26  N   UNL     1      49.735   9.641  11.576  0.00  0.00    +0.000 NA
ATOM     27  C   UNL     1      48.408   9.801  11.751  0.00  0.00    +0.000 A 
ATOM     28  C   UNL     1      47.540   8.780  12.102  0.00  0.00    +0.000 A 
ENDBRANCH  21  23
ENDBRANCH   1  17
TORSDOF 4
ENDMDL
MODEL 2
REMARK VINA RESULT:    -6.591      4.369      8.277
REMARK INTER + INTRA:          -9.276
REMARK INTER:                  -8.274
REMARK INTRA:                  -1.002
REMARK UNBOUND:                -1.144
REMARK  Name = 
REMARK  4 active torsions:
REMARK  status: ('A' for Active; 'I' for Inactive)
REMARK    1  A    between atoms: C_2  and  C_4
REMARK    2  A    between atoms: N_8  and  C_9
REMARK    3  A    between atoms: C_9  and  C_10
REMARK    4  A    between atoms: C_14  and  C_15
REMARK                            x       y       z     vdW  Elec       q    Type
REMARK                         _______ _______ _______ _____ _____    ______ ____
ROOT
ATOM      1  C   UNL     1      49.102   7.922  12.704  0.00  0.00    +0.000 C 
ATOM      2  C   UNL     1      50.055   8.078  11.524  0.00  0.00    +0.000 C 
ATOM      3  C   UNL     1      49.764   9.251  12.398  0.00  0.00    +0.000 C 
ENDROOT
BRANCH   1   8
ATOM      4  C   UNL     1      48.388   6.841  17.740  0.00  0.00    +0.000 A 
ATOM      5  C   UNL     1      48.474   8.090  17.132  0.00  0.00    +0.000 A 
ATOM      6  C   UNL     1      48.834   8.172  15.785  0.00  0.00    +0.000 A 
ATOM      7  C   UNL     1      49.111   7.009  15.076  0.00  0.00    +0.000 A 
ATOM      8  N   UNL     1      49.584   7.009  13.759  0.00  0.00    +0.000 N 
ATOM      9  N   UNL     1      49.031   5.792  15.656  0.00  0.00    +0.000 NA
ATOM     10  C   UNL     1      48.677   5.730  16.965  0.00  0.00    +0.000 A 
ATOM     11  H   UNL     1      49.620   6.025  13.495  0.00  0.00    +0.000 HD
BRANCH   4  13
ATOM     12  N   UNL     1      47.172   5.652  19.478  0.00  0.00    +0.000 N 
ATOM     13  C   UNL     1      48.051   6.653  19.166  0.00  0.00    +0.000 C 
ATOM     14  O   UNL     1      48.554   7.347  20.039  0.00  0.00    +0.000 OA
ATOM     15  H   UNL     1      47.031   5.476  20.466  0.00  0.00    +0.000 HD
ATOM     16  H   UNL     1      46.944   4.908  18.837  0.00  0.00    +0.000 HD
ENDBRANCH   4  13
ENDBRANCH   1   8
BRANCH   1  17
ATOM     17  C   UNL     1      47.608   7.773  12.426  0.00  0.00    +0.000 A 
ATOM     18  C   UNL     1      46.701   8.814  12.674  0.00  0.00    +0.000 A 
ATOM     19  C   UNL     1      45.359   8.706  12.313  0.00  0.00    +0.000 A 
ATOM     20  C   UNL     1      44.899   7.556  11.673  0.00  0.00    +0.000 A 
ATOM     21  C   UNL     1      45.763   6.488  11.387  0.00  0.00    +0.000 A 
ATOM     22  C   UNL     1      47.104   6.612  11.803  0.00  0.00    +0.000 A 
BRANCH  21  23
ATOM     23  C   UNL     1      45.311   5.311  10.612  0.00  0.00    +0.000 A 
ATOM     24  C   UNL     1      45.669   5.150   9.265  0.00  0.00    +0.000 A 
ATOM     25  C   UNL     1      45.271   4.014   8.579  0.00  0.00    +0.000 A 
ATOM     26  N   UNL     1      44.546   3.021   9.131  0.00  0.00    +0.000 NA
ATOM     27  C   UNL     1      44.203   3.183  10.425  0.00  0.00    +0.000 A 
ATOM     28  C   UNL     1      44.548   4.285  11.190  0.00  0.00    +0.000 A 
ENDBRANCH  21  23
ENDBRANCH   1  17
TORSDOF 4
ENDMDL
MODEL 3
REMARK VINA RESULT:    -6.409      3.652      7.519
REMARK INTER + INTRA:          -9.052
REMARK INTER:                  -9.032
REMARK INTRA:                  -0.020
REMARK UNBOUND:                -1.144
REMARK  Name = 
REMARK  4 active torsions:
REMARK  status: ('A' for Active; 'I' for Inactive)
REMARK    1  A    between atoms: C_2  and  C_4
REMARK    2  A    between atoms: N_8  and  C_9
REMARK    3  A    between atoms: C_9  and  C_10
REMARK    4  A    between atoms: C_14  and  C_15
REMARK                            x       y       z     vdW  Elec       q    Type
REMARK                         _______ _______ _______ _____ _____    ______ ____
ROOT
ATOM      1  C   UNL     1      48.558   7.854  12.868  0.00  0.00    +0.000 C 
ATOM      2  C   UNL     1      49.717   7.252  12.081  0.00  0.00    +0.000 C 
ATOM      3  C   UNL     1      49.486   8.725  12.044  0.00  0.00    +0.000 C 
ENDROOT
BRANCH   1   8
ATOM      4  C   UNL     1      48.037   4.308  16.635  0.00  0.00    +0.000 A 
ATOM      5  C   UNL     1      47.212   4.522  15.536  0.00  0.00    +0.000 A 
ATOM      6  C   UNL     1      47.431   5.637  14.722  0.00  0.00    +0.000 A 
ATOM      7  C   UNL     1      48.461   6.518  15.027  0.00  0.00    +0.000 A 
ATOM      8  N   UNL     1      48.679   7.713  14.332  0.00  0.00    +0.000 N 
ATOM      9  N   UNL     1      49.268   6.320  16.092  0.00  0.00    +0.000 NA
ATOM     10  C   UNL     1      49.044   5.230  16.871  0.00  0.00    +0.000 A 
ATOM     11  H   UNL     1      49.534   8.096  14.734  0.00  0.00    +0.000 HD
BRANCH   4  13
ATOM     12  N   UNL     1      48.922   2.864  18.381  0.00  0.00    +0.000 N 
ATOM     13  C   UNL     1      47.863   3.181  17.574  0.00  0.00    +0.000 C 
ATOM     14  O   UNL     1      46.807   2.568  17.649  0.00  0.00    +0.000 OA
ATOM     15  H   UNL     1      48.749   2.155  19.084  0.00  0.00    +0.000 HD
ATOM     16  H   UNL     1      49.696   3.492  18.535  0.00  0.00    +0.000 HD
ENDBRANCH   4  13
ENDBRANCH   1   8
BRANCH   1  17
ATOM     17  C   UNL     1      47.134   7.630  12.365  0.00  0.00    +0.000 A 
ATOM     18  C   UNL     1      46.154   8.632  12.445  0.00  0.00    +0.000 A 
ATOM     19  C   UNL     1      44.892   8.455  11.883  0.00  0.00    +0.000 A 
ATOM     20  C   UNL     1      44.588   7.274  11.206  0.00  0.00    +0.000 A 
ATOM     21  C   UNL     1      45.532   6.243  11.081  0.00  0.00    +0.000 A 
ATOM     22  C   UNL     1      46.785   6.437  11.698  0.00  0.00    +0.000 A 
BRANCH  21  23
ATOM     23  C   UNL     1      45.259   5.035  10.273  0.00  0.00    +0.000 A 
ATOM     24  C   UNL     1      44.525   3.962  10.798  0.00  0.00    +0.000 A 
ATOM     25  C   UNL     1      44.245   2.864  10.001  0.00  0.00    +0.000 A 
ATOM     26  N   UNL     1      44.635   2.753   8.716  0.00  0.00    +0.000 NA
ATOM     27  C   UNL     1      45.342   3.787   8.217  0.00  0.00    +0.000 A 
ATOM     28  C   UNL     1      45.677   4.921   8.938  0.00  0.00    +0.000 A 
ENDBRANCH  21  23
ENDBRANCH   1  17
TORSDOF 4
ENDMDL
MODEL 4
REMARK VINA RESULT:    -6.141      3.774      5.932
REMARK INTER + INTRA:          -8.720
REMARK INTER:                  -8.351
REMARK INTRA:                  -0.369
REMARK UNBOUND:                -1.144
REMARK  Name = 
REMARK  4 active torsions:
REMARK  status: ('A' for Active; 'I' for Inactive)
REMARK    1  A    between atoms: C_2  and  C_4
REMARK    2  A    between atoms: N_8  and  C_9
REMARK    3  A    between atoms: C_9  and  C_10
REMARK    4  A    between atoms: C_14  and  C_15
REMARK                            x       y       z     vdW  Elec       q    Type
REMARK                         _______ _______ _______ _____ _____    ______ ____
ROOT
ATOM      1  C   UNL     1      47.430   8.434  13.291  0.00  0.00    +0.000 C 
ATOM      2  C   UNL     1      47.705   9.751  12.573  0.00  0.00    +0.000 C 
ATOM      3  C   UNL     1      48.334   8.493  12.076  0.00  0.00    +0.000 C 
ENDROOT
BRANCH   1   8
ATOM      4  C   UNL     1      44.495   4.630  11.304  0.00  0.00    +0.000 A 
ATOM      5  C   UNL     1      45.544   5.313  10.697  0.00  0.00    +0.000 A 
ATOM      6  C   UNL     1      46.103   6.420  11.340  0.00  0.00    +0.000 A 
ATOM      7  C   UNL     1      45.599   6.828  12.569  0.00  0.00    +0.000 A 
ATOM      8  N   UNL     1      46.026   7.988  13.226  0.00  0.00    +0.000 N 
ATOM      9  N   UNL     1      44.581   6.173  13.167  0.00  0.00    +0.000 NA
ATOM     10  C   UNL     1      44.050   5.097  12.530  0.00  0.00    +0.000 A 
ATOM     11  H   UNL     1      45.534   7.977  14.119  0.00  0.00    +0.000 HD
BRANCH   4  13
ATOM     12  N   UNL     1      44.112   3.190   9.383  0.00  0.00    +0.000 N 
ATOM     13  C   UNL     1      43.815   3.472  10.688  0.00  0.00    +0.000 C 
ATOM     14  O   UNL     1      43.035   2.776  11.323  0.00  0.00    +0.000 OA
ATOM     15  H   UNL     1      43.713   2.336   9.010  0.00  0.00    +0.000 HD
ATOM     16  H   UNL     1      44.923   3.566   8.915  0.00  0.00    +0.000 HD
ENDBRANCH   4  13
ENDBRANCH   1   8
BRANCH   1  17
ATOM     17  C   UNL     1      48.067   8.198  14.659  0.00  0.00    +0.000 A 
ATOM     18  C   UNL     1      48.208   9.231  15.599  0.00  0.00    +0.000 A 
ATOM     19  C   UNL     1      48.688   8.980  16.883  0.00  0.00    +0.000 A 
ATOM     20  C   UNL     1      49.018   7.679  17.263  0.00  0.00    +0.000 A 
ATOM     21  C   UNL     1      48.885   6.604  16.370  0.00  0.00    +0.000 A 
ATOM     22  C   UNL     1      48.437   6.899  15.066  0.00  0.00    +0.000 A 
BRANCH  21  23
ATOM     23  C   UNL     1      49.127   5.208  16.795  0.00  0.00    +0.000 A 
ATOM     24  C   UNL     1      48.137   4.224  16.650  0.00  0.00    +0.000 A 
ATOM     25  C   UNL     1      48.410   2.916  17.013  0.00  0.00    +0.000 A 
ATOM     26  N   UNL     1      49.596   2.508  17.507  0.00  0.00    +0.000 NA
ATOM     27  C   UNL     1      50.542   3.457  17.646  0.00  0.00    +0.000 A 
ATOM     28  C   UNL     1      50.361   4.791  17.318  0.00  0.00    +0.000 A 
ENDBRANCH  21  23
ENDBRANCH   1  17
TORSDOF 4
ENDMDL
MODEL 5
REMARK VINA RESULT:    -6.035      3.654      6.484
REMARK INTER + INTRA:          -8.590
REMARK INTER:                  -7.497
REMARK INTRA:                  -1.093
REMARK UNBOUND:                -1.144
REMARK  Name = 
REMARK  4 active torsions:
REMARK  status: ('A' for Active; 'I' for Inactive)
REMARK    1  A    between atoms: C_2  and  C_4
REMARK    2  A    between atoms: N_8  and  C_9
REMARK    3  A    between atoms: C_9  and  C_10
REMARK    4  A    between atoms: C_14  and  C_15
REMARK                            x       y       z     vdW  Elec       q    Type
REMARK                         _______ _______ _______ _____ _____    ______ ____
ROOT
ATOM      1  C   UNL     1      49.031   8.397  12.473  0.00  0.00    +0.000 C 
ATOM      2  C   UNL     1      50.199   9.166  11.865  0.00  0.00    +0.000 C 
ATOM      3  C   UNL     1      50.152   7.680  11.747  0.00  0.00    +0.000 C 
ENDROOT
BRANCH   1   8
ATOM      4  C   UNL     1      44.405   6.185  11.608  0.00  0.00    +0.000 A 
ATOM      5  C   UNL     1      45.668   5.613  11.488  0.00  0.00    +0.000 A 
ATOM      6  C   UNL     1      46.800   6.422  11.606  0.00  0.00    +0.000 A 
ATOM      7  C   UNL     1      46.650   7.786  11.830  0.00  0.00    +0.000 A 
ATOM      8  N   UNL     1      47.724   8.682  11.850  0.00  0.00    +0.000 N 
ATOM      9  N   UNL     1      45.429   8.352  11.947  0.00  0.00    +0.000 NA
ATOM     10  C   UNL     1      44.339   7.550  11.833  0.00  0.00    +0.000 A 
ATOM     11  H   UNL     1      47.311   9.578  12.105  0.00  0.00    +0.000 HD
BRANCH   4  13
ATOM     12  N   UNL     1      41.981   6.068  11.753  0.00  0.00    +0.000 N 
ATOM     13  C   UNL     1      43.150   5.420  11.462  0.00  0.00    +0.000 C 
ATOM     14  O   UNL     1      43.149   4.260  11.073  0.00  0.00    +0.000 OA
ATOM     15  H   UNL     1      41.128   5.559  11.553  0.00  0.00    +0.000 HD
ATOM     16  H   UNL     1      41.917   7.073  11.821  0.00  0.00    +0.000 HD
ENDBRANCH   4  13
ENDBRANCH   1   8
BRANCH   1  17
ATOM     17  C   UNL     1      48.950   8.266  13.992  0.00  0.00    +0.000 A 
ATOM     18  C   UNL     1      48.682   9.369  14.817  0.00  0.00    +0.000 A 
ATOM     19  C   UNL     1      48.501   9.218  16.191  0.00  0.00    +0.000 A 
ATOM     20  C   UNL     1      48.562   7.950  16.768  0.00  0.00    +0.000 A 
ATOM     21  C   UNL     1      48.813   6.809  15.991  0.00  0.00    +0.000 A 
ATOM     22  C   UNL     1      49.034   7.002  14.612  0.00  0.00    +0.000 A 
BRANCH  21  23
ATOM     23  C   UNL     1      48.771   5.450  16.573  0.00  0.00    +0.000 A 
ATOM     24  C   UNL     1      49.813   4.976  17.384  0.00  0.00    +0.000 A 
ATOM     25  C   UNL     1      49.724   3.717  17.955  0.00  0.00    +0.000 A 
ATOM     26  N   UNL     1      48.672   2.891  17.784  0.00  0.00    +0.000 NA
ATOM     27  C   UNL     1      47.674   3.350  17.003  0.00  0.00    +0.000 A 
ATOM     28  C   UNL     1      47.678   4.590  16.384  0.00  0.00    +0.000 A 
ENDBRANCH  21  23
ENDBRANCH   1  17
TORSDOF 4
ENDMDL
