MODEL 1
REMARK VINA RESULT:    -8.306      0.000      0.000
REMARK INTER + INTRA:         -12.446
REMARK INTER:                 -11.948
REMARK INTRA:                  -0.498
REMARK UNBOUND:                -0.498
REMARK  Name = 
REMARK  8 active torsions:
REMARK  status: ('A' for Active; 'I' for Inactive)
REMARK    1  A    between atoms: N_1  and  C_2
REMARK    2  A    between atoms: C_2  and  C_3
REMARK    3  A    between atoms: C_3  and  N_4
REMARK    4  A    between atoms: C_3  and  C_17
REMARK    5  A    between atoms: C_5  and  C_7
REMARK    6  A    between atoms: C_20  and  O_21
REMARK    7  A    between atoms: O_21  and  C_22
REMARK    8  A    between atoms: C_22  and  C_23
REMARK                            x       y       z     vdW  Elec       q    Type
REMARK                         _______ _______ _______ _____ _____    ______ ____
ROOT
ATOM      1  C   UNL     1      46.390   7.785  13.045  0.00  0.00    +0.000 C 
ENDROOT
BRANCH   1   2
ATOM      2  C   UNL     1      45.950   6.648  12.133  0.00  0.00    +0.000 A 
ATOM      3  C   UNL     1      45.053   5.677  12.611  0.00  0.00    +0.000 A 
ATOM      4  C   UNL     1      44.494   4.737  11.740  0.00  0.00    +0.000 A 
ATOM      5  C   UNL     1      44.824   4.751  10.387  0.00  0.00    +0.000 A 
ATOM      6  C   UNL     1      45.818   5.617   9.936  0.00  0.00    +0.000 A 
ATOM      7  C   UNL     1      46.379   6.553  10.804  0.00  0.00    +0.000 A 
BRANCH   5   8
ATOM      8  O   UNL     1      44.117   3.903   9.577  0.00  0.00    +0.000 OA
BRANCH   8   9
ATOM      9  C   UNL     1      44.594   2.551   9.580  0.00  0.00    +0.000 C 
BRANCH   9  10
ATOM     10  C   UNL     1      45.507   2.299   8.405  0.00  0.00    +0.000 A 
ATOM     11  C   UNL     1      45.684   3.287   7.436  0.00  0.00    +0.000 A 
ATOM     12  C   UNL     1      46.576   3.054   6.396  0.00  0.00    +0.000 A 
ATOM     13  C   UNL     1      47.267   1.851   6.350  0.00  0.00    +0.000 A 
ATOM     14  C   UNL     1      47.042   0.926   7.355  0.00  0.00    +0.000 A 
ATOM     15  N   UNL     1      46.188   1.125   8.381  0.00  0.00    +0.000 NA
ENDBRANCH   9  10
ENDBRANCH   8   9
ENDBRANCH   5   8
ENDBRANCH   1   2
BRANCH   1  16
ATOM     16  N   UNL     1      47.020   7.260  14.243  0.00  0.00    +0.000 N 
ATOM     17  C   UNL     1      48.262   6.680  14.207  0.00  0.00    +0.000 C 
ATOM     18  O   UNL     1      48.909   6.606  13.164  0.00  0.00    +0.000 OA
ATOM     19  H   UNL     1      46.422   7.114  15.051  0.00  0.00    +0.000 HD
BRANCH  17  20
ATOM     20  C   UNL     1      48.809   6.182  15.472  0.00  0.00    +0.000 A 
ATOM     21  C   UNL     1      49.921   6.800  16.025  0.00  0.00    +0.000 A 
ATOM     22  S   UNL     1      50.426   6.109  17.499  0.00  0.00    +0.000 S 
ATOM     23  C   UNL     1      49.200   4.930  17.426  0.00  0.00    +0.000 A 
ATOM     24  N   UNL     1      49.092   3.977  18.392  0.00  0.00    +0.000 NA
ATOM     25  C   UNL     1      48.145   3.125  18.189  0.00  0.00    +0.000 A 
ATOM     26  N   UNL     1      47.286   3.145  17.120  0.00  0.00    +0.000 N 
ATOM     27  C   UNL     1      47.327   4.120  16.150  0.00  0.00    +0.000 A 
ATOM     28  O   UNL     1      46.487   4.157  15.256  0.00  0.00    +0.000 OA
ATOM     29  C   UNL     1      48.398   5.082  16.309  0.00  0.00    +0.000 A 
ATOM     30  H   UNL     1      46.552   2.459  17.034  0.00  0.00    +0.000 HD
ENDBRANCH  17  20
ENDBRANCH   1  16
BRANCH   1  31
ATOM     31  C   UNL     1      47.288   8.832  12.302  0.00  0.00    +0.000 C 
BRANCH  31  32
ATOM     32  N   UNL     1      46.787  10.211  12.264  0.00  0.00    +0.000 NA
ATOM     33  H   UNL     1      47.568  10.857  12.366  0.00  0.00    +0.000 HD
ATOM     34  H   UNL     1      46.413  10.407  11.328  0.00  0.00    +0.000 HD
ENDBRANCH  31  32
ENDBRANCH   1  31
TORSDOF 8
ENDMDL
MODEL 2
REMARK VINA RESULT:    -8.112      2.660      3.725
REMARK INTER + INTRA:         -12.167
REMARK INTER:                 -10.701
REMARK INTRA:                  -1.466
REMARK UNBOUND:                -0.498
REMARK  Name = 
REMARK  8 active torsions:
REMARK  status: ('A' for Active; 'I' for Inactive)
REMARK    1  A    between atoms: N_1  and  C_2
REMARK    2  A    between atoms: C_2  and  C_3
REMARK    3  A    between atoms: C_3  and  N_4
REMARK    4  A    between atoms: C_3  and  C_17
REMARK    5  A    between atoms: C_5  and  C_7
REMARK    6  A    between atoms: C_20  and  O_21
REMARK    7  A    between atoms: O_21  and  C_22
REMARK    8  A    between atoms: C_22  and  C_23
REMARK                            x       y       z     vdW  Elec       q    Type
REMARK                         _______ _______ _______ _____ _____    ______ ____
ROOT
ATOM      1  C   UNL     1      47.798   4.650  15.029  0.00  0.00    +0.000 C 
ENDROOT
BRANCH   1   2
ATOM      2  C   UNL     1      46.825   4.793  13.868  0.00  0.00    +0.000 A 
ATOM      3  C   UNL     1      46.700   6.029  13.209  0.00  0.00    +0.000 A 
ATOM      4  C   UNL     1      45.958   6.134  12.030  0.00  0.00    +0.000 A 
ATOM      5  C   UNL     1      45.328   5.013  11.495  0.00  0.00    +0.000 A 
ATOM      6  C   UNL     1      45.329   3.821  12.216  0.00  0.00    +0.000 A 
ATOM      7  C   UNL     1      46.067   3.715  13.395  0.00  0.00    +0.000 A 
BRANCH   5   8
ATOM      8  O   UNL     1      44.756   5.164  10.261  0.00  0.00    +0.000 OA
BRANCH   8   9
ATOM      9  C   UNL     1      44.259   3.947   9.688  0.00  0.00    +0.000 C 
BRANCH   9  10
ATOM     10  C   UNL     1      45.282   3.330   8.766  0.00  0.00    +0.000 A 
ATOM     11  C   UNL     1      45.551   1.963   8.838  0.00  0.00    +0.000 A 
ATOM     12  C   UNL     1      46.453   1.409   7.937  0.00  0.00    +0.000 A 
ATOM     13  C   UNL     1      47.059   2.226   6.992  0.00  0.00    +0.000 A 
ATOM     14  C   UNL     1      46.730   3.571   6.980  0.00  0.00    +0.000 A 
ATOM     15  N   UNL     1      45.854   4.137   7.836  0.00  0.00    +0.000 NA
ENDBRANCH   9  10
ENDBRANCH   8   9
ENDBRANCH   5   8
ENDBRANCH   1   2
BRANCH   1  16
ATOM     16  N   UNL     1      47.754   5.827  15.877  0.00  0.00    +0.000 N 
ATOM     17  C   UNL     1      48.873   6.579  16.123  0.00  0.00    +0.000 C 
ATOM     18  O   UNL     1      49.958   6.306  15.611  0.00  0.00    +0.000 OA
ATOM     19  H   UNL     1      46.938   5.936  16.472  0.00  0.00    +0.000 HD
BRANCH  17  20
ATOM     20  C   UNL     1      48.721   7.749  16.992  0.00  0.00    +0.000 A 
ATOM     21  C   UNL     1      49.099   9.000  16.525  0.00  0.00    +0.000 A 
ATOM     22  S   UNL     1      48.850  10.255  17.651  0.00  0.00    +0.000 S 
ATOM     23  C   UNL     1      48.269   9.161  18.820  0.00  0.00    +0.000 A 
ATOM     24  N   UNL     1      47.906   9.593  20.059  0.00  0.00    +0.000 NA
ATOM     25  C   UNL     1      47.524   8.652  20.854  0.00  0.00    +0.000 A 
ATOM     26  N   UNL     1      47.457   7.323  20.524  0.00  0.00    +0.000 N 
ATOM     27  C   UNL     1      47.765   6.851  19.269  0.00  0.00    +0.000 A 
ATOM     28  O   UNL     1      47.609   5.667  18.983  0.00  0.00    +0.000 OA
ATOM     29  C   UNL     1      48.237   7.861  18.345  0.00  0.00    +0.000 A 
ATOM     30  H   UNL     1      47.128   6.641  21.190  0.00  0.00    +0.000 HD
ENDBRANCH  17  20
ENDBRANCH   1  16
BRANCH   1  31
ATOM     31  C   UNL     1      47.576   3.323  15.832  0.00  0.00    +0.000 C 
BRANCH  31  32
ATOM     32  N   UNL     1      46.801   3.433  17.074  0.00  0.00    +0.000 NA
ATOM     33  H   UNL     1      46.724   2.513  17.506  0.00  0.00    +0.000 HD
ATOM     34  H   UNL     1      47.329   3.992  17.752  0.00  0.00    +0.000 HD
ENDBRANCH  31  32
ENDBRANCH   1  31
TORSDOF 8
ENDMDL
MODEL 3
REMARK VINA RESULT:    -7.981      4.483      8.621
REMARK INTER + INTRA:         -11.978
REMARK INTER:                 -10.945
REMARK INTRA:                  -1.033
REMARK UNBOUND:                -0.498
REMARK  Name = 
REMARK  8 active torsions:
REMARK  status: ('A' for Active; 'I' for Inactive)
REMARK    1  A    between atoms: N_1  and  C_2
REMARK    2  A    between atoms: C_2  and  C_3
REMARK    3  A    between atoms: C_3  and  N_4
REMARK    4  A    between atoms: C_3  and  C_17
REMARK    5  A    between atoms: C_5  and  C_7
REMARK    6  A    between atoms: C_20  and  O_21
REMARK    7  A    between atoms: O_21  and  C_22
REMARK    8  A    between atoms: C_22  and  C_23
REMARK                            x       y       z     vdW  Elec       q    Type
REMARK                         _______ _______ _______ _____ _____    ______ ____
ROOT
ATOM      1  C   UNL     1      48.656   5.774  17.468  0.00  0.00    +0.000 C 
ENDROOT
BRANCH   1   2
ATOM      2  C   UNL     1      49.501   4.512  17.567  0.00  0.00    +0.000 A 
ATOM      3  C   UNL     1      48.925   3.261  17.284  0.00  0.00    +0.000 A 
ATOM      4  C   UNL     1      49.723   2.118  17.187  0.00  0.00    +0.000 A 
ATOM      5  C   UNL     1      51.100   2.205  17.374  0.00  0.00    +0.000 A 
ATOM      6  C   UNL     1      51.657   3.411  17.793  0.00  0.00    +0.000 A 
ATOM      7  C   UNL     1      50.862   4.553  17.894  0.00  0.00    +0.000 A 
BRANCH   5   8
ATOM      8  O   UNL     1      51.826   1.075  17.107  0.00  0.00    +0.000 OA
BRANCH   8   9
ATOM      9  C   UNL     1      53.220   1.182  17.423  0.00  0.00    +0.000 C 
BRANCH   9  10
ATOM     10  C   UNL     1      53.838  -0.185  17.597  0.00  0.00    +0.000 A 
ATOM     11  C   UNL     1      54.631  -0.725  16.585  0.00  0.00    +0.000 A 
ATOM     12  C   UNL     1      55.238  -1.959  16.795  0.00  0.00    +0.000 A 
ATOM     13  C   UNL     1      55.040  -2.616  18.002  0.00  0.00    +0.000 A 
ATOM     14  C   UNL     1      54.246  -2.008  18.959  0.00  0.00    +0.000 A 
ATOM     15  N   UNL     1      53.650  -0.810  18.788  0.00  0.00    +0.000 NA
ENDBRANCH   9  10
ENDBRANCH   8   9
ENDBRANCH   5   8
ENDBRANCH   1   2
BRANCH   1  16
ATOM     16  N   UNL     1      47.853   5.754  16.258  0.00  0.00    +0.000 N 
ATOM     17  C   UNL     1      48.344   6.207  15.061  0.00  0.00    +0.000 C 
ATOM     18  O   UNL     1      49.497   6.623  14.953  0.00  0.00    +0.000 OA
ATOM     19  H   UNL     1      46.852   5.626  16.372  0.00  0.00    +0.000 HD
BRANCH  17  20
ATOM     20  C   UNL     1      47.453   6.142  13.900  0.00  0.00    +0.000 A 
ATOM     21  C   UNL     1      47.140   7.307  13.213  0.00  0.00    +0.000 A 
ATOM     22  S   UNL     1      46.101   7.060  11.884  0.00  0.00    +0.000 S 
ATOM     23  C   UNL     1      45.999   5.392  12.208  0.00  0.00    +0.000 A 
ATOM     24  N   UNL     1      45.218   4.580  11.443  0.00  0.00    +0.000 NA
ATOM     25  C   UNL     1      45.203   3.349  11.826  0.00  0.00    +0.000 A 
ATOM     26  N   UNL     1      45.905   2.848  12.893  0.00  0.00    +0.000 N 
ATOM     27  C   UNL     1      46.746   3.622  13.660  0.00  0.00    +0.000 A 
ATOM     28  O   UNL     1      47.426   3.124  14.552  0.00  0.00    +0.000 OA
ATOM     29  C   UNL     1      46.772   5.024  13.296  0.00  0.00    +0.000 A 
ATOM     30  H   UNL     1      45.864   1.868  13.125  0.00  0.00    +0.000 HD
ENDBRANCH  17  20
ENDBRANCH   1  16
BRANCH   1  31
ATOM     31  C   UNL     1      47.797   6.019  18.755  0.00  0.00    +0.000 C 
BRANCH  31  32
ATOM     32  N   UNL     1      46.438   5.463  18.748  0.00  0.00    +0.000 NA
ATOM     33  H   UNL     1      45.942   5.776  19.582  0.00  0.00    +0.000 HD
ATOM     34  H   UNL     1      45.911   5.871  17.968  0.00  0.00    +0.000 HD
ENDBRANCH  31  32
ENDBRANCH   1  31
TORSDOF 8
ENDMDL
MODEL 4
REMARK VINA RESULT:    -7.829      2.286      2.699
REMARK INTER + INTRA:         -11.760
REMARK INTER:                 -10.839
REMARK INTRA:                  -0.921
REMARK UNBOUND:                -0.498
REMARK  Name = 
REMARK  8 active torsions:
REMARK  status: ('A' for Active; 'I' for Inactive)
REMARK    1  A    between atoms: N_1  and  C_2
REMARK    2  A    between atoms: C_2  and  C_3
REMARK    3  A    between atoms: C_3  and  N_4
REMARK    4  A    between atoms: C_3  and  C_17
REMARK    5  A    between atoms: C_5  and  C_7
REMARK    6  A    between atoms: C_20  and  O_21
REMARK    7  A    between atoms: O_21  and  C_22
REMARK    8  A    between atoms: C_22  and  C_23
REMARK                            x       y       z     vdW  Elec       q    Type
REMARK                         _______ _______ _______ _____ _____    ______ ____
ROOT
ATOM      1  C   UNL     1      47.694   6.673  13.571  0.00  0.00    +0.000 C 
ENDROOT
BRANCH   1   2
ATOM      2  C   UNL     1      46.641   5.859  12.832  0.00  0.00    +0.000 A 
ATOM      3  C   UNL     1      46.016   6.394  11.692  0.00  0.00    +0.000 A 
ATOM      4  C   UNL     1      45.191   5.597  10.894  0.00  0.00    +0.000 A 
ATOM      5  C   UNL     1      44.974   4.261  11.224  0.00  0.00    +0.000 A 
ATOM      6  C   UNL     1      45.474   3.765  12.426  0.00  0.00    +0.000 A 
ATOM      7  C   UNL     1      46.296   4.560  13.224  0.00  0.00    +0.000 A 
BRANCH   5   8
ATOM      8  O   UNL     1      44.284   3.511  10.310  0.00  0.00    +0.000 OA
BRANCH   8   9
ATOM      9  C   UNL     1      44.445   3.942   8.952  0.00  0.00    +0.000 C 
BRANCH   9  10
ATOM     10  C   UNL     1      45.453   3.080   8.231  0.00  0.00    +0.000 A 
ATOM     11  C   UNL     1      46.295   3.644   7.273  0.00  0.00    +0.000 A 
ATOM     12  C   UNL     1      47.256   2.842   6.667  0.00  0.00    +0.000 A 
ATOM     13  C   UNL     1      47.352   1.505   7.031  0.00  0.00    +0.000 A 
ATOM     14  C   UNL     1      46.485   1.024   7.998  0.00  0.00    +0.000 A 
ATOM     15  N   UNL     1      45.548   1.779   8.608  0.00  0.00    +0.000 NA
ENDBRANCH   9  10
ENDBRANCH   8   9
ENDBRANCH   5   8
ENDBRANCH   1   2
BRANCH   1  16
ATOM     16  N   UNL     1      47.887   6.154  14.912  0.00  0.00    +0.000 N 
ATOM     17  C   UNL     1      48.612   6.840  15.853  0.00  0.00    +0.000 C 
ATOM     18  O   UNL     1      49.103   7.941  15.609  0.00  0.00    +0.000 OA
ATOM     19  H   UNL     1      47.684   5.169  15.059  0.00  0.00    +0.000 HD
BRANCH  17  20
ATOM     20  C   UNL     1      48.748   6.228  17.177  0.00  0.00    +0.000 A 
ATOM     21  C   UNL     1      49.296   4.959  17.290  0.00  0.00    +0.000 A 
ATOM     22  S   UNL     1      49.393   4.395  18.895  0.00  0.00    +0.000 S 
ATOM     23  C   UNL     1      48.662   5.812  19.492  0.00  0.00    +0.000 A 
ATOM     24  N   UNL     1      48.413   5.960  20.822  0.00  0.00    +0.000 NA
ATOM     25  C   UNL     1      47.820   7.064  21.128  0.00  0.00    +0.000 A 
ATOM     26  N   UNL     1      47.466   8.041  20.232  0.00  0.00    +0.000 N 
ATOM     27  C   UNL     1      47.746   7.954  18.887  0.00  0.00    +0.000 A 
ATOM     28  O   UNL     1      47.494   8.886  18.128  0.00  0.00    +0.000 OA
ATOM     29  C   UNL     1      48.379   6.716  18.482  0.00  0.00    +0.000 A 
ATOM     30  H   UNL     1      47.023   8.891  20.543  0.00  0.00    +0.000 HD
ENDBRANCH  17  20
ENDBRANCH   1  16
BRANCH   1  31
ATOM     31  C   UNL     1      49.035   6.783  12.769  0.00  0.00    +0.000 C 
BRANCH  31  32
ATOM     32  N   UNL     1      49.567   8.136  12.569  0.00  0.00    +0.000 NA
ATOM     33  H   UNL     1      49.329   8.458  11.632  0.00  0.00    +0.000 HD
ATOM     34  H   UNL     1      49.078   8.786  13.195  0.00  0.00    +0.000 HD
ENDBRANCH  31  32
ENDBRANCH   1  31
TORSDOF 8
ENDMDL
MODEL 5
REMARK VINA RESULT:    -7.703      2.716      3.979
REMARK INTER + INTRA:         -11.579
REMARK INTER:                 -10.579
REMARK INTRA:                  -1.000
REMARK UNBOUND:                -0.498
REMARK  Name = 
REMARK  8 active torsions:
REMARK  status: ('A' for Active; 'I' for Inactive)
REMARK    1  A    between atoms: N_1  and  C_2
REMARK    2  A    between atoms: C_2  and  C_3
REMARK    3  A    between atoms: C_3  and  N_4
REMARK    4  A    between atoms: C_3  and  C_17
REMARK    5  A    between atoms: C_5  and  C_7
REMARK    6  A    between atoms: C_20  and  O_21
REMARK    7  A    between atoms: O_21  and  C_22
REMARK    8  A    between atoms: C_22  and  C_23
REMARK                            x       y       z     vdW  Elec       q    Type
REMARK                         _______ _______ _______ _____ _____    ______ ____
ROOT
ATOM      1  C   UNL     1      47.467   4.999  14.358  0.00  0.00    +0.000 C 
ENDROOT
BRANCH   1   2
ATOM      2  C   UNL     1      46.458   4.765  13.242  0.00  0.00    +0.000 A 
ATOM      3  C   UNL     1      46.257   5.754  12.263  0.00  0.00    +0.000 A 
ATOM      4  C   UNL     1      45.480   5.486  11.133  0.00  0.00    +0.000 A 
ATOM      5  C   UNL     1      44.891   4.235  10.966  0.00  0.00    +0.000 A 
ATOM      6  C   UNL     1      44.969   3.301  11.997  0.00  0.00    +0.000 A 
ATOM      7  C   UNL     1      45.741   3.567  13.127  0.00  0.00    +0.000 A 
BRANCH   5   8
ATOM      8  O   UNL     1      44.280   4.003   9.763  0.00  0.00    +0.000 OA
BRANCH   8   9
ATOM      9  C   UNL     1      45.023   4.463   8.626  0.00  0.00    +0.000 C 
BRANCH   9  10
ATOM     10  C   UNL     1      45.792   3.330   7.991  0.00  0.00    +0.000 A 
ATOM     11  C   UNL     1      46.652   3.583   6.923  0.00  0.00    +0.000 A 
ATOM     12  C   UNL     1      47.394   2.532   6.395  0.00  0.00    +0.000 A 
ATOM     13  C   UNL     1      47.262   1.263   6.945  0.00  0.00    +0.000 A 
ATOM     14  C   UNL     1      46.394   1.098   8.011  0.00  0.00    +0.000 A 
ATOM     15  N   UNL     1      45.665   2.098   8.549  0.00  0.00    +0.000 NA
ENDBRANCH   9  10
ENDBRANCH   8   9
ENDBRANCH   5   8
ENDBRANCH   1   2
BRANCH   1  16
ATOM     16  N   UNL     1      47.613   6.419  14.620  0.00  0.00    +0.000 N 
ATOM     17  C   UNL     1      48.723   6.926  15.245  0.00  0.00    +0.000 C 
ATOM     18  O   UNL     1      49.658   6.202  15.584  0.00  0.00    +0.000 OA
ATOM     19  H   UNL     1      46.774   6.989  14.551  0.00  0.00    +0.000 HD
BRANCH  17  20
ATOM     20  C   UNL     1      48.772   8.374  15.462  0.00  0.00    +0.000 A 
ATOM     21  C   UNL     1      49.151   9.208  14.419  0.00  0.00    +0.000 A 
ATOM     22  S   UNL     1      49.148  10.862  14.830  0.00  0.00    +0.000 S 
ATOM     23  C   UNL     1      48.682  10.517  16.430  0.00  0.00    +0.000 A 
ATOM     24  N   UNL     1      48.533  11.516  17.343  0.00  0.00    +0.000 NA
ATOM     25  C   UNL     1      48.217  11.108  18.525  0.00  0.00    +0.000 A 
ATOM     26  N   UNL     1      48.021   9.797  18.878  0.00  0.00    +0.000 N 
ATOM     27  C   UNL     1      48.110   8.762  17.976  0.00  0.00    +0.000 A 
ATOM     28  O   UNL     1      47.843   7.610  18.306  0.00  0.00    +0.000 OA
ATOM     29  C   UNL     1      48.501   9.160  16.639  0.00  0.00    +0.000 A 
ATOM     30  H   UNL     1      47.754   9.549  19.818  0.00  0.00    +0.000 HD
ENDBRANCH  17  20
ENDBRANCH   1  16
BRANCH   1  31
ATOM     31  C   UNL     1      47.127   4.181  15.650  0.00  0.00    +0.000 C 
BRANCH  31  32
ATOM     32  N   UNL     1      48.225   3.404  16.238  0.00  0.00    +0.000 NA
ATOM     33  H   UNL     1      47.914   2.994  17.118  0.00  0.00    +0.000 HD
ATOM     34  H   UNL     1      48.427   2.598  15.636  0.00  0.00    +0.000 HD
ENDBRANCH  31  32
ENDBRANCH   1  31
TORSDOF 8
ENDMDL
MODEL 6
REMARK VINA RESULT:    -7.134      3.673      8.096
REMARK INTER + INTRA:         -10.761
REMARK INTER:                  -9.573
REMARK INTRA:                  -1.187
REMARK UNBOUND:                -0.498
REMARK  Name = 
REMARK  8 active torsions:
REMARK  status: ('A' for Active; 'I' for Inactive)
REMARK    1  A    between atoms: N_1  and  C_2
REMARK    2  A    between atoms: C_2  and  C_3
REMARK    3  A    between atoms: C_3  and  N_4
REMARK    4  A    between atoms: C_3  and  C_17
REMARK    5  A    between atoms: C_5  and  C_7
REMARK    6  A    between atoms: C_20  and  O_21
REMARK    7  A    between atoms: O_21  and  C_22
REMARK    8  A    between atoms: C_22  and  C_23
REMARK                            x       y       z     vdW  Elec       q    Type
REMARK                         _______ _______ _______ _____ _____    ______ ____
ROOT
ATOM      1  C   UNL     1      48.538   7.413  14.555  0.00  0.00    +0.000 C 
ENDROOT
BRANCH   1   2
ATOM      2  C   UNL     1      48.977   6.470  15.667  0.00  0.00    +0.000 A 
ATOM      3  C   UNL     1      48.112   5.450  16.100  0.00  0.00    +0.000 A 
ATOM      4  C   UNL     1      48.562   4.463  16.981  0.00  0.00    +0.000 A 
ATOM      5  C   UNL     1      49.876   4.482  17.444  0.00  0.00    +0.000 A 
ATOM      6  C   UNL     1      50.693   5.566  17.132  0.00  0.00    +0.000 A 
ATOM      7  C   UNL     1      50.245   6.553  16.255  0.00  0.00    +0.000 A 
BRANCH   5   8
ATOM      8  O   UNL     1      50.282   3.398  18.174  0.00  0.00    +0.000 OA
BRANCH   8   9
ATOM      9  C   UNL     1      50.724   2.286  17.384  0.00  0.00    +0.000 C 
BRANCH   9  10
ATOM     10  C   UNL     1      52.130   1.886  17.758  0.00  0.00    +0.000 A 
ATOM     11  C   UNL     1      52.980   2.810  18.366  0.00  0.00    +0.000 A 
ATOM     12  C   UNL     1      54.250   2.399  18.756  0.00  0.00    +0.000 A 
ATOM     13  C   UNL     1      54.637   1.084  18.533  0.00  0.00    +0.000 A 
ATOM     14  C   UNL     1      53.730   0.227  17.933  0.00  0.00    +0.000 A 
ATOM     15  N   UNL     1      52.490   0.593  17.549  0.00  0.00    +0.000 NA
ENDBRANCH   9  10
ENDBRANCH   8   9
ENDBRANCH   5   8
ENDBRANCH   1   2
BRANCH   1  16
ATOM     16  N   UNL     1      47.259   6.994  14.011  0.00  0.00    +0.000 N 
ATOM     17  C   UNL     1      47.072   6.824  12.663  0.00  0.00    +0.000 C 
ATOM     18  O   UNL     1      47.988   6.989  11.859  0.00  0.00    +0.000 OA
ATOM     19  H   UNL     1      46.451   7.069  14.622  0.00  0.00    +0.000 HD
BRANCH  17  20
ATOM     20  C   UNL     1      45.743   6.399  12.216  0.00  0.00    +0.000 A 
ATOM     21  C   UNL     1      44.862   7.339  11.701  0.00  0.00    +0.000 A 
ATOM     22  S   UNL     1      43.365   6.683  11.219  0.00  0.00    +0.000 S 
ATOM     23  C   UNL     1      43.826   5.125  11.724  0.00  0.00    +0.000 A 
ATOM     24  N   UNL     1      42.965   4.076  11.622  0.00  0.00    +0.000 NA
ATOM     25  C   UNL     1      43.431   2.963  12.079  0.00  0.00    +0.000 A 
ATOM     26  N   UNL     1      44.683   2.797  12.616  0.00  0.00    +0.000 N 
ATOM     27  C   UNL     1      45.602   3.818  12.690  0.00  0.00    +0.000 A 
ATOM     28  O   UNL     1      46.743   3.612  13.095  0.00  0.00    +0.000 OA
ATOM     29  C   UNL     1      45.117   5.101  12.224  0.00  0.00    +0.000 A 
ATOM     30  H   UNL     1      44.991   1.892  12.936  0.00  0.00    +0.000 HD
ENDBRANCH  17  20
ENDBRANCH   1  16
BRANCH   1  31
ATOM     31  C   UNL     1      48.535   8.912  15.012  0.00  0.00    +0.000 C 
BRANCH  31  32
ATOM     32  N   UNL     1      47.544   9.282  16.029  0.00  0.00    +0.000 NA
ATOM     33  H   UNL     1      47.973   9.915  16.704  0.00  0.00    +0.000 HD
ATOM     34  H   UNL     1      46.803   9.839  15.590  0.00  0.00    +0.000 HD
ENDBRANCH  31  32
ENDBRANCH   1  31
TORSDOF 8
ENDMDL
MODEL 7
REMARK VINA RESULT:    -7.068      1.923      4.349
REMARK INTER + INTRA:         -10.665
REMARK INTER:                 -10.115
REMARK INTRA:                  -0.550
REMARK UNBOUND:                -0.498
REMARK  Name = 
REMARK  8 active torsions:
REMARK  status: ('A' for Active; 'I' for Inactive)
REMARK    1  A    between atoms: N_1  and  C_2
REMARK    2  A    between atoms: C_2  and  C_3
REMARK    3  A    between atoms: C_3  and  N_4
REMARK    4  A    between atoms: C_3  and  C_17
REMARK    5  A    between atoms: C_5  and  C_7
REMARK    6  A    between atoms: C_20  and  O_21
REMARK    7  A    between atoms: O_21  and  C_22
REMARK    8  A    between atoms: C_22  and  C_23
REMARK                            x       y       z     vdW  Elec       q    Type
REMARK                         _______ _______ _______ _____ _____    ______ ____
ROOT
ATOM      1  C   UNL     1      47.341   4.760  14.058  0.00  0.00    +0.000 C 
ENDROOT
BRANCH   1   2
ATOM      2  C   UNL     1      46.300   4.490  12.981  0.00  0.00    +0.000 A 
ATOM      3  C   UNL     1      46.007   5.481  12.028  0.00  0.00    +0.000 A 
ATOM      4  C   UNL     1      45.198   5.190  10.926  0.00  0.00    +0.000 A 
ATOM      5  C   UNL     1      44.668   3.912  10.762  0.00  0.00    +0.000 A 
ATOM      6  C   UNL     1      44.837   2.969  11.773  0.00  0.00    +0.000 A 
ATOM      7  C   UNL     1      45.642   3.259  12.875  0.00  0.00    +0.000 A 
BRANCH   5   8
ATOM      8  O   UNL     1      44.020   3.667   9.582  0.00  0.00    +0.000 OA
BRANCH   8   9
ATOM      9  C   UNL     1      44.699   4.165   8.421  0.00  0.00    +0.000 C 
BRANCH   9  10
ATOM     10  C   UNL     1      45.661   3.137   7.879  0.00  0.00    +0.000 A 
ATOM     11  C   UNL     1      46.599   3.501   6.912  0.00  0.00    +0.000 A 
ATOM     12  C   UNL     1      47.513   2.550   6.473  0.00  0.00    +0.000 A 
ATOM     13  C   UNL     1      47.471   1.269   7.007  0.00  0.00    +0.000 A 
ATOM     14  C   UNL     1      46.516   0.991   7.970  0.00  0.00    +0.000 A 
ATOM     15  N   UNL     1      45.620   1.893   8.421  0.00  0.00    +0.000 NA
ENDBRANCH   9  10
ENDBRANCH   8   9
ENDBRANCH   5   8
ENDBRANCH   1   2
BRANCH   1  16
ATOM     16  N   UNL     1      47.994   6.035  13.824  0.00  0.00    +0.000 N 
ATOM     17  C   UNL     1      48.818   6.605  14.761  0.00  0.00    +0.000 C 
ATOM     18  O   UNL     1      49.064   6.044  15.827  0.00  0.00    +0.000 OA
ATOM     19  H   UNL     1      47.634   6.603  13.063  0.00  0.00    +0.000 HD
BRANCH  17  20
ATOM     20  C   UNL     1      49.428   7.894  14.426  0.00  0.00    +0.000 A 
ATOM     21  C   UNL     1      50.750   8.134  14.770  0.00  0.00    +0.000 A 
ATOM     22  S   UNL     1      51.311   9.674  14.303  0.00  0.00    +0.000 S 
ATOM     23  C   UNL     1      49.790  10.091  13.663  0.00  0.00    +0.000 A 
ATOM     24  N   UNL     1      49.574  11.323  13.125  0.00  0.00    +0.000 NA
ATOM     25  C   UNL     1      48.366  11.516  12.716  0.00  0.00    +0.000 A 
ATOM     26  N   UNL     1      47.357  10.589  12.780  0.00  0.00    +0.000 N 
ATOM     27  C   UNL     1      47.545   9.316  13.267  0.00  0.00    +0.000 A 
ATOM     28  O   UNL     1      46.643   8.484  13.228  0.00  0.00    +0.000 OA
ATOM     29  C   UNL     1      48.876   9.057  13.776  0.00  0.00    +0.000 A 
ATOM     30  H   UNL     1      46.439  10.799  12.421  0.00  0.00    +0.000 HD
ENDBRANCH  17  20
ENDBRANCH   1  16
BRANCH   1  31
ATOM     31  C   UNL     1      46.748   4.644  15.503  0.00  0.00    +0.000 C 
BRANCH  31  32
ATOM     32  N   UNL     1      47.265   3.551  16.335  0.00  0.00    +0.000 NA
ATOM     33  H   UNL     1      47.956   3.022  15.805  0.00  0.00    +0.000 HD
ATOM     34  H   UNL     1      47.792   3.947  17.121  0.00  0.00    +0.000 HD
ENDBRANCH  31  32
ENDBRANCH   1  31
TORSDOF 8
ENDMDL
MODEL 8
REMARK VINA RESULT:    -6.734      2.956      4.321
REMARK INTER + INTRA:         -10.185
REMARK INTER:                  -8.829
REMARK INTRA:                  -1.356
REMARK UNBOUND:                -0.498
REMARK  Name = 
REMARK  8 active torsions:
REMARK  status: ('A' for Active; 'I' for Inactive)
REMARK    1  A    between atoms: N_1  and  C_2
REMARK    2  A    between atoms: C_2  and  C_3
REMARK    3  A    between atoms: C_3  and  N_4
REMARK    4  A    between atoms: C_3  and  C_17
REMARK    5  A    between atoms: C_5  and  C_7
REMARK    6  A    between atoms: C_20  and  O_21
REMARK    7  A    between atoms: O_21  and  C_22
REMARK    8  A    between atoms: C_22  and  C_23
REMARK                            x       y       z     vdW  Elec       q    Type
REMARK                         _______ _______ _______ _____ _____    ______ ____
ROOT
ATOM      1  C   UNL     1      48.117   4.849  16.169  0.00  0.00    +0.000 C 
ENDROOT
BRANCH   1   2
ATOM      2  C   UNL     1      47.528   5.075  14.784  0.00  0.00    +0.000 A 
ATOM      3  C   UNL     1      46.718   4.086  14.199  0.00  0.00    +0.000 A 
ATOM      4  C   UNL     1      46.019   4.348  13.017  0.00  0.00    +0.000 A 
ATOM      5  C   UNL     1      46.120   5.595  12.404  0.00  0.00    +0.000 A 
ATOM      6  C   UNL     1      47.028   6.527  12.900  0.00  0.00    +0.000 A 
ATOM      7  C   UNL     1      47.729   6.266  14.076  0.00  0.00    +0.000 A 
BRANCH   5   8
ATOM      8  O   UNL     1      45.285   5.823  11.343  0.00  0.00    +0.000 OA
BRANCH   8   9
ATOM      9  C   UNL     1      44.435   4.716  11.013  0.00  0.00    +0.000 C 
BRANCH   9  10
ATOM     10  C   UNL     1      44.985   3.949   9.835  0.00  0.00    +0.000 A 
ATOM     11  C   UNL     1      45.582   4.632   8.775  0.00  0.00    +0.000 A 
ATOM     12  C   UNL     1      46.135   3.900   7.731  0.00  0.00    +0.000 A 
ATOM     13  C   UNL     1      46.080   2.513   7.771  0.00  0.00    +0.000 A 
ATOM     14  C   UNL     1      45.478   1.911   8.863  0.00  0.00    +0.000 A 
ATOM     15  N   UNL     1      44.940   2.594   9.894  0.00  0.00    +0.000 NA
ENDBRANCH   9  10
ENDBRANCH   8   9
ENDBRANCH   5   8
ENDBRANCH   1   2
BRANCH   1  16
ATOM     16  N   UNL     1      48.755   6.059  16.653  0.00  0.00    +0.000 N 
ATOM     17  C   UNL     1      50.092   6.095  16.958  0.00  0.00    +0.000 C 
ATOM     18  O   UNL     1      50.814   5.112  16.805  0.00  0.00    +0.000 OA
ATOM     19  H   UNL     1      48.145   6.798  16.990  0.00  0.00    +0.000 HD
BRANCH  17  20
ATOM     20  C   UNL     1      50.638   7.367  17.439  0.00  0.00    +0.000 A 
ATOM     21  C   UNL     1      51.665   7.979  16.734  0.00  0.00    +0.000 A 
ATOM     22  S   UNL     1      52.181   9.452  17.417  0.00  0.00    +0.000 S 
ATOM     23  C   UNL     1      51.079   9.300  18.706  0.00  0.00    +0.000 A 
ATOM     24  N   UNL     1      51.029  10.235  19.694  0.00  0.00    +0.000 NA
ATOM     25  C   UNL     1      50.178   9.973  20.627  0.00  0.00    +0.000 A 
ATOM     26  N   UNL     1      49.360   8.873  20.657  0.00  0.00    +0.000 N 
ATOM     27  C   UNL     1      49.340   7.931  19.654  0.00  0.00    +0.000 A 
ATOM     28  O   UNL     1      48.534   7.006  19.670  0.00  0.00    +0.000 OA
ATOM     29  C   UNL     1      50.306   8.157  18.598  0.00  0.00    +0.000 A 
ATOM     30  H   UNL     1      48.700   8.740  21.408  0.00  0.00    +0.000 HD
ENDBRANCH  17  20
ENDBRANCH   1  16
BRANCH   1  31
ATOM     31  C   UNL     1      47.063   4.279  17.179  0.00  0.00    +0.000 C 
BRANCH  31  32
ATOM     32  N   UNL     1      47.346   4.488  18.605  0.00  0.00    +0.000 NA
ATOM     33  H   UNL     1      46.475   4.686  19.096  0.00  0.00    +0.000 HD
ATOM     34  H   UNL     1      47.678   3.608  19.014  0.00  0.00    +0.000 HD
ENDBRANCH  31  32
ENDBRANCH   1  31
TORSDOF 8
ENDMDL
MODEL 9
REMARK VINA RESULT:    -6.114      3.430      5.602
REMARK INTER + INTRA:          -9.293
REMARK INTER:                  -9.038
REMARK INTRA:                  -0.255
REMARK UNBOUND:                -0.498
REMARK  Name = 
REMARK  8 active torsions:
REMARK  status: ('A' for Active; 'I' for Inactive)
REMARK    1  A    between atoms: N_1  and  C_2
REMARK    2  A    between atoms: C_2  and  C_3
REMARK    3  A    between atoms: C_3  and  N_4
REMARK    4  A    between atoms: C_3  and  C_17
REMARK    5  A    between atoms: C_5  and  C_7
REMARK    6  A    between atoms: C_20  and  O_21
REMARK    7  A    between atoms: O_21  and  C_22
REMARK    8  A    between atoms: C_22  and  C_23
REMARK                            x       y       z     vdW  Elec       q    Type
REMARK                         _______ _______ _______ _____ _____    ______ ____
ROOT
ATOM      1  C   UNL     1      48.471   4.433  18.376  0.00  0.00    +0.000 C 
ENDROOT
BRANCH   1   2
ATOM      2  C   UNL     1      48.219   4.717  16.902  0.00  0.00    +0.000 A 
ATOM      3  C   UNL     1      47.534   3.774  16.116  0.00  0.00    +0.000 A 
ATOM      4  C   UNL     1      47.129   4.092  14.817  0.00  0.00    +0.000 A 
ATOM      5  C   UNL     1      47.406   5.349  14.284  0.00  0.00    +0.000 A 
ATOM      6  C   UNL     1      48.206   6.234  15.003  0.00  0.00    +0.000 A 
ATOM      7  C   UNL     1      48.613   5.917  16.299  0.00  0.00    +0.000 A 
BRANCH   5   8
ATOM      8  O   UNL     1      46.841   5.636  13.070  0.00  0.00    +0.000 OA
BRANCH   8   9
ATOM      9  C   UNL     1      45.453   5.290  12.970  0.00  0.00    +0.000 C 
BRANCH   9  10
ATOM     10  C   UNL     1      45.153   4.655  11.634  0.00  0.00    +0.000 A 
ATOM     11  C   UNL     1      44.461   3.444  11.577  0.00  0.00    +0.000 A 
ATOM     12  C   UNL     1      44.144   2.911  10.333  0.00  0.00    +0.000 A 
ATOM     13  C   UNL     1      44.520   3.594   9.185  0.00  0.00    +0.000 A 
ATOM     14  C   UNL     1      45.196   4.794   9.327  0.00  0.00    +0.000 A 
ATOM     15  N   UNL     1      45.512   5.341  10.519  0.00  0.00    +0.000 NA
ENDBRANCH   9  10
ENDBRANCH   8   9
ENDBRANCH   5   8
ENDBRANCH   1   2
BRANCH   1  16
ATOM     16  N   UNL     1      49.747   3.763  18.553  0.00  0.00    +0.000 N 
ATOM     17  C   UNL     1      50.932   4.450  18.513  0.00  0.00    +0.000 C 
ATOM     18  O   UNL     1      50.965   5.670  18.356  0.00  0.00    +0.000 OA
ATOM     19  H   UNL     1      49.752   2.751  18.462  0.00  0.00    +0.000 HD
BRANCH  17  20
ATOM     20  C   UNL     1      52.164   3.680  18.703  0.00  0.00    +0.000 A 
ATOM     21  C   UNL     1      53.205   4.228  19.439  0.00  0.00    +0.000 A 
ATOM     22  S   UNL     1      54.561   3.203  19.575  0.00  0.00    +0.000 S 
ATOM     23  C   UNL     1      53.818   2.008  18.617  0.00  0.00    +0.000 A 
ATOM     24  N   UNL     1      54.474   0.855  18.309  0.00  0.00    +0.000 NA
ATOM     25  C   UNL     1      53.809   0.058  17.543  0.00  0.00    +0.000 A 
ATOM     26  N   UNL     1      52.545   0.298  17.068  0.00  0.00    +0.000 N 
ATOM     27  C   UNL     1      51.827   1.424  17.397  0.00  0.00    +0.000 A 
ATOM     28  O   UNL     1      50.665   1.565  17.025  0.00  0.00    +0.000 OA
ATOM     29  C   UNL     1      52.542   2.374  18.225  0.00  0.00    +0.000 A 
ATOM     30  H   UNL     1      52.073  -0.380  16.489  0.00  0.00    +0.000 HD
ENDBRANCH  17  20
ENDBRANCH   1  16
BRANCH   1  31
ATOM     31  C   UNL     1      48.339   5.718  19.262  0.00  0.00    +0.000 C 
BRANCH  31  32
ATOM     32  N   UNL     1      48.676   5.568  20.683  0.00  0.00    +0.000 NA
ATOM     33  H   UNL     1      48.021   6.111  21.244  0.00  0.00    +0.000 HD
ATOM     34  H   UNL     1      48.514   4.596  20.967  0.00  0.00    +0.000 HD
ENDBRANCH  31  32
ENDBRANCH   1  31
TORSDOF 8
ENDMDL
