MODEL 1
REMARK VINA RESULT:    -7.543      0.000      0.000
REMARK INTER + INTRA:         -10.516
REMARK INTER:                  -9.748
REMARK INTRA:                  -0.768
REMARK UNBOUND:                -0.768
REMARK  Name = 
REMARK  6 active torsions:
REMARK  status: ('A' for Active; 'I' for Inactive)
REMARK    1  A    between atoms: C_1  and  C_2
REMARK    2  A    between atoms: C_2  and  C_3
REMARK    3  A    between atoms: C_2  and  C_14
REMARK    4  A    between atoms: C_3  and  N_4
REMARK    5  A    between atoms: N_4  and  C_5
REMARK    6  A    between atoms: C_8  and  C_9
REMARK                            x       y       z     vdW  Elec       q    Type
REMARK                         _______ _______ _______ _____ _____    ______ ____
ROOT
ATOM      1  N   UNL     1      43.710   3.338  10.510  0.00  0.00    +0.000 N 
ATOM      2  H   UNL     1      43.301   4.265  10.393  0.00  0.00    +0.000 HD
ENDROOT
BRANCH   1   3
ATOM      3  C   UNL     1      44.662   3.082   9.514  0.00  0.00    +0.000 A 
ATOM      4  C   UNL     1      45.064   4.114   8.661  0.00  0.00    +0.000 A 
ATOM      5  C   UNL     1      45.993   3.875   7.647  0.00  0.00    +0.000 A 
ATOM      6  C   UNL     1      46.473   2.584   7.493  0.00  0.00    +0.000 A 
ATOM      7  N   UNL     1      46.066   1.530   8.250  0.00  0.00    +0.000 NA
ATOM      8  C   UNL     1      45.162   1.808   9.217  0.00  0.00    +0.000 A 
BRANCH   6   9
ATOM      9  C   UNL     1      47.508   2.283   6.454  0.00  0.00    +0.000 C 
ATOM     10  N   UNL     1      47.449   3.067   5.332  0.00  0.00    +0.000 N 
ATOM     11  O   UNL     1      48.341   1.399   6.586  0.00  0.00    +0.000 OA
ATOM     12  H   UNL     1      46.735   3.783   5.265  0.00  0.00    +0.000 HD
ATOM     13  H   UNL     1      48.101   2.913   4.578  0.00  0.00    +0.000 HD
ENDBRANCH   6   9
ENDBRANCH   1   3
BRANCH   1  14
ATOM     14  C   UNL     1      44.124   3.121  11.895  0.00  0.00    +0.000 C 
BRANCH  14  16
ATOM     15  C   UNL     1      42.930   5.257  12.678  0.00  0.00    +0.000 C 
ATOM     16  C   UNL     1      44.192   4.461  12.561  0.00  0.00    +0.000 C 
BRANCH  16  17
ATOM     17  C   UNL     1      45.494   5.139  12.609  0.00  0.00    +0.000 A 
ATOM     18  C   UNL     1      45.878   6.033  11.601  0.00  0.00    +0.000 A 
ATOM     19  C   UNL     1      47.071   6.750  11.710  0.00  0.00    +0.000 A 
ATOM     20  C   UNL     1      47.886   6.582  12.827  0.00  0.00    +0.000 A 
ATOM     21  C   UNL     1      47.527   5.676  13.823  0.00  0.00    +0.000 A 
ATOM     22  C   UNL     1      46.341   4.951  13.708  0.00  0.00    +0.000 A 
ENDBRANCH  16  17
ENDBRANCH  14  16
ENDBRANCH   1  14
TORSDOF 5
ENDMDL
MODEL 2
REMARK VINA RESULT:    -7.504      1.514      1.977
REMARK INTER + INTRA:         -10.465
REMARK INTER:                  -9.817
REMARK INTRA:                  -0.648
REMARK UNBOUND:                -0.768
REMARK  Name = 
REMARK  6 active torsions:
REMARK  status: ('A' for Active; 'I' for Inactive)
REMARK    1  A    between atoms: C_1  and  C_2
REMARK    2  A    between atoms: C_2  and  C_3
REMARK    3  A    between atoms: C_2  and  C_14
REMARK    4  A    between atoms: C_3  and  N_4
REMARK    5  A    between atoms: N_4  and  C_5
REMARK    6  A    between atoms: C_8  and  C_9
REMARK                            x       y       z     vdW  Elec       q    Type
REMARK                         _______ _______ _______ _____ _____    ______ ____
ROOT
ATOM      1  N   UNL     1      43.869   4.934   9.852  0.00  0.00    +0.000 N 
ATOM      2  H   UNL     1      44.110   5.870   9.528  0.00  0.00    +0.000 HD
ENDROOT
BRANCH   1   3
ATOM      3  C   UNL     1      44.679   3.968   9.240  0.00  0.00    +0.000 A 
ATOM      4  C   UNL     1      45.613   4.361   8.277  0.00  0.00    +0.000 A 
ATOM      5  C   UNL     1      46.414   3.412   7.637  0.00  0.00    +0.000 A 
ATOM      6  C   UNL     1      46.228   2.077   7.959  0.00  0.00    +0.000 A 
ATOM      7  N   UNL     1      45.288   1.635   8.838  0.00  0.00    +0.000 NA
ATOM      8  C   UNL     1      44.534   2.589   9.429  0.00  0.00    +0.000 A 
BRANCH   6   9
ATOM      9  C   UNL     1      47.093   1.024   7.341  0.00  0.00    +0.000 C 
ATOM     10  N   UNL     1      46.783  -0.262   7.693  0.00  0.00    +0.000 N 
ATOM     11  O   UNL     1      48.016   1.286   6.584  0.00  0.00    +0.000 OA
ATOM     12  H   UNL     1      46.011  -0.430   8.330  0.00  0.00    +0.000 HD
ATOM     13  H   UNL     1      47.332  -1.028   7.332  0.00  0.00    +0.000 HD
ENDBRANCH   6   9
ENDBRANCH   1   3
BRANCH   1  14
ATOM     14  C   UNL     1      43.776   4.894  11.311  0.00  0.00    +0.000 C 
BRANCH  14  16
ATOM     15  C   UNL     1      45.680   3.960  12.761  0.00  0.00    +0.000 C 
ATOM     16  C   UNL     1      45.165   5.034  11.855  0.00  0.00    +0.000 C 
BRANCH  16  17
ATOM     17  C   UNL     1      45.751   6.380  11.903  0.00  0.00    +0.000 A 
ATOM     18  C   UNL     1      44.937   7.517  11.965  0.00  0.00    +0.000 A 
ATOM     19  C   UNL     1      45.505   8.784  12.116  0.00  0.00    +0.000 A 
ATOM     20  C   UNL     1      46.888   8.922  12.208  0.00  0.00    +0.000 A 
ATOM     21  C   UNL     1      47.708   7.800  12.121  0.00  0.00    +0.000 A 
ATOM     22  C   UNL     1      47.141   6.535  11.959  0.00  0.00    +0.000 A 
ENDBRANCH  16  17
ENDBRANCH  14  16
ENDBRANCH   1  14
TORSDOF 5
ENDMDL
MODEL 3
REMARK VINA RESULT:    -7.083      3.051      6.490
REMARK INTER + INTRA:          -9.921
REMARK INTER:                  -9.586
REMARK INTRA:                  -0.334
REMARK UNBOUND:                -0.768
REMARK  Name = 
REMARK  6 active torsions:
REMARK  status: ('A' for Active; 'I' for Inactive)
REMARK    1  A    between atoms: C_1  and  C_2
REMARK    2  A    between atoms: C_2  and  C_3
REMARK    3  A    between atoms: C_2  and  C_14
REMARK    4  A    between atoms: C_3  and  N_4
REMARK    5  A    between atoms: N_4  and  C_5
REMARK    6  A    between atoms: C_8  and  C_9
REMARK                            x       y       z     vdW  Elec       q    Type
REMARK                         _______ _______ _______ _____ _____    ______ ____
ROOT
ATOM      1  N   UNL     1      44.477   4.975  10.494  0.00  0.00    +0.000 N 
ATOM      2  H   UNL     1      43.736   4.282  10.599  0.00  0.00    +0.000 HD
ENDROOT
BRANCH   1   3
ATOM      3  C   UNL     1      45.251   5.061  11.659  0.00  0.00    +0.000 A 
ATOM      4  C   UNL     1      46.170   6.105  11.803  0.00  0.00    +0.000 A 
ATOM      5  C   UNL     1      46.967   6.196  12.945  0.00  0.00    +0.000 A 
ATOM      6  C   UNL     1      46.845   5.207  13.907  0.00  0.00    +0.000 A 
ATOM      7  N   UNL     1      46.017   4.134  13.788  0.00  0.00    +0.000 NA
ATOM      8  C   UNL     1      45.267   4.085  12.663  0.00  0.00    +0.000 A 
BRANCH   6   9
ATOM      9  C   UNL     1      47.639   5.283  15.174  0.00  0.00    +0.000 C 
ATOM     10  N   UNL     1      47.076   4.651  16.251  0.00  0.00    +0.000 N 
ATOM     11  O   UNL     1      48.707   5.871  15.251  0.00  0.00    +0.000 OA
ATOM     12  H   UNL     1      46.184   4.182  16.139  0.00  0.00    +0.000 HD
ATOM     13  H   UNL     1      47.541   4.674  17.146  0.00  0.00    +0.000 HD
ENDBRANCH   6   9
ENDBRANCH   1   3
BRANCH   1  14
ATOM     14  C   UNL     1      45.194   4.784   9.234  0.00  0.00    +0.000 C 
BRANCH  14  16
ATOM     15  C   UNL     1      44.229   2.454   9.722  0.00  0.00    +0.000 C 
ATOM     16  C   UNL     1      44.977   3.366   8.802  0.00  0.00    +0.000 C 
BRANCH  16  17
ATOM     17  C   UNL     1      45.890   2.807   7.796  0.00  0.00    +0.000 A 
ATOM     18  C   UNL     1      46.260   3.552   6.669  0.00  0.00    +0.000 A 
ATOM     19  C   UNL     1      47.208   3.052   5.773  0.00  0.00    +0.000 A 
ATOM     20  C   UNL     1      47.794   1.809   6.000  0.00  0.00    +0.000 A 
ATOM     21  C   UNL     1      47.413   1.049   7.103  0.00  0.00    +0.000 A 
ATOM     22  C   UNL     1      46.457   1.543   7.991  0.00  0.00    +0.000 A 
ENDBRANCH  16  17
ENDBRANCH  14  16
ENDBRANCH   1  14
TORSDOF 5
ENDMDL
MODEL 4
REMARK VINA RESULT:    -6.936      3.415      5.768
REMARK INTER + INTRA:          -9.732
REMARK INTER:                  -8.874
REMARK INTRA:                  -0.857
REMARK UNBOUND:                -0.768
REMARK  Name = 
REMARK  6 active torsions:
REMARK  status: ('A' for Active; 'I' for Inactive)
REMARK    1  A    between atoms: C_1  and  C_2
REMARK    2  A    between atoms: C_2  and  C_3
REMARK    3  A    between atoms: C_2  and  C_14
REMARK    4  A    between atoms: C_3  and  N_4
REMARK    5  A    between atoms: N_4  and  C_5
REMARK    6  A    between atoms: C_8  and  C_9
REMARK                            x       y       z     vdW  Elec       q    Type
REMARK                         _______ _______ _______ _____ _____    ______ ____
ROOT
ATOM      1  N   UNL     1      43.867   5.538  12.354  0.00  0.00    +0.000 N 
ATOM      2  H   UNL     1      43.583   4.771  12.965  0.00  0.00    +0.000 HD
ENDROOT
BRANCH   1   3
ATOM      3  C   UNL     1      45.204   5.892  12.583  0.00  0.00    +0.000 A 
ATOM      4  C   UNL     1      45.767   6.958  11.875  0.00  0.00    +0.000 A 
ATOM      5  C   UNL     1      47.103   7.312  12.072  0.00  0.00    +0.000 A 
ATOM      6  C   UNL     1      47.856   6.557  12.956  0.00  0.00    +0.000 A 
ATOM      7  N   UNL     1      47.377   5.469  13.620  0.00  0.00    +0.000 NA
ATOM      8  C   UNL     1      46.080   5.162  13.395  0.00  0.00    +0.000 A 
BRANCH   6   9
ATOM      9  C   UNL     1      49.279   6.924  13.242  0.00  0.00    +0.000 C 
ATOM     10  N   UNL     1      50.028   7.241  12.139  0.00  0.00    +0.000 N 
ATOM     11  O   UNL     1      49.747   6.933  14.370  0.00  0.00    +0.000 OA
ATOM     12  H   UNL     1      49.597   7.212  11.222  0.00  0.00    +0.000 HD
ATOM     13  H   UNL     1      51.002   7.480  12.247  0.00  0.00    +0.000 HD
ENDBRANCH   6   9
ENDBRANCH   1   3
BRANCH   1  14
ATOM     14  C   UNL     1      43.479   5.273  10.970  0.00  0.00    +0.000 C 
BRANCH  14  16
ATOM     15  C   UNL     1      43.383   2.838  11.785  0.00  0.00    +0.000 C 
ATOM     16  C   UNL     1      43.719   3.818  10.704  0.00  0.00    +0.000 C 
BRANCH  16  17
ATOM     17  C   UNL     1      44.694   3.460   9.666  0.00  0.00    +0.000 A 
ATOM     18  C   UNL     1      45.010   2.120   9.407  0.00  0.00    +0.000 A 
ATOM     19  C   UNL     1      45.859   1.787   8.350  0.00  0.00    +0.000 A 
ATOM     20  C   UNL     1      46.393   2.788   7.542  0.00  0.00    +0.000 A 
ATOM     21  C   UNL     1      46.107   4.125   7.807  0.00  0.00    +0.000 A 
ATOM     22  C   UNL     1      45.268   4.459   8.871  0.00  0.00    +0.000 A 
ENDBRANCH  16  17
ENDBRANCH  14  16
ENDBRANCH   1  14
TORSDOF 5
ENDMDL
MODEL 5
REMARK VINA RESULT:    -6.850      3.229      6.693
REMARK INTER + INTRA:          -9.620
REMARK INTER:                  -9.122
REMARK INTRA:                  -0.498
REMARK UNBOUND:                -0.768
REMARK  Name = 
REMARK  6 active torsions:
REMARK  status: ('A' for Active; 'I' for Inactive)
REMARK    1  A    between atoms: C_1  and  C_2
REMARK    2  A    between atoms: C_2  and  C_3
REMARK    3  A    between atoms: C_2  and  C_14
REMARK    4  A    between atoms: C_3  and  N_4
REMARK    5  A    between atoms: N_4  and  C_5
REMARK    6  A    between atoms: C_8  and  C_9
REMARK                            x       y       z     vdW  Elec       q    Type
REMARK                         _______ _______ _______ _____ _____    ______ ____
ROOT
ATOM      1  N   UNL     1      44.698   4.933  10.816  0.00  0.00    +0.000 N 
ATOM      2  H   UNL     1      44.200   4.093  11.112  0.00  0.00    +0.000 HD
ENDROOT
BRANCH   1   3
ATOM      3  C   UNL     1      45.658   5.307  11.766  0.00  0.00    +0.000 A 
ATOM      4  C   UNL     1      45.781   4.572  12.949  0.00  0.00    +0.000 A 
ATOM      5  C   UNL     1      46.715   4.941  13.919  0.00  0.00    +0.000 A 
ATOM      6  C   UNL     1      47.483   6.072  13.689  0.00  0.00    +0.000 A 
ATOM      7  N   UNL     1      47.357   6.861  12.587  0.00  0.00    +0.000 NA
ATOM      8  C   UNL     1      46.438   6.466  11.678  0.00  0.00    +0.000 A 
BRANCH   6   9
ATOM      9  C   UNL     1      48.533   6.483  14.673  0.00  0.00    +0.000 C 
ATOM     10  N   UNL     1      48.157   6.409  15.988  0.00  0.00    +0.000 N 
ATOM     11  O   UNL     1      49.643   6.868  14.335  0.00  0.00    +0.000 OA
ATOM     12  H   UNL     1      47.223   6.090  16.219  0.00  0.00    +0.000 HD
ATOM     13  H   UNL     1      48.803   6.687  16.711  0.00  0.00    +0.000 HD
ENDBRANCH   6   9
ENDBRANCH   1   3
BRANCH   1  14
ATOM     14  C   UNL     1      45.148   4.812   9.430  0.00  0.00    +0.000 C 
BRANCH  14  16
ATOM     15  C   UNL     1      44.221   2.472   9.949  0.00  0.00    +0.000 C 
ATOM     16  C   UNL     1      44.958   3.384   9.018  0.00  0.00    +0.000 C 
BRANCH  16  17
ATOM     17  C   UNL     1      45.885   2.826   8.024  0.00  0.00    +0.000 A 
ATOM     18  C   UNL     1      46.355   1.511   8.138  0.00  0.00    +0.000 A 
ATOM     19  C   UNL     1      47.151   0.958   7.134  0.00  0.00    +0.000 A 
ATOM     20  C   UNL     1      47.479   1.711   6.009  0.00  0.00    +0.000 A 
ATOM     21  C   UNL     1      47.039   3.028   5.898  0.00  0.00    +0.000 A 
ATOM     22  C   UNL     1      46.253   3.585   6.908  0.00  0.00    +0.000 A 
ENDBRANCH  16  17
ENDBRANCH  14  16
ENDBRANCH   1  14
TORSDOF 5
ENDMDL
MODEL 6
REMARK VINA RESULT:    -6.305      3.541      6.556
REMARK INTER + INTRA:          -8.916
REMARK INTER:                  -8.702
REMARK INTRA:                  -0.214
REMARK UNBOUND:                -0.768
REMARK  Name = 
REMARK  6 active torsions:
REMARK  status: ('A' for Active; 'I' for Inactive)
REMARK    1  A    between atoms: C_1  and  C_2
REMARK    2  A    between atoms: C_2  and  C_3
REMARK    3  A    between atoms: C_2  and  C_14
REMARK    4  A    between atoms: C_3  and  N_4
REMARK    5  A    between atoms: N_4  and  C_5
REMARK    6  A    between atoms: C_8  and  C_9
REMARK                            x       y       z     vdW  Elec       q    Type
REMARK                         _______ _______ _______ _____ _____    ______ ____
ROOT
ATOM      1  N   UNL     1      46.221   5.869  11.384  0.00  0.00    +0.000 N 
ATOM      2  H   UNL     1      46.807   6.624  11.027  0.00  0.00    +0.000 HD
ENDROOT
BRANCH   1   3
ATOM      3  C   UNL     1      46.615   5.498  12.677  0.00  0.00    +0.000 A 
ATOM      4  C   UNL     1      47.423   6.358  13.426  0.00  0.00    +0.000 A 
ATOM      5  C   UNL     1      47.846   5.998  14.707  0.00  0.00    +0.000 A 
ATOM      6  C   UNL     1      47.471   4.755  15.192  0.00  0.00    +0.000 A 
ATOM      7  N   UNL     1      46.742   3.853  14.481  0.00  0.00    +0.000 NA
ATOM      8  C   UNL     1      46.359   4.244  13.244  0.00  0.00    +0.000 A 
BRANCH   6   9
ATOM      9  C   UNL     1      47.854   4.339  16.578  0.00  0.00    +0.000 C 
ATOM     10  N   UNL     1      47.101   4.893  17.579  0.00  0.00    +0.000 N 
ATOM     11  O   UNL     1      48.776   3.571  16.808  0.00  0.00    +0.000 OA
ATOM     12  H   UNL     1      46.351   5.532  17.340  0.00  0.00    +0.000 HD
ATOM     13  H   UNL     1      47.310   4.677  18.542  0.00  0.00    +0.000 HD
ENDBRANCH   6   9
ENDBRANCH   1   3
BRANCH   1  14
ATOM     14  C   UNL     1      44.804   6.168  11.181  0.00  0.00    +0.000 C 
BRANCH  14  16
ATOM     15  C   UNL     1      43.037   4.318  11.416  0.00  0.00    +0.000 C 
ATOM     16  C   UNL     1      44.156   4.933  10.635  0.00  0.00    +0.000 C 
BRANCH  16  17
ATOM     17  C   UNL     1      44.923   4.118   9.684  0.00  0.00    +0.000 A 
ATOM     18  C   UNL     1      44.933   2.720   9.780  0.00  0.00    +0.000 A 
ATOM     19  C   UNL     1      45.579   1.951   8.810  0.00  0.00    +0.000 A 
ATOM     20  C   UNL     1      46.214   2.572   7.737  0.00  0.00    +0.000 A 
ATOM     21  C   UNL     1      46.233   3.962   7.646  0.00  0.00    +0.000 A 
ATOM     22  C   UNL     1      45.597   4.730   8.622  0.00  0.00    +0.000 A 
ENDBRANCH  16  17
ENDBRANCH  14  16
ENDBRANCH   1  14
TORSDOF 5
ENDMDL
MODEL 7
REMARK VINA RESULT:    -5.913      3.922      6.818
REMARK INTER + INTRA:          -8.409
REMARK INTER:                  -7.905
REMARK INTRA:                  -0.505
REMARK UNBOUND:                -0.768
REMARK  Name = 
REMARK  6 active torsions:
REMARK  status: ('A' for Active; 'I' for Inactive)
REMARK    1  A    between atoms: C_1  and  C_2
REMARK    2  A    between atoms: C_2  and  C_3
REMARK    3  A    between atoms: C_2  and  C_14
REMARK    4  A    between atoms: C_3  and  N_4
REMARK    5  A    between atoms: N_4  and  C_5
REMARK    6  A    between atoms: C_8  and  C_9
REMARK                            x       y       z     vdW  Elec       q    Type
REMARK                         _______ _______ _______ _____ _____    ______ ____
ROOT
ATOM      1  N   UNL     1      46.542   6.789  12.816  0.00  0.00    +0.000 N 
ATOM      2  H   UNL     1      45.594   7.144  12.943  0.00  0.00    +0.000 HD
ENDROOT
BRANCH   1   3
ATOM      3  C   UNL     1      46.895   5.920  13.856  0.00  0.00    +0.000 A 
ATOM      4  C   UNL     1      47.869   6.309  14.781  0.00  0.00    +0.000 A 
ATOM      5  C   UNL     1      48.252   5.449  15.812  0.00  0.00    +0.000 A 
ATOM      6  C   UNL     1      47.667   4.194  15.866  0.00  0.00    +0.000 A 
ATOM      7  N   UNL     1      46.765   3.739  14.954  0.00  0.00    +0.000 NA
ATOM      8  C   UNL     1      46.428   4.605  13.972  0.00  0.00    +0.000 A 
BRANCH   6   9
ATOM      9  C   UNL     1      48.004   3.251  16.979  0.00  0.00    +0.000 C 
ATOM     10  N   UNL     1      46.934   2.813  17.712  0.00  0.00    +0.000 N 
ATOM     11  O   UNL     1      49.148   2.901  17.226  0.00  0.00    +0.000 OA
ATOM     12  H   UNL     1      46.003   3.137  17.473  0.00  0.00    +0.000 HD
ATOM     13  H   UNL     1      47.081   2.190  18.492  0.00  0.00    +0.000 HD
ENDBRANCH   6   9
ENDBRANCH   1   3
BRANCH   1  14
ATOM     14  C   UNL     1      46.740   6.306  11.450  0.00  0.00    +0.000 C 
BRANCH  14  16
ATOM     15  C   UNL     1      44.201   6.695  11.511  0.00  0.00    +0.000 C 
ATOM     16  C   UNL     1      45.386   6.050  10.862  0.00  0.00    +0.000 C 
BRANCH  16  17
ATOM     17  C   UNL     1      45.208   4.845  10.042  0.00  0.00    +0.000 A 
ATOM     18  C   UNL     1      45.715   4.782   8.738  0.00  0.00    +0.000 A 
ATOM     19  C   UNL     1      45.633   3.595   8.006  0.00  0.00    +0.000 A 
ATOM     20  C   UNL     1      45.047   2.466   8.572  0.00  0.00    +0.000 A 
ATOM     21  C   UNL     1      44.517   2.525   9.859  0.00  0.00    +0.000 A 
ATOM     22  C   UNL     1      44.588   3.714  10.585  0.00  0.00    +0.000 A 
ENDBRANCH  16  17
ENDBRANCH  14  16
ENDBRANCH   1  14
TORSDOF 5
ENDMDL
MODEL 8
REMARK VINA RESULT:    -5.879      4.402      7.198
REMARK INTER + INTRA:          -8.365
REMARK INTER:                  -7.920
REMARK INTRA:                  -0.444
REMARK UNBOUND:                -0.768
REMARK  Name = 
REMARK  6 active torsions:
REMARK  status: ('A' for Active; 'I' for Inactive)
REMARK    1  A    between atoms: C_1  and  C_2
REMARK    2  A    between atoms: C_2  and  C_3
REMARK    3  A    between atoms: C_2  and  C_14
REMARK    4  A    between atoms: C_3  and  N_4
REMARK    5  A    between atoms: N_4  and  C_5
REMARK    6  A    between atoms: C_8  and  C_9
REMARK                            x       y       z     vdW  Elec       q    Type
REMARK                         _______ _______ _______ _____ _____    ______ ____
ROOT
ATOM      1  N   UNL     1      46.326   5.231  12.607  0.00  0.00    +0.000 N 
ATOM      2  H   UNL     1      46.035   6.169  12.331  0.00  0.00    +0.000 HD
ENDROOT
BRANCH   1   3
ATOM      3  C   UNL     1      47.056   5.265  13.802  0.00  0.00    +0.000 A 
ATOM      4  C   UNL     1      46.777   4.336  14.809  0.00  0.00    +0.000 A 
ATOM      5  C   UNL     1      47.477   4.367  16.017  0.00  0.00    +0.000 A 
ATOM      6  C   UNL     1      48.424   5.362  16.197  0.00  0.00    +0.000 A 
ATOM      7  N   UNL     1      48.688   6.331  15.278  0.00  0.00    +0.000 NA
ATOM      8  C   UNL     1      47.983   6.263  14.126  0.00  0.00    +0.000 A 
BRANCH   6   9
ATOM      9  C   UNL     1      49.238   5.411  17.452  0.00  0.00    +0.000 C 
ATOM     10  N   UNL     1      50.547   5.030  17.310  0.00  0.00    +0.000 N 
ATOM     11  O   UNL     1      48.775   5.754  18.529  0.00  0.00    +0.000 OA
ATOM     12  H   UNL     1      50.884   4.747  16.397  0.00  0.00    +0.000 HD
ATOM     13  H   UNL     1      51.156   5.018  18.114  0.00  0.00    +0.000 HD
ENDBRANCH   6   9
ENDBRANCH   1   3
BRANCH   1  14
ATOM     14  C   UNL     1      45.204   4.297  12.541  0.00  0.00    +0.000 C 
BRANCH  14  16
ATOM     15  C   UNL     1      43.036   5.040  11.380  0.00  0.00    +0.000 C 
ATOM     16  C   UNL     1      44.456   4.579  11.274  0.00  0.00    +0.000 C 
BRANCH  16  17
ATOM     17  C   UNL     1      44.930   3.941  10.039  0.00  0.00    +0.000 A 
ATOM     18  C   UNL     1      45.491   4.704   9.006  0.00  0.00    +0.000 A 
ATOM     19  C   UNL     1      46.034   4.078   7.882  0.00  0.00    +0.000 A 
ATOM     20  C   UNL     1      46.023   2.689   7.784  0.00  0.00    +0.000 A 
ATOM     21  C   UNL     1      45.445   1.922   8.793  0.00  0.00    +0.000 A 
ATOM     22  C   UNL     1      44.892   2.548   9.910  0.00  0.00    +0.000 A 
ENDBRANCH  16  17
ENDBRANCH  14  16
ENDBRANCH   1  14
TORSDOF 5
ENDMDL
MODEL 9
REMARK VINA RESULT:    -5.639      3.289      5.399
REMARK INTER + INTRA:          -8.054
REMARK INTER:                  -7.535
REMARK INTRA:                  -0.519
REMARK UNBOUND:                -0.768
REMARK  Name = 
REMARK  6 active torsions:
REMARK  status: ('A' for Active; 'I' for Inactive)
REMARK    1  A    between atoms: C_1  and  C_2
REMARK    2  A    between atoms: C_2  and  C_3
REMARK    3  A    between atoms: C_2  and  C_14
REMARK    4  A    between atoms: C_3  and  N_4
REMARK    5  A    between atoms: N_4  and  C_5
REMARK    6  A    between atoms: C_8  and  C_9
REMARK                            x       y       z     vdW  Elec       q    Type
REMARK                         _______ _______ _______ _____ _____    ______ ____
ROOT
ATOM      1  N   UNL     1      46.835   6.602  13.956  0.00  0.00    +0.000 N 
ATOM      2  H   UNL     1      46.669   7.602  13.847  0.00  0.00    +0.000 HD
ENDROOT
BRANCH   1   3
ATOM      3  C   UNL     1      46.192   5.874  12.946  0.00  0.00    +0.000 A 
ATOM      4  C   UNL     1      45.823   4.546  13.179  0.00  0.00    +0.000 A 
ATOM      5  C   UNL     1      45.203   3.796  12.179  0.00  0.00    +0.000 A 
ATOM      6  C   UNL     1      45.000   4.394  10.945  0.00  0.00    +0.000 A 
ATOM      7  N   UNL     1      45.399   5.659  10.644  0.00  0.00    +0.000 NA
ATOM      8  C   UNL     1      45.999   6.346  11.642  0.00  0.00    +0.000 A 
BRANCH   6   9
ATOM      9  C   UNL     1      44.294   3.652   9.854  0.00  0.00    +0.000 C 
ATOM     10  N   UNL     1      44.112   4.360   8.695  0.00  0.00    +0.000 N 
ATOM     11  O   UNL     1      43.899   2.503   9.981  0.00  0.00    +0.000 OA
ATOM     12  H   UNL     1      44.451   5.314   8.638  0.00  0.00    +0.000 HD
ATOM     13  H   UNL     1      43.627   3.936   7.919  0.00  0.00    +0.000 HD
ENDBRANCH   6   9
ENDBRANCH   1   3
BRANCH   1  14
ATOM     14  C   UNL     1      48.255   6.329  14.170  0.00  0.00    +0.000 C 
BRANCH  14  16
ATOM     15  C   UNL     1      49.304   7.760  16.028  0.00  0.00    +0.000 C 
ATOM     16  C   UNL     1      48.540   6.538  15.626  0.00  0.00    +0.000 C 
BRANCH  16  17
ATOM     17  C   UNL     1      48.522   5.361  16.505  0.00  0.00    +0.000 A 
ATOM     18  C   UNL     1      47.437   4.475  16.497  0.00  0.00    +0.000 A 
ATOM     19  C   UNL     1      47.476   3.306  17.260  0.00  0.00    +0.000 A 
ATOM     20  C   UNL     1      48.598   3.013  18.031  0.00  0.00    +0.000 A 
ATOM     21  C   UNL     1      49.671   3.901  18.067  0.00  0.00    +0.000 A 
ATOM     22  C   UNL     1      49.627   5.075  17.314  0.00  0.00    +0.000 A 
ENDBRANCH  16  17
ENDBRANCH  14  16
ENDBRANCH   1  14
TORSDOF 5
ENDMDL
