MODEL 1
REMARK VINA RESULT:    -9.112      0.000      0.000
REMARK INTER + INTRA:         -13.506
REMARK INTER:                 -12.308
REMARK INTRA:                  -1.198
REMARK UNBOUND:                -1.198
REMARK  Name = 
REMARK  6 active torsions:
REMARK  status: ('A' for Active; 'I' for Inactive)
REMARK    1  A    between atoms: C_2  and  C_4
REMARK    2  A    between atoms: C_7  and  O_8
REMARK    3  A    between atoms: O_8  and  C_9
REMARK    4  A    between atoms: C_9  and  C_10
REMARK    5  A    between atoms: C_10  and  C_13
REMARK    6  A    between atoms: C_17  and  C_18
REMARK                            x       y       z     vdW  Elec       q    Type
REMARK                         _______ _______ _______ _____ _____    ______ ____
ROOT
ATOM      1  C   UNL     1      43.706   4.640  12.492  0.00  0.00    +0.000 C 
ATOM      2  F   UNL     1      42.800   5.381  13.194  0.00  0.00    +0.000 F 
ATOM      3  F   UNL     1      43.529   3.352  12.908  0.00  0.00    +0.000 F 
ENDROOT
BRANCH   1   4
ATOM      4  C   UNL     1      45.127   5.121  12.728  0.00  0.00    +0.000 A 
ATOM      5  C   UNL     1      45.743   5.990  11.822  0.00  0.00    +0.000 A 
ATOM      6  C   UNL     1      47.030   6.458  12.068  0.00  0.00    +0.000 A 
ATOM      7  C   UNL     1      47.704   6.074  13.231  0.00  0.00    +0.000 A 
ATOM      8  C   UNL     1      47.108   5.230  14.185  0.00  0.00    +0.000 A 
ATOM      9  C   UNL     1      45.819   4.745  13.896  0.00  0.00    +0.000 A 
BRANCH   8  10
ATOM     10  C   UNL     1      47.783   4.913  15.466  0.00  0.00    +0.000 A 
ATOM     11  C   UNL     1      48.639   5.841  16.081  0.00  0.00    +0.000 A 
ATOM     12  C   UNL     1      49.217   5.539  17.304  0.00  0.00    +0.000 A 
ATOM     13  N   UNL     1      49.007   4.387  17.968  0.00  0.00    +0.000 NA
ATOM     14  C   UNL     1      48.186   3.496  17.374  0.00  0.00    +0.000 A 
ATOM     15  C   UNL     1      47.571   3.706  16.147  0.00  0.00    +0.000 A 
ENDBRANCH   8  10
ENDBRANCH   1   4
BRANCH   1  16
ATOM     16  C   UNL     1      43.374   4.733  10.993  0.00  0.00    +0.000 C 
BRANCH  16  17
ATOM     17  O   UNL     1      43.472   3.445  10.373  0.00  0.00    +0.000 OA
BRANCH  17  21
ATOM     18  C   UNL     1      46.470   2.686   7.569  0.00  0.00    +0.000 A 
ATOM     19  C   UNL     1      46.018   4.002   7.724  0.00  0.00    +0.000 A 
ATOM     20  C   UNL     1      45.015   4.299   8.654  0.00  0.00    +0.000 A 
ATOM     21  C   UNL     1      44.454   3.286   9.433  0.00  0.00    +0.000 A 
ATOM     22  C   UNL     1      44.898   1.972   9.269  0.00  0.00    +0.000 A 
ATOM     23  C   UNL     1      45.895   1.668   8.339  0.00  0.00    +0.000 A 
BRANCH  18  25
ATOM     24  N   UNL     1      47.540   3.024   5.408  0.00  0.00    +0.000 N 
ATOM     25  C   UNL     1      47.524   2.329   6.586  0.00  0.00    +0.000 C 
ATOM     26  O   UNL     1      48.370   1.478   6.829  0.00  0.00    +0.000 OA
ATOM     27  H   UNL     1      48.331   2.848   4.800  0.00  0.00    +0.000 HD
ATOM     28  H   UNL     1      47.043   3.893   5.287  0.00  0.00    +0.000 HD
ENDBRANCH  18  25
ENDBRANCH  17  21
ENDBRANCH  16  17
ENDBRANCH   1  16
TORSDOF 6
ENDMDL
MODEL 2
REMARK VINA RESULT:    -9.094      2.645      3.903
REMARK INTER + INTRA:         -13.482
REMARK INTER:                 -12.331
REMARK INTRA:                  -1.152
REMARK UNBOUND:                -1.198
REMARK  Name = 
REMARK  6 active torsions:
REMARK  status: ('A' for Active; 'I' for Inactive)
REMARK    1  A    between atoms: C_2  and  C_4
REMARK    2  A    between atoms: C_7  and  O_8
REMARK    3  A    between atoms: O_8  and  C_9
REMARK    4  A    between atoms: C_9  and  C_10
REMARK    5  A    between atoms: C_10  and  C_13
REMARK    6  A    between atoms: C_17  and  C_18
REMARK                            x       y       z     vdW  Elec       q    Type
REMARK                         _______ _______ _______ _____ _____    ______ ____
ROOT
ATOM      1  C   UNL     1      43.328   4.584  12.673  0.00  0.00    +0.000 C 
ATOM      2  F   UNL     1      42.327   5.488  12.460  0.00  0.00    +0.000 F 
ATOM      3  F   UNL     1      42.952   3.874  13.778  0.00  0.00    +0.000 F 
ENDROOT
BRANCH   1   4
ATOM      4  C   UNL     1      44.669   5.269  12.870  0.00  0.00    +0.000 A 
ATOM      5  C   UNL     1      45.797   4.529  13.241  0.00  0.00    +0.000 A 
ATOM      6  C   UNL     1      47.030   5.157  13.379  0.00  0.00    +0.000 A 
ATOM      7  C   UNL     1      47.148   6.528  13.129  0.00  0.00    +0.000 A 
ATOM      8  C   UNL     1      46.047   7.302  12.721  0.00  0.00    +0.000 A 
ATOM      9  C   UNL     1      44.806   6.648  12.621  0.00  0.00    +0.000 A 
BRANCH   8  10
ATOM     10  C   UNL     1      46.200   8.731  12.354  0.00  0.00    +0.000 A 
ATOM     11  C   UNL     1      47.470   9.289  12.135  0.00  0.00    +0.000 A 
ATOM     12  C   UNL     1      47.581  10.614  11.743  0.00  0.00    +0.000 A 
ATOM     13  N   UNL     1      46.526  11.428  11.546  0.00  0.00    +0.000 NA
ATOM     14  C   UNL     1      45.308  10.889  11.759  0.00  0.00    +0.000 A 
ATOM     15  C   UNL     1      45.099   9.577  12.163  0.00  0.00    +0.000 A 
ENDBRANCH   8  10
ENDBRANCH   1   4
BRANCH   1  16
ATOM     16  C   UNL     1      43.407   3.632  11.469  0.00  0.00    +0.000 C 
BRANCH  16  17
ATOM     17  O   UNL     1      43.666   4.363  10.263  0.00  0.00    +0.000 OA
BRANCH  17  21
ATOM     18  C   UNL     1      46.418   2.480   7.753  0.00  0.00    +0.000 A 
ATOM     19  C   UNL     1      46.278   3.870   7.667  0.00  0.00    +0.000 A 
ATOM     20  C   UNL     1      45.367   4.540   8.491  0.00  0.00    +0.000 A 
ATOM     21  C   UNL     1      44.588   3.829   9.405  0.00  0.00    +0.000 A 
ATOM     22  C   UNL     1      44.721   2.440   9.482  0.00  0.00    +0.000 A 
ATOM     23  C   UNL     1      45.625   1.765   8.658  0.00  0.00    +0.000 A 
BRANCH  18  25
ATOM     24  N   UNL     1      48.485   2.396   6.468  0.00  0.00    +0.000 N 
ATOM     25  C   UNL     1      47.366   1.731   6.888  0.00  0.00    +0.000 C 
ATOM     26  O   UNL     1      47.179   0.558   6.592  0.00  0.00    +0.000 OA
ATOM     27  H   UNL     1      49.173   1.838   5.977  0.00  0.00    +0.000 HD
ATOM     28  H   UNL     1      48.801   3.250   6.902  0.00  0.00    +0.000 HD
ENDBRANCH  18  25
ENDBRANCH  17  21
ENDBRANCH  16  17
ENDBRANCH   1  16
TORSDOF 6
ENDMDL
MODEL 3
REMARK VINA RESULT:    -8.136      1.810      2.330
REMARK INTER + INTRA:         -12.188
REMARK INTER:                 -11.091
REMARK INTRA:                  -1.097
REMARK UNBOUND:                -1.198
REMARK  Name = 
REMARK  6 active torsions:
REMARK  status: ('A' for Active; 'I' for Inactive)
REMARK    1  A    between atoms: C_2  and  C_4
REMARK    2  A    between atoms: C_7  and  O_8
REMARK    3  A    between atoms: O_8  and  C_9
REMARK    4  A    between atoms: C_9  and  C_10
REMARK    5  A    between atoms: C_10  and  C_13
REMARK    6  A    between atoms: C_17  and  C_18
REMARK                            x       y       z     vdW  Elec       q    Type
REMARK                         _______ _______ _______ _____ _____    ______ ____
ROOT
ATOM      1  C   UNL     1      43.732   4.943  12.318  0.00  0.00    +0.000 C 
ATOM      2  F   UNL     1      42.700   5.057  13.205  0.00  0.00    +0.000 F 
ATOM      3  F   UNL     1      44.504   3.917  12.784  0.00  0.00    +0.000 F 
ENDROOT
BRANCH   1   4
ATOM      4  C   UNL     1      44.518   6.237  12.204  0.00  0.00    +0.000 A 
ATOM      5  C   UNL     1      44.036   7.295  11.427  0.00  0.00    +0.000 A 
ATOM      6  C   UNL     1      44.742   8.491  11.362  0.00  0.00    +0.000 A 
ATOM      7  C   UNL     1      45.928   8.645  12.087  0.00  0.00    +0.000 A 
ATOM      8  C   UNL     1      46.430   7.618  12.907  0.00  0.00    +0.000 A 
ATOM      9  C   UNL     1      45.713   6.408  12.930  0.00  0.00    +0.000 A 
BRANCH   8  10
ATOM     10  C   UNL     1      47.627   7.823  13.758  0.00  0.00    +0.000 A 
ATOM     11  C   UNL     1      48.106   9.115  14.032  0.00  0.00    +0.000 A 
ATOM     12  C   UNL     1      49.197   9.280  14.871  0.00  0.00    +0.000 A 
ATOM     13  N   UNL     1      49.847   8.261  15.464  0.00  0.00    +0.000 NA
ATOM     14  C   UNL     1      49.385   7.023  15.197  0.00  0.00    +0.000 A 
ATOM     15  C   UNL     1      48.308   6.759  14.363  0.00  0.00    +0.000 A 
ENDBRANCH   8  10
ENDBRANCH   1   4
BRANCH   1  16
ATOM     16  C   UNL     1      43.167   4.560  10.941  0.00  0.00    +0.000 C 
BRANCH  16  17
ATOM     17  O   UNL     1      43.590   3.242  10.569  0.00  0.00    +0.000 OA
BRANCH  17  21
ATOM     18  C   UNL     1      46.435   2.687   7.566  0.00  0.00    +0.000 A 
ATOM     19  C   UNL     1      45.984   3.986   7.826  0.00  0.00    +0.000 A 
ATOM     20  C   UNL     1      45.031   4.216   8.826  0.00  0.00    +0.000 A 
ATOM     21  C   UNL     1      44.520   3.152   9.570  0.00  0.00    +0.000 A 
ATOM     22  C   UNL     1      44.962   1.854   9.300  0.00  0.00    +0.000 A 
ATOM     23  C   UNL     1      45.910   1.618   8.300  0.00  0.00    +0.000 A 
BRANCH  18  25
ATOM     24  N   UNL     1      47.360   3.144   5.360  0.00  0.00    +0.000 N 
ATOM     25  C   UNL     1      47.436   2.402   6.506  0.00  0.00    +0.000 C 
ATOM     26  O   UNL     1      48.318   1.567   6.661  0.00  0.00    +0.000 OA
ATOM     27  H   UNL     1      48.117   3.017   4.699  0.00  0.00    +0.000 HD
ATOM     28  H   UNL     1      46.834   4.003   5.307  0.00  0.00    +0.000 HD
ENDBRANCH  18  25
ENDBRANCH  17  21
ENDBRANCH  16  17
ENDBRANCH   1  16
TORSDOF 6
ENDMDL
MODEL 4
REMARK VINA RESULT:    -7.599      2.625      3.378
REMARK INTER + INTRA:         -11.463
REMARK INTER:                 -10.715
REMARK INTRA:                  -0.748
REMARK UNBOUND:                -1.198
REMARK  Name = 
REMARK  6 active torsions:
REMARK  status: ('A' for Active; 'I' for Inactive)
REMARK    1  A    between atoms: C_2  and  C_4
REMARK    2  A    between atoms: C_7  and  O_8
REMARK    3  A    between atoms: O_8  and  C_9
REMARK    4  A    between atoms: C_9  and  C_10
REMARK    5  A    between atoms: C_10  and  C_13
REMARK    6  A    between atoms: C_17  and  C_18
REMARK                            x       y       z     vdW  Elec       q    Type
REMARK                         _______ _______ _______ _____ _____    ______ ____
ROOT
ATOM      1  C   UNL     1      44.515   4.883  12.147  0.00  0.00    +0.000 C 
ATOM      2  F   UNL     1      43.988   4.688  13.391  0.00  0.00    +0.000 F 
ATOM      3  F   UNL     1      45.468   3.916  11.995  0.00  0.00    +0.000 F 
ENDROOT
BRANCH   1   4
ATOM      4  C   UNL     1      45.096   6.278  11.997  0.00  0.00    +0.000 A 
ATOM      5  C   UNL     1      44.269   7.363  11.687  0.00  0.00    +0.000 A 
ATOM      6  C   UNL     1      44.804   8.643  11.593  0.00  0.00    +0.000 A 
ATOM      7  C   UNL     1      46.167   8.852  11.826  0.00  0.00    +0.000 A 
ATOM      8  C   UNL     1      47.026   7.795  12.174  0.00  0.00    +0.000 A 
ATOM      9  C   UNL     1      46.466   6.505  12.231  0.00  0.00    +0.000 A 
BRANCH   8  10
ATOM     10  C   UNL     1      48.446   8.036  12.526  0.00  0.00    +0.000 A 
ATOM     11  C   UNL     1      48.963   7.629  13.767  0.00  0.00    +0.000 A 
ATOM     12  C   UNL     1      50.306   7.822  14.051  0.00  0.00    +0.000 A 
ATOM     13  N   UNL     1      51.179   8.384  13.194  0.00  0.00    +0.000 NA
ATOM     14  C   UNL     1      50.679   8.776  12.004  0.00  0.00    +0.000 A 
ATOM     15  C   UNL     1      49.348   8.633  11.636  0.00  0.00    +0.000 A 
ENDBRANCH   8  10
ENDBRANCH   1   4
BRANCH   1  16
ATOM     16  C   UNL     1      43.412   4.670  11.097  0.00  0.00    +0.000 C 
BRANCH  16  17
ATOM     17  O   UNL     1      43.926   4.874   9.775  0.00  0.00    +0.000 OA
BRANCH  17  21
ATOM     18  C   UNL     1      46.234   1.917   7.944  0.00  0.00    +0.000 A 
ATOM     19  C   UNL     1      45.230   1.523   8.836  0.00  0.00    +0.000 A 
ATOM     20  C   UNL     1      44.432   2.483   9.471  0.00  0.00    +0.000 A 
ATOM     21  C   UNL     1      44.634   3.842   9.222  0.00  0.00    +0.000 A 
ATOM     22  C   UNL     1      45.644   4.233   8.341  0.00  0.00    +0.000 A 
ATOM     23  C   UNL     1      46.447   3.280   7.708  0.00  0.00    +0.000 A 
BRANCH  18  25
ATOM     24  N   UNL     1      46.864  -0.395   7.507  0.00  0.00    +0.000 N 
ATOM     25  C   UNL     1      47.107   0.929   7.261  0.00  0.00    +0.000 C 
ATOM     26  O   UNL     1      47.983   1.276   6.478  0.00  0.00    +0.000 OA
ATOM     27  H   UNL     1      47.391  -1.053   6.946  0.00  0.00    +0.000 HD
ATOM     28  H   UNL     1      46.002  -0.718   7.919  0.00  0.00    +0.000 HD
ENDBRANCH  18  25
ENDBRANCH  17  21
ENDBRANCH  16  17
ENDBRANCH   1  16
TORSDOF 6
ENDMDL
MODEL 5
REMARK VINA RESULT:    -7.396      2.441      7.705
REMARK INTER + INTRA:         -11.188
REMARK INTER:                 -10.355
REMARK INTRA:                  -0.834
REMARK UNBOUND:                -1.198
REMARK  Name = 
REMARK  6 active torsions:
REMARK  status: ('A' for Active; 'I' for Inactive)
REMARK    1  A    between atoms: C_2  and  C_4
REMARK    2  A    between atoms: C_7  and  O_8
REMARK    3  A    between atoms: O_8  and  C_9
REMARK    4  A    between atoms: C_9  and  C_10
REMARK    5  A    between atoms: C_10  and  C_13
REMARK    6  A    between atoms: C_17  and  C_18
REMARK                            x       y       z     vdW  Elec       q    Type
REMARK                         _______ _______ _______ _____ _____    ______ ____
ROOT
ATOM      1  C   UNL     1      44.568   6.276  11.944  0.00  0.00    +0.000 C 
ATOM      2  F   UNL     1      44.126   6.384  13.231  0.00  0.00    +0.000 F 
ATOM      3  F   UNL     1      43.821   7.164  11.223  0.00  0.00    +0.000 F 
ENDROOT
BRANCH   1   4
ATOM      4  C   UNL     1      44.424   4.859  11.418  0.00  0.00    +0.000 A 
ATOM      5  C   UNL     1      43.519   3.970  12.010  0.00  0.00    +0.000 A 
ATOM      6  C   UNL     1      43.364   2.687  11.496  0.00  0.00    +0.000 A 
ATOM      7  C   UNL     1      44.099   2.288  10.376  0.00  0.00    +0.000 A 
ATOM      8  C   UNL     1      44.993   3.161   9.730  0.00  0.00    +0.000 A 
ATOM      9  C   UNL     1      45.155   4.442  10.290  0.00  0.00    +0.000 A 
BRANCH   8  10
ATOM     10  C   UNL     1      45.688   2.771   8.480  0.00  0.00    +0.000 A 
ATOM     11  C   UNL     1      45.871   3.692   7.436  0.00  0.00    +0.000 A 
ATOM     12  C   UNL     1      46.568   3.316   6.299  0.00  0.00    +0.000 A 
ATOM     13  N   UNL     1      47.105   2.094   6.120  0.00  0.00    +0.000 NA
ATOM     14  C   UNL     1      46.926   1.210   7.124  0.00  0.00    +0.000 A 
ATOM     15  C   UNL     1      46.234   1.494   8.293  0.00  0.00    +0.000 A 
ENDBRANCH   8  10
ENDBRANCH   1   4
BRANCH   1  16
ATOM     16  C   UNL     1      46.044   6.700  11.885  0.00  0.00    +0.000 C 
BRANCH  16  17
ATOM     17  O   UNL     1      46.900   5.602  12.227  0.00  0.00    +0.000 OA
BRANCH  17  21
ATOM     18  C   UNL     1      47.920   5.059  16.238  0.00  0.00    +0.000 A 
ATOM     19  C   UNL     1      48.395   6.197  15.577  0.00  0.00    +0.000 A 
ATOM     20  C   UNL     1      48.075   6.418  14.232  0.00  0.00    +0.000 A 
ATOM     21  C   UNL     1      47.282   5.503  13.537  0.00  0.00    +0.000 A 
ATOM     22  C   UNL     1      46.818   4.361  14.195  0.00  0.00    +0.000 A 
ATOM     23  C   UNL     1      47.139   4.133  15.537  0.00  0.00    +0.000 A 
BRANCH  18  25
ATOM     24  N   UNL     1      47.233   4.915  18.570  0.00  0.00    +0.000 N 
ATOM     25  C   UNL     1      48.246   4.785  17.661  0.00  0.00    +0.000 C 
ATOM     26  O   UNL     1      49.362   4.418  18.006  0.00  0.00    +0.000 OA
ATOM     27  H   UNL     1      47.444   4.615  19.514  0.00  0.00    +0.000 HD
ATOM     28  H   UNL     1      46.263   4.948  18.297  0.00  0.00    +0.000 HD
ENDBRANCH  18  25
ENDBRANCH  17  21
ENDBRANCH  16  17
ENDBRANCH   1  16
TORSDOF 6
ENDMDL
MODEL 6
REMARK VINA RESULT:    -7.346      2.623      7.585
REMARK INTER + INTRA:         -11.122
REMARK INTER:                 -10.156
REMARK INTRA:                  -0.966
REMARK UNBOUND:                -1.198
REMARK  Name = 
REMARK  6 active torsions:
REMARK  status: ('A' for Active; 'I' for Inactive)
REMARK    1  A    between atoms: C_2  and  C_4
REMARK    2  A    between atoms: C_7  and  O_8
REMARK    3  A    between atoms: O_8  and  C_9
REMARK    4  A    between atoms: C_9  and  C_10
REMARK    5  A    between atoms: C_10  and  C_13
REMARK    6  A    between atoms: C_17  and  C_18
REMARK                            x       y       z     vdW  Elec       q    Type
REMARK                         _______ _______ _______ _____ _____    ______ ____
ROOT
ATOM      1  C   UNL     1      45.532   7.249  11.853  0.00  0.00    +0.000 C 
ATOM      2  F   UNL     1      45.047   7.619  13.074  0.00  0.00    +0.000 F 
ATOM      3  F   UNL     1      45.259   8.296  11.018  0.00  0.00    +0.000 F 
ENDROOT
BRANCH   1   4
ATOM      4  C   UNL     1      44.899   5.957  11.366  0.00  0.00    +0.000 A 
ATOM      5  C   UNL     1      43.643   5.560  11.836  0.00  0.00    +0.000 A 
ATOM      6  C   UNL     1      43.053   4.397  11.354  0.00  0.00    +0.000 A 
ATOM      7  C   UNL     1      43.707   3.631  10.384  0.00  0.00    +0.000 A 
ATOM      8  C   UNL     1      44.955   4.013   9.859  0.00  0.00    +0.000 A 
ATOM      9  C   UNL     1      45.543   5.176  10.388  0.00  0.00    +0.000 A 
BRANCH   8  10
ATOM     10  C   UNL     1      45.593   3.257   8.755  0.00  0.00    +0.000 A 
ATOM     11  C   UNL     1      46.139   3.922   7.645  0.00  0.00    +0.000 A 
ATOM     12  C   UNL     1      46.775   3.195   6.650  0.00  0.00    +0.000 A 
ATOM     13  N   UNL     1      46.916   1.856   6.676  0.00  0.00    +0.000 NA
ATOM     14  C   UNL     1      46.389   1.220   7.742  0.00  0.00    +0.000 A 
ATOM     15  C   UNL     1      45.727   1.862   8.780  0.00  0.00    +0.000 A 
ENDBRANCH   8  10
ENDBRANCH   1   4
BRANCH   1  16
ATOM     16  C   UNL     1      47.056   7.071  11.952  0.00  0.00    +0.000 C 
BRANCH  16  17
ATOM     17  O   UNL     1      47.509   7.332  13.287  0.00  0.00    +0.000 OA
BRANCH  17  21
ATOM     18  C   UNL     1      47.871   4.223  16.048  0.00  0.00    +0.000 A 
ATOM     19  C   UNL     1      47.129   3.998  14.883  0.00  0.00    +0.000 A 
ATOM     20  C   UNL     1      46.983   5.013  13.931  0.00  0.00    +0.000 A 
ATOM     21  C   UNL     1      47.575   6.261  14.136  0.00  0.00    +0.000 A 
ATOM     22  C   UNL     1      48.306   6.488  15.305  0.00  0.00    +0.000 A 
ATOM     23  C   UNL     1      48.450   5.479  16.261  0.00  0.00    +0.000 A 
BRANCH  18  25
ATOM     24  N   UNL     1      46.910   2.751  17.733  0.00  0.00    +0.000 N 
ATOM     25  C   UNL     1      48.038   3.175  17.087  0.00  0.00    +0.000 C 
ATOM     26  O   UNL     1      49.130   2.678  17.331  0.00  0.00    +0.000 OA
ATOM     27  H   UNL     1      47.026   1.958  18.353  0.00  0.00    +0.000 HD
ATOM     28  H   UNL     1      45.983   2.935  17.379  0.00  0.00    +0.000 HD
ENDBRANCH  18  25
ENDBRANCH  17  21
ENDBRANCH  16  17
ENDBRANCH   1  16
TORSDOF 6
ENDMDL
MODEL 7
REMARK VINA RESULT:    -7.205      3.041      7.342
REMARK INTER + INTRA:         -10.931
REMARK INTER:                 -10.002
REMARK INTRA:                  -0.929
REMARK UNBOUND:                -1.198
REMARK  Name = 
REMARK  6 active torsions:
REMARK  status: ('A' for Active; 'I' for Inactive)
REMARK    1  A    between atoms: C_2  and  C_4
REMARK    2  A    between atoms: C_7  and  O_8
REMARK    3  A    between atoms: O_8  and  C_9
REMARK    4  A    between atoms: C_9  and  C_10
REMARK    5  A    between atoms: C_10  and  C_13
REMARK    6  A    between atoms: C_17  and  C_18
REMARK                            x       y       z     vdW  Elec       q    Type
REMARK                         _______ _______ _______ _____ _____    ______ ____
ROOT
ATOM      1  C   UNL     1      44.296   6.506  11.415  0.00  0.00    +0.000 C 
ATOM      2  F   UNL     1      43.038   7.034  11.451  0.00  0.00    +0.000 F 
ATOM      3  F   UNL     1      44.985   7.260  10.508  0.00  0.00    +0.000 F 
ENDROOT
BRANCH   1   4
ATOM      4  C   UNL     1      44.277   5.037  11.032  0.00  0.00    +0.000 A 
ATOM      5  C   UNL     1      43.435   4.140  11.698  0.00  0.00    +0.000 A 
ATOM      6  C   UNL     1      43.394   2.804  11.313  0.00  0.00    +0.000 A 
ATOM      7  C   UNL     1      44.181   2.359  10.246  0.00  0.00    +0.000 A 
ATOM      8  C   UNL     1      45.015   3.234   9.528  0.00  0.00    +0.000 A 
ATOM      9  C   UNL     1      45.062   4.573   9.959  0.00  0.00    +0.000 A 
BRANCH   8  10
ATOM     10  C   UNL     1      45.764   2.781   8.331  0.00  0.00    +0.000 A 
ATOM     11  C   UNL     1      46.042   3.665   7.275  0.00  0.00    +0.000 A 
ATOM     12  C   UNL     1      46.788   3.228   6.191  0.00  0.00    +0.000 A 
ATOM     13  N   UNL     1      47.284   1.982   6.076  0.00  0.00    +0.000 NA
ATOM     14  C   UNL     1      47.013   1.136   7.091  0.00  0.00    +0.000 A 
ATOM     15  C   UNL     1      46.267   1.479   8.210  0.00  0.00    +0.000 A 
ENDBRANCH   8  10
ENDBRANCH   1   4
BRANCH   1  16
ATOM     16  C   UNL     1      44.947   6.669  12.799  0.00  0.00    +0.000 C 
BRANCH  16  17
ATOM     17  O   UNL     1      46.100   5.826  12.918  0.00  0.00    +0.000 OA
BRANCH  17  21
ATOM     18  C   UNL     1      49.781   7.793  12.893  0.00  0.00    +0.000 A 
ATOM     19  C   UNL     1      49.343   7.210  14.089  0.00  0.00    +0.000 A 
ATOM     20  C   UNL     1      48.115   6.540  14.140  0.00  0.00    +0.000 A 
ATOM     21  C   UNL     1      47.314   6.449  13.000  0.00  0.00    +0.000 A 
ATOM     22  C   UNL     1      47.747   7.041  11.811  0.00  0.00    +0.000 A 
ATOM     23  C   UNL     1      48.970   7.716  11.755  0.00  0.00    +0.000 A 
BRANCH  18  25
ATOM     24  N   UNL     1      52.119   8.029  13.533  0.00  0.00    +0.000 N 
ATOM     25  C   UNL     1      51.072   8.521  12.802  0.00  0.00    +0.000 C 
ATOM     26  O   UNL     1      51.211   9.497  12.076  0.00  0.00    +0.000 OA
ATOM     27  H   UNL     1      53.017   8.468  13.370  0.00  0.00    +0.000 HD
ATOM     28  H   UNL     1      52.118   7.097  13.918  0.00  0.00    +0.000 HD
ENDBRANCH  18  25
ENDBRANCH  17  21
ENDBRANCH  16  17
ENDBRANCH   1  16
TORSDOF 6
ENDMDL
MODEL 8
REMARK VINA RESULT:    -6.855      3.684      7.948
REMARK INTER + INTRA:         -10.459
REMARK INTER:                  -9.159
REMARK INTRA:                  -1.300
REMARK UNBOUND:                -1.198
REMARK  Name = 
REMARK  6 active torsions:
REMARK  status: ('A' for Active; 'I' for Inactive)
REMARK    1  A    between atoms: C_2  and  C_4
REMARK    2  A    between atoms: C_7  and  O_8
REMARK    3  A    between atoms: O_8  and  C_9
REMARK    4  A    between atoms: C_9  and  C_10
REMARK    5  A    between atoms: C_10  and  C_13
REMARK    6  A    between atoms: C_17  and  C_18
REMARK                            x       y       z     vdW  Elec       q    Type
REMARK                         _______ _______ _______ _____ _____    ______ ____
ROOT
ATOM      1  C   UNL     1      48.981   8.183  12.058  0.00  0.00    +0.000 C 
ATOM      2  F   UNL     1      49.192   9.485  12.413  0.00  0.00    +0.000 F 
ATOM      3  F   UNL     1      49.591   8.030  10.845  0.00  0.00    +0.000 F 
ENDROOT
BRANCH   1   4
ATOM      4  C   UNL     1      47.500   7.853  11.993  0.00  0.00    +0.000 A 
ATOM      5  C   UNL     1      46.550   8.748  12.495  0.00  0.00    +0.000 A 
ATOM      6  C   UNL     1      45.194   8.456  12.394  0.00  0.00    +0.000 A 
ATOM      7  C   UNL     1      44.777   7.273  11.774  0.00  0.00    +0.000 A 
ATOM      8  C   UNL     1      45.698   6.363  11.226  0.00  0.00    +0.000 A 
ATOM      9  C   UNL     1      47.064   6.667  11.371  0.00  0.00    +0.000 A 
BRANCH   8  10
ATOM     10  C   UNL     1      45.249   5.165  10.476  0.00  0.00    +0.000 A 
ATOM     11  C   UNL     1      45.611   4.976   9.132  0.00  0.00    +0.000 A 
ATOM     12  C   UNL     1      45.219   3.823   8.470  0.00  0.00    +0.000 A 
ATOM     13  N   UNL     1      44.499   2.839   9.041  0.00  0.00    +0.000 NA
ATOM     14  C   UNL     1      44.152   3.025  10.330  0.00  0.00    +0.000 A 
ATOM     15  C   UNL     1      44.489   4.149  11.071  0.00  0.00    +0.000 A 
ENDBRANCH   8  10
ENDBRANCH   1   4
BRANCH   1  16
ATOM     16  C   UNL     1      49.669   7.268  13.084  0.00  0.00    +0.000 C 
BRANCH  16  17
ATOM     17  O   UNL     1      49.367   7.688  14.420  0.00  0.00    +0.000 OA
BRANCH  17  21
ATOM     18  C   UNL     1      48.081   4.621  16.941  0.00  0.00    +0.000 A 
ATOM     19  C   UNL     1      49.111   5.459  17.382  0.00  0.00    +0.000 A 
ATOM     20  C   UNL     1      49.572   6.501  16.568  0.00  0.00    +0.000 A 
ATOM     21  C   UNL     1      49.009   6.711  15.308  0.00  0.00    +0.000 A 
ATOM     22  C   UNL     1      47.988   5.866  14.865  0.00  0.00    +0.000 A 
ATOM     23  C   UNL     1      47.528   4.822  15.671  0.00  0.00    +0.000 A 
BRANCH  18  25
ATOM     24  N   UNL     1      48.260   3.211  18.919  0.00  0.00    +0.000 N 
ATOM     25  C   UNL     1      47.573   3.499  17.772  0.00  0.00    +0.000 C 
ATOM     26  O   UNL     1      46.561   2.880  17.469  0.00  0.00    +0.000 OA
ATOM     27  H   UNL     1      47.835   2.522  19.528  0.00  0.00    +0.000 HD
ATOM     28  H   UNL     1      48.918   3.855  19.330  0.00  0.00    +0.000 HD
ENDBRANCH  18  25
ENDBRANCH  17  21
ENDBRANCH  16  17
ENDBRANCH   1  16
TORSDOF 6
ENDMDL
MODEL 9
REMARK VINA RESULT:    -6.625      3.989      6.340
REMARK INTER + INTRA:         -10.147
REMARK INTER:                  -9.275
REMARK INTRA:                  -0.872
REMARK UNBOUND:                -1.198
REMARK  Name = 
REMARK  6 active torsions:
REMARK  status: ('A' for Active; 'I' for Inactive)
REMARK    1  A    between atoms: C_2  and  C_4
REMARK    2  A    between atoms: C_7  and  O_8
REMARK    3  A    between atoms: O_8  and  C_9
REMARK    4  A    between atoms: C_9  and  C_10
REMARK    5  A    between atoms: C_10  and  C_13
REMARK    6  A    between atoms: C_17  and  C_18
REMARK                            x       y       z     vdW  Elec       q    Type
REMARK                         _______ _______ _______ _____ _____    ______ ____
ROOT
ATOM      1  C   UNL     1      48.008   3.153  16.715  0.00  0.00    +0.000 C 
ATOM      2  F   UNL     1      47.151   2.601  17.624  0.00  0.00    +0.000 F 
ATOM      3  F   UNL     1      48.227   2.181  15.780  0.00  0.00    +0.000 F 
ENDROOT
BRANCH   1   4
ATOM      4  C   UNL     1      49.300   3.611  17.368  0.00  0.00    +0.000 A 
ATOM      5  C   UNL     1      49.371   4.853  18.008  0.00  0.00    +0.000 A 
ATOM      6  C   UNL     1      50.545   5.247  18.639  0.00  0.00    +0.000 A 
ATOM      7  C   UNL     1      51.654   4.394  18.650  0.00  0.00    +0.000 A 
ATOM      8  C   UNL     1      51.614   3.124  18.048  0.00  0.00    +0.000 A 
ATOM      9  C   UNL     1      50.424   2.764  17.389  0.00  0.00    +0.000 A 
BRANCH   8  10
ATOM     10  C   UNL     1      52.753   2.181  18.156  0.00  0.00    +0.000 A 
ATOM     11  C   UNL     1      52.742   0.953  17.475  0.00  0.00    +0.000 A 
ATOM     12  C   UNL     1      53.842   0.113  17.552  0.00  0.00    +0.000 A 
ATOM     13  N   UNL     1      54.956   0.400  18.251  0.00  0.00    +0.000 NA
ATOM     14  C   UNL     1      54.963   1.579  18.906  0.00  0.00    +0.000 A 
ATOM     15  C   UNL     1      53.906   2.479  18.895  0.00  0.00    +0.000 A 
ENDBRANCH   8  10
ENDBRANCH   1   4
BRANCH   1  16
ATOM     16  C   UNL     1      47.318   4.350  16.040  0.00  0.00    +0.000 C 
BRANCH  16  17
ATOM     17  O   UNL     1      47.771   4.498  14.688  0.00  0.00    +0.000 OA
BRANCH  17  21
ATOM     18  C   UNL     1      44.855   4.740  11.712  0.00  0.00    +0.000 A 
ATOM     19  C   UNL     1      45.245   3.474  12.162  0.00  0.00    +0.000 A 
ATOM     20  C   UNL     1      46.219   3.348  13.160  0.00  0.00    +0.000 A 
ATOM     21  C   UNL     1      46.812   4.485  13.713  0.00  0.00    +0.000 A 
ATOM     22  C   UNL     1      46.429   5.748  13.254  0.00  0.00    +0.000 A 
ATOM     23  C   UNL     1      45.461   5.879  12.254  0.00  0.00    +0.000 A 
BRANCH  18  25
ATOM     24  N   UNL     1      44.183   4.538   9.380  0.00  0.00    +0.000 N 
ATOM     25  C   UNL     1      43.833   4.913  10.648  0.00  0.00    +0.000 C 
ATOM     26  O   UNL     1      42.711   5.336  10.895  0.00  0.00    +0.000 OA
ATOM     27  H   UNL     1      43.440   4.555   8.692  0.00  0.00    +0.000 HD
ATOM     28  H   UNL     1      44.979   3.948   9.192  0.00  0.00    +0.000 HD
ENDBRANCH  18  25
ENDBRANCH  17  21
ENDBRANCH  16  17
ENDBRANCH   1  16
TORSDOF 6
ENDMDL
