MODEL 1
REMARK VINA RESULT:    -8.929      0.000      0.000
REMARK INTER + INTRA:         -12.367
REMARK INTER:                 -11.539
REMARK INTRA:                  -0.827
REMARK UNBOUND:                -0.827
REMARK  Name = 
REMARK  5 active torsions:
REMARK  status: ('A' for Active; 'I' for Inactive)
REMARK    1  A    between atoms: C_2  and  C_4
REMARK    2  A    between atoms: C_7  and  N_8
REMARK    3  A    between atoms: N_8  and  C_9
REMARK    4  A    between atoms: C_9  and  C_10
REMARK    5  A    between atoms: C_15  and  C_16
REMARK                            x       y       z     vdW  Elec       q    Type
REMARK                         _______ _______ _______ _____ _____    ______ ____
ROOT
ATOM      1  C   UNL     1      43.630   4.546  11.091  0.00  0.00    +0.000 C 
ENDROOT
BRANCH   1   2
ATOM      2  C   UNL     1      44.871   4.904  11.881  0.00  0.00    +0.000 A 
ATOM      3  C   UNL     1      45.382   4.048  12.859  0.00  0.00    +0.000 A 
ATOM      4  C   UNL     1      46.500   4.432  13.597  0.00  0.00    +0.000 A 
ATOM      5  C   UNL     1      47.106   5.669  13.363  0.00  0.00    +0.000 A 
ATOM      6  F   UNL     1      48.160   5.987  14.132  0.00  0.00    +0.000 F 
ATOM      7  C   UNL     1      46.638   6.563  12.386  0.00  0.00    +0.000 A 
ATOM      8  C   UNL     1      45.509   6.145  11.654  0.00  0.00    +0.000 A 
BRANCH   7   9
ATOM      9  C   UNL     1      47.284   7.872  12.119  0.00  0.00    +0.000 A 
ATOM     10  C   UNL     1      48.641   7.963  11.743  0.00  0.00    +0.000 A 
ATOM     11  C   UNL     1      49.261   9.198  11.503  0.00  0.00    +0.000 A 
ATOM     12  C   UNL     1      48.532  10.375  11.622  0.00  0.00    +0.000 A 
ATOM     13  C   UNL     1      47.194  10.306  11.985  0.00  0.00    +0.000 A 
ATOM     14  F   UNL     1      46.485  11.436  12.100  0.00  0.00    +0.000 F 
ATOM     15  C   UNL     1      46.577   9.082  12.239  0.00  0.00    +0.000 A 
ENDBRANCH   7   9
ENDBRANCH   1   2
BRANCH   1  16
ATOM     16  N   UNL     1      43.850   4.908   9.698  0.00  0.00    +0.000 N 
ATOM     17  H   UNL     1      44.124   5.880   9.594  0.00  0.00    +0.000 HD
BRANCH  16  21
ATOM     18  C   UNL     1      46.371   2.308   7.771  0.00  0.00    +0.000 A 
ATOM     19  C   UNL     1      46.443   3.669   7.526  0.00  0.00    +0.000 A 
ATOM     20  N   UNL     1      45.598   4.560   8.112  0.00  0.00    +0.000 NA
ATOM     21  C   UNL     1      44.676   4.058   8.960  0.00  0.00    +0.000 A 
ATOM     22  C   UNL     1      44.620   2.675   9.188  0.00  0.00    +0.000 A 
ATOM     23  N   UNL     1      45.443   1.765   8.603  0.00  0.00    +0.000 NA
BRANCH  18  25
ATOM     24  N   UNL     1      48.435   1.987   6.551  0.00  0.00    +0.000 N 
ATOM     25  C   UNL     1      47.350   1.388   7.133  0.00  0.00    +0.000 C 
ATOM     26  O   UNL     1      47.197   0.174   7.122  0.00  0.00    +0.000 OA
ATOM     27  H   UNL     1      49.129   1.419   6.088  0.00  0.00    +0.000 HD
ATOM     28  H   UNL     1      48.526   2.997   6.567  0.00  0.00    +0.000 HD
ENDBRANCH  18  25
ENDBRANCH  16  21
ENDBRANCH   1  16
TORSDOF 5
ENDMDL
MODEL 2
REMARK VINA RESULT:    -8.499      2.050      4.083
REMARK INTER + INTRA:         -11.811
REMARK INTER:                 -11.561
REMARK INTRA:                  -0.250
REMARK UNBOUND:                -0.827
REMARK  Name = 
REMARK  5 active torsions:
REMARK  status: ('A' for Active; 'I' for Inactive)
REMARK    1  A    between atoms: C_2  and  C_4
REMARK    2  A    between atoms: C_7  and  N_8
REMARK    3  A    between atoms: N_8  and  C_9
REMARK    4  A    between atoms: C_9  and  C_10
REMARK    5  A    between atoms: C_15  and  C_16
REMARK                            x       y       z     vdW  Elec       q    Type
REMARK                         _______ _______ _______ _____ _____    ______ ____
ROOT
ATOM      1  C   UNL     1      44.229   4.545  11.417  0.00  0.00    +0.000 C 
ENDROOT
BRANCH   1   2
ATOM      2  C   UNL     1      45.436   5.248  12.000  0.00  0.00    +0.000 A 
ATOM      3  C   UNL     1      46.128   6.223  11.278  0.00  0.00    +0.000 A 
ATOM      4  C   UNL     1      47.262   6.815  11.831  0.00  0.00    +0.000 A 
ATOM      5  C   UNL     1      47.707   6.436  13.099  0.00  0.00    +0.000 A 
ATOM      6  F   UNL     1      48.823   7.025  13.557  0.00  0.00    +0.000 F 
ATOM      7  C   UNL     1      47.042   5.467  13.871  0.00  0.00    +0.000 A 
ATOM      8  C   UNL     1      45.898   4.889  13.287  0.00  0.00    +0.000 A 
BRANCH   7   9
ATOM      9  C   UNL     1      47.499   5.068  15.226  0.00  0.00    +0.000 A 
ATOM     10  C   UNL     1      48.430   5.842  15.949  0.00  0.00    +0.000 A 
ATOM     11  C   UNL     1      48.876   5.463  17.224  0.00  0.00    +0.000 A 
ATOM     12  C   UNL     1      48.387   4.302  17.813  0.00  0.00    +0.000 A 
ATOM     13  C   UNL     1      47.465   3.531  17.119  0.00  0.00    +0.000 A 
ATOM     14  F   UNL     1      46.989   2.412  17.681  0.00  0.00    +0.000 F 
ATOM     15  C   UNL     1      47.031   3.896  15.845  0.00  0.00    +0.000 A 
ENDBRANCH   7   9
ENDBRANCH   1   2
BRANCH   1  16
ATOM     16  N   UNL     1      44.156   4.854   9.996  0.00  0.00    +0.000 N 
ATOM     17  H   UNL     1      44.339   5.834   9.808  0.00  0.00    +0.000 HD
BRANCH  16  21
ATOM     18  C   UNL     1      46.424   2.308   7.714  0.00  0.00    +0.000 A 
ATOM     19  C   UNL     1      46.421   3.669   7.458  0.00  0.00    +0.000 A 
ATOM     20  N   UNL     1      45.651   4.542   8.163  0.00  0.00    +0.000 NA
ATOM     21  C   UNL     1      44.883   4.021   9.143  0.00  0.00    +0.000 A 
ATOM     22  C   UNL     1      44.900   2.638   9.380  0.00  0.00    +0.000 A 
ATOM     23  N   UNL     1      45.648   1.747   8.680  0.00  0.00    +0.000 NA
BRANCH  18  25
ATOM     24  N   UNL     1      48.427   2.002   6.394  0.00  0.00    +0.000 N 
ATOM     25  C   UNL     1      47.319   1.410   6.937  0.00  0.00    +0.000 C 
ATOM     26  O   UNL     1      47.082   0.219   6.787  0.00  0.00    +0.000 OA
ATOM     27  H   UNL     1      49.068   1.451   5.842  0.00  0.00    +0.000 HD
ATOM     28  H   UNL     1      48.588   2.995   6.527  0.00  0.00    +0.000 HD
ENDBRANCH  18  25
ENDBRANCH  16  21
ENDBRANCH   1  16
TORSDOF 5
ENDMDL
MODEL 3
REMARK VINA RESULT:    -8.029      4.503      7.432
REMARK INTER + INTRA:         -11.204
REMARK INTER:                 -10.707
REMARK INTRA:                  -0.497
REMARK UNBOUND:                -0.827
REMARK  Name = 
REMARK  5 active torsions:
REMARK  status: ('A' for Active; 'I' for Inactive)
REMARK    1  A    between atoms: C_2  and  C_4
REMARK    2  A    between atoms: C_7  and  N_8
REMARK    3  A    between atoms: N_8  and  C_9
REMARK    4  A    between atoms: C_9  and  C_10
REMARK    5  A    between atoms: C_15  and  C_16
REMARK                            x       y       z     vdW  Elec       q    Type
REMARK                         _______ _______ _______ _____ _____    ______ ____
ROOT
ATOM      1  C   UNL     1      44.894   7.059  11.304  0.00  0.00    +0.000 C 
ENDROOT
BRANCH   1   2
ATOM      2  C   UNL     1      44.562   5.621  10.967  0.00  0.00    +0.000 A 
ATOM      3  C   UNL     1      43.616   4.902  11.702  0.00  0.00    +0.000 A 
ATOM      4  C   UNL     1      43.370   3.566  11.390  0.00  0.00    +0.000 A 
ATOM      5  C   UNL     1      44.068   2.946  10.352  0.00  0.00    +0.000 A 
ATOM      6  F   UNL     1      43.803   1.649  10.127  0.00  0.00    +0.000 F 
ATOM      7  C   UNL     1      45.022   3.626   9.576  0.00  0.00    +0.000 A 
ATOM      8  C   UNL     1      45.247   4.975   9.913  0.00  0.00    +0.000 A 
BRANCH   7   9
ATOM      9  C   UNL     1      45.758   2.980   8.460  0.00  0.00    +0.000 A 
ATOM     10  C   UNL     1      46.178   3.712   7.330  0.00  0.00    +0.000 A 
ATOM     11  C   UNL     1      46.861   3.105   6.266  0.00  0.00    +0.000 A 
ATOM     12  C   UNL     1      47.153   1.747   6.315  0.00  0.00    +0.000 A 
ATOM     13  C   UNL     1      46.754   1.011   7.421  0.00  0.00    +0.000 A 
ATOM     14  F   UNL     1      47.033  -0.298   7.475  0.00  0.00    +0.000 F 
ATOM     15  C   UNL     1      46.061   1.607   8.474  0.00  0.00    +0.000 A 
ENDBRANCH   7   9
ENDBRANCH   1   2
BRANCH   1  16
ATOM     16  N   UNL     1      45.082   7.164  12.744  0.00  0.00    +0.000 N 
ATOM     17  H   UNL     1      44.522   6.489  13.253  0.00  0.00    +0.000 HD
BRANCH  16  21
ATOM     18  C   UNL     1      48.876   7.096  14.303  0.00  0.00    +0.000 A 
ATOM     19  C   UNL     1      48.292   8.293  13.925  0.00  0.00    +0.000 A 
ATOM     20  N   UNL     1      47.053   8.355  13.366  0.00  0.00    +0.000 NA
ATOM     21  C   UNL     1      46.402   7.185  13.196  0.00  0.00    +0.000 A 
ATOM     22  C   UNL     1      47.017   5.984  13.582  0.00  0.00    +0.000 A 
ATOM     23  N   UNL     1      48.258   5.897  14.129  0.00  0.00    +0.000 NA
BRANCH  18  25
ATOM     24  N   UNL     1      51.171   7.859  14.333  0.00  0.00    +0.000 N 
ATOM     25  C   UNL     1      50.216   7.096  14.949  0.00  0.00    +0.000 C 
ATOM     26  O   UNL     1      50.453   6.454  15.963  0.00  0.00    +0.000 OA
ATOM     27  H   UNL     1      52.105   7.890  14.713  0.00  0.00    +0.000 HD
ATOM     28  H   UNL     1      50.944   8.369  13.487  0.00  0.00    +0.000 HD
ENDBRANCH  18  25
ENDBRANCH  16  21
ENDBRANCH   1  16
TORSDOF 5
ENDMDL
MODEL 4
REMARK VINA RESULT:    -7.992      1.621      2.718
REMARK INTER + INTRA:         -11.155
REMARK INTER:                 -10.314
REMARK INTRA:                  -0.841
REMARK UNBOUND:                -0.827
REMARK  Name = 
REMARK  5 active torsions:
REMARK  status: ('A' for Active; 'I' for Inactive)
REMARK    1  A    between atoms: C_2  and  C_4
REMARK    2  A    between atoms: C_7  and  N_8
REMARK    3  A    between atoms: N_8  and  C_9
REMARK    4  A    between atoms: C_9  and  C_10
REMARK    5  A    between atoms: C_15  and  C_16
REMARK                            x       y       z     vdW  Elec       q    Type
REMARK                         _______ _______ _______ _____ _____    ______ ____
ROOT
ATOM      1  C   UNL     1      44.353   3.495  11.659  0.00  0.00    +0.000 C 
ENDROOT
BRANCH   1   2
ATOM      2  C   UNL     1      44.671   4.973  11.734  0.00  0.00    +0.000 A 
ATOM      3  C   UNL     1      43.720   5.939  11.398  0.00  0.00    +0.000 A 
ATOM      4  C   UNL     1      44.065   7.289  11.436  0.00  0.00    +0.000 A 
ATOM      5  C   UNL     1      45.355   7.675  11.805  0.00  0.00    +0.000 A 
ATOM      6  F   UNL     1      45.627   8.991  11.791  0.00  0.00    +0.000 F 
ATOM      7  C   UNL     1      46.346   6.745  12.162  0.00  0.00    +0.000 A 
ATOM      8  C   UNL     1      45.967   5.389  12.116  0.00  0.00    +0.000 A 
BRANCH   7   9
ATOM      9  C   UNL     1      47.716   7.146  12.570  0.00  0.00    +0.000 A 
ATOM     10  C   UNL     1      48.629   7.702  11.649  0.00  0.00    +0.000 A 
ATOM     11  C   UNL     1      49.928   8.071  12.025  0.00  0.00    +0.000 A 
ATOM     12  C   UNL     1      50.342   7.904  13.342  0.00  0.00    +0.000 A 
ATOM     13  C   UNL     1      49.457   7.365  14.264  0.00  0.00    +0.000 A 
ATOM     14  F   UNL     1      49.849   7.202  15.535  0.00  0.00    +0.000 F 
ATOM     15  C   UNL     1      48.169   6.982  13.891  0.00  0.00    +0.000 A 
ENDBRANCH   7   9
ENDBRANCH   1   2
BRANCH   1  16
ATOM     16  N   UNL     1      43.883   3.192  10.315  0.00  0.00    +0.000 N 
ATOM     17  H   UNL     1      43.186   3.856   9.995  0.00  0.00    +0.000 HD
BRANCH  16  21
ATOM     18  C   UNL     1      46.593   2.629   7.287  0.00  0.00    +0.000 A 
ATOM     19  C   UNL     1      46.256   1.586   8.133  0.00  0.00    +0.000 A 
ATOM     20  N   UNL     1      45.395   1.741   9.174  0.00  0.00    +0.000 NA
ATOM     21  C   UNL     1      44.867   2.971   9.350  0.00  0.00    +0.000 A 
ATOM     22  C   UNL     1      45.227   4.013   8.481  0.00  0.00    +0.000 A 
ATOM     23  N   UNL     1      46.096   3.885   7.445  0.00  0.00    +0.000 NA
BRANCH  18  25
ATOM     24  N   UNL     1      47.345   3.219   5.065  0.00  0.00    +0.000 N 
ATOM     25  C   UNL     1      47.508   2.387   6.139  0.00  0.00    +0.000 C 
ATOM     26  O   UNL     1      48.349   1.498   6.149  0.00  0.00    +0.000 OA
ATOM     27  H   UNL     1      47.925   3.098   4.248  0.00  0.00    +0.000 HD
ATOM     28  H   UNL     1      46.630   3.938   5.084  0.00  0.00    +0.000 HD
ENDBRANCH  18  25
ENDBRANCH  16  21
ENDBRANCH   1  16
TORSDOF 5
ENDMDL
MODEL 5
REMARK VINA RESULT:    -7.865      1.651      2.727
REMARK INTER + INTRA:         -10.991
REMARK INTER:                 -10.152
REMARK INTRA:                  -0.839
REMARK UNBOUND:                -0.827
REMARK  Name = 
REMARK  5 active torsions:
REMARK  status: ('A' for Active; 'I' for Inactive)
REMARK    1  A    between atoms: C_2  and  C_4
REMARK    2  A    between atoms: C_7  and  N_8
REMARK    3  A    between atoms: N_8  and  C_9
REMARK    4  A    between atoms: C_9  and  C_10
REMARK    5  A    between atoms: C_15  and  C_16
REMARK                            x       y       z     vdW  Elec       q    Type
REMARK                         _______ _______ _______ _____ _____    ______ ____
ROOT
ATOM      1  C   UNL     1      44.712   5.136  11.291  0.00  0.00    +0.000 C 
ENDROOT
BRANCH   1   2
ATOM      2  C   UNL     1      45.260   6.518  11.573  0.00  0.00    +0.000 A 
ATOM      3  C   UNL     1      44.454   7.655  11.470  0.00  0.00    +0.000 A 
ATOM      4  C   UNL     1      45.006   8.914  11.694  0.00  0.00    +0.000 A 
ATOM      5  C   UNL     1      46.359   9.043  12.017  0.00  0.00    +0.000 A 
ATOM      6  F   UNL     1      46.831  10.288  12.188  0.00  0.00    +0.000 F 
ATOM      7  C   UNL     1      47.211   7.932  12.142  0.00  0.00    +0.000 A 
ATOM      8  C   UNL     1      46.624   6.672  11.913  0.00  0.00    +0.000 A 
BRANCH   7   9
ATOM      9  C   UNL     1      48.646   8.057  12.500  0.00  0.00    +0.000 A 
ATOM     10  C   UNL     1      49.092   7.902  13.830  0.00  0.00    +0.000 A 
ATOM     11  C   UNL     1      50.445   8.032  14.176  0.00  0.00    +0.000 A 
ATOM     12  C   UNL     1      51.389   8.309  13.194  0.00  0.00    +0.000 A 
ATOM     13  C   UNL     1      50.971   8.459  11.880  0.00  0.00    +0.000 A 
ATOM     14  F   UNL     1      51.875   8.724  10.928  0.00  0.00    +0.000 F 
ATOM     15  C   UNL     1      49.625   8.345  11.533  0.00  0.00    +0.000 A 
ENDBRANCH   7   9
ENDBRANCH   1   2
BRANCH   1  16
ATOM     16  N   UNL     1      44.291   5.082   9.898  0.00  0.00    +0.000 N 
ATOM     17  H   UNL     1      44.203   6.006   9.489  0.00  0.00    +0.000 HD
BRANCH  16  21
ATOM     18  C   UNL     1      46.507   2.430   7.687  0.00  0.00    +0.000 A 
ATOM     19  C   UNL     1      46.609   3.792   7.461  0.00  0.00    +0.000 A 
ATOM     20  N   UNL     1      45.861   4.702   8.142  0.00  0.00    +0.000 NA
ATOM     21  C   UNL     1      45.007   4.217   9.068  0.00  0.00    +0.000 A 
ATOM     22  C   UNL     1      44.919   2.832   9.276  0.00  0.00    +0.000 A 
ATOM     23  N   UNL     1      45.644   1.905   8.597  0.00  0.00    +0.000 NA
BRANCH  18  25
ATOM     24  N   UNL     1      48.505   2.036   6.382  0.00  0.00    +0.000 N 
ATOM     25  C   UNL     1      47.383   1.487   6.940  0.00  0.00    +0.000 C 
ATOM     26  O   UNL     1      47.117   0.298   6.826  0.00  0.00    +0.000 OA
ATOM     27  H   UNL     1      49.133   1.453   5.849  0.00  0.00    +0.000 HD
ATOM     28  H   UNL     1      48.690   3.028   6.485  0.00  0.00    +0.000 HD
ENDBRANCH  18  25
ENDBRANCH  16  21
ENDBRANCH   1  16
TORSDOF 5
ENDMDL
MODEL 6
REMARK VINA RESULT:    -7.820      4.578      7.452
REMARK INTER + INTRA:         -10.934
REMARK INTER:                 -10.684
REMARK INTRA:                  -0.250
REMARK UNBOUND:                -0.827
REMARK  Name = 
REMARK  5 active torsions:
REMARK  status: ('A' for Active; 'I' for Inactive)
REMARK    1  A    between atoms: C_2  and  C_4
REMARK    2  A    between atoms: C_7  and  N_8
REMARK    3  A    between atoms: N_8  and  C_9
REMARK    4  A    between atoms: C_9  and  C_10
REMARK    5  A    between atoms: C_15  and  C_16
REMARK                            x       y       z     vdW  Elec       q    Type
REMARK                         _______ _______ _______ _____ _____    ______ ____
ROOT
ATOM      1  C   UNL     1      45.522   6.415  12.288  0.00  0.00    +0.000 C 
ENDROOT
BRANCH   1   2
ATOM      2  C   UNL     1      44.948   5.179  11.630  0.00  0.00    +0.000 A 
ATOM      3  C   UNL     1      43.845   4.513  12.170  0.00  0.00    +0.000 A 
ATOM      4  C   UNL     1      43.374   3.352  11.560  0.00  0.00    +0.000 A 
ATOM      5  C   UNL     1      44.002   2.853  10.417  0.00  0.00    +0.000 A 
ATOM      6  F   UNL     1      43.514   1.713   9.900  0.00  0.00    +0.000 F 
ATOM      7  C   UNL     1      45.108   3.488   9.829  0.00  0.00    +0.000 A 
ATOM      8  C   UNL     1      45.560   4.661  10.465  0.00  0.00    +0.000 A 
BRANCH   7   9
ATOM      9  C   UNL     1      45.773   2.974   8.605  0.00  0.00    +0.000 A 
ATOM     10  C   UNL     1      46.138   3.832   7.546  0.00  0.00    +0.000 A 
ATOM     11  C   UNL     1      46.754   3.351   6.382  0.00  0.00    +0.000 A 
ATOM     12  C   UNL     1      47.032   1.995   6.254  0.00  0.00    +0.000 A 
ATOM     13  C   UNL     1      46.685   1.135   7.287  0.00  0.00    +0.000 A 
ATOM     14  F   UNL     1      46.951  -0.172   7.172  0.00  0.00    +0.000 F 
ATOM     15  C   UNL     1      46.059   1.607   8.440  0.00  0.00    +0.000 A 
ENDBRANCH   7   9
ENDBRANCH   1   2
BRANCH   1  16
ATOM     16  N   UNL     1      46.952   6.215  12.479  0.00  0.00    +0.000 N 
ATOM     17  H   UNL     1      47.475   7.079  12.388  0.00  0.00    +0.000 HD
BRANCH  16  21
ATOM     18  C   UNL     1      47.797   4.044  15.856  0.00  0.00    +0.000 A 
ATOM     19  C   UNL     1      48.134   5.385  15.778  0.00  0.00    +0.000 A 
ATOM     20  N   UNL     1      47.910   6.130  14.662  0.00  0.00    +0.000 NA
ATOM     21  C   UNL     1      47.330   5.501  13.618  0.00  0.00    +0.000 A 
ATOM     22  C   UNL     1      47.002   4.141  13.720  0.00  0.00    +0.000 A 
ATOM     23  N   UNL     1      47.230   3.374  14.818  0.00  0.00    +0.000 NA
BRANCH  18  25
ATOM     24  N   UNL     1      46.909   2.788  17.722  0.00  0.00    +0.000 N 
ATOM     25  C   UNL     1      48.029   3.294  17.120  0.00  0.00    +0.000 C 
ATOM     26  O   UNL     1      49.146   3.141  17.595  0.00  0.00    +0.000 OA
ATOM     27  H   UNL     1      46.996   2.281  18.591  0.00  0.00    +0.000 HD
ATOM     28  H   UNL     1      45.996   2.943  17.309  0.00  0.00    +0.000 HD
ENDBRANCH  18  25
ENDBRANCH  16  21
ENDBRANCH   1  16
TORSDOF 5
ENDMDL
MODEL 7
REMARK VINA RESULT:    -7.154      4.831      7.695
REMARK INTER + INTRA:         -10.072
REMARK INTER:                  -9.230
REMARK INTRA:                  -0.843
REMARK UNBOUND:                -0.827
REMARK  Name = 
REMARK  5 active torsions:
REMARK  status: ('A' for Active; 'I' for Inactive)
REMARK    1  A    between atoms: C_2  and  C_4
REMARK    2  A    between atoms: C_7  and  N_8
REMARK    3  A    between atoms: N_8  and  C_9
REMARK    4  A    between atoms: C_9  and  C_10
REMARK    5  A    between atoms: C_15  and  C_16
REMARK                            x       y       z     vdW  Elec       q    Type
REMARK                         _______ _______ _______ _____ _____    ______ ____
ROOT
ATOM      1  C   UNL     1      48.612   8.017  12.723  0.00  0.00    +0.000 C 
ENDROOT
BRANCH   1   2
ATOM      2  C   UNL     1      47.189   7.791  12.257  0.00  0.00    +0.000 A 
ATOM      3  C   UNL     1      46.172   8.700  12.559  0.00  0.00    +0.000 A 
ATOM      4  C   UNL     1      44.867   8.434  12.151  0.00  0.00    +0.000 A 
ATOM      5  C   UNL     1      44.573   7.264  11.447  0.00  0.00    +0.000 A 
ATOM      6  F   UNL     1      43.289   7.058  11.113  0.00  0.00    +0.000 F 
ATOM      7  C   UNL     1      45.560   6.322  11.110  0.00  0.00    +0.000 A 
ATOM      8  C   UNL     1      46.870   6.620  11.532  0.00  0.00    +0.000 A 
BRANCH   7   9
ATOM      9  C   UNL     1      45.261   5.084  10.348  0.00  0.00    +0.000 A 
ATOM     10  C   UNL     1      44.591   3.994  10.943  0.00  0.00    +0.000 A 
ATOM     11  C   UNL     1      44.318   2.816  10.233  0.00  0.00    +0.000 A 
ATOM     12  C   UNL     1      44.698   2.706   8.901  0.00  0.00    +0.000 A 
ATOM     13  C   UNL     1      45.352   3.769   8.296  0.00  0.00    +0.000 A 
ATOM     14  F   UNL     1      45.719   3.670   7.012  0.00  0.00    +0.000 F 
ATOM     15  C   UNL     1      45.639   4.936   9.002  0.00  0.00    +0.000 A 
ENDBRANCH   7   9
ENDBRANCH   1   2
BRANCH   1  16
ATOM     16  N   UNL     1      49.147   6.750  13.201  0.00  0.00    +0.000 N 
ATOM     17  H   UNL     1      50.158   6.706  13.118  0.00  0.00    +0.000 HD
BRANCH  16  21
ATOM     18  C   UNL     1      48.142   5.494  16.974  0.00  0.00    +0.000 A 
ATOM     19  C   UNL     1      47.677   4.817  15.860  0.00  0.00    +0.000 A 
ATOM     20  N   UNL     1      47.952   5.224  14.591  0.00  0.00    +0.000 NA
ATOM     21  C   UNL     1      48.714   6.330  14.459  0.00  0.00    +0.000 A 
ATOM     22  C   UNL     1      49.170   7.001  15.605  0.00  0.00    +0.000 A 
ATOM     23  N   UNL     1      48.895   6.622  16.879  0.00  0.00    +0.000 NA
BRANCH  18  25
ATOM     24  N   UNL     1      46.646   5.367  18.871  0.00  0.00    +0.000 N 
ATOM     25  C   UNL     1      47.843   4.974  18.336  0.00  0.00    +0.000 C 
ATOM     26  O   UNL     1      48.616   4.246  18.943  0.00  0.00    +0.000 OA
ATOM     27  H   UNL     1      46.390   5.062  19.798  0.00  0.00    +0.000 HD
ATOM     28  H   UNL     1      46.033   5.982  18.347  0.00  0.00    +0.000 HD
ENDBRANCH  18  25
ENDBRANCH  16  21
ENDBRANCH   1  16
TORSDOF 5
ENDMDL
MODEL 8
REMARK VINA RESULT:    -7.062      4.818      7.590
REMARK INTER + INTRA:          -9.954
REMARK INTER:                  -9.486
REMARK INTRA:                  -0.468
REMARK UNBOUND:                -0.827
REMARK  Name = 
REMARK  5 active torsions:
REMARK  status: ('A' for Active; 'I' for Inactive)
REMARK    1  A    between atoms: C_2  and  C_4
REMARK    2  A    between atoms: C_7  and  N_8
REMARK    3  A    between atoms: N_8  and  C_9
REMARK    4  A    between atoms: C_9  and  C_10
REMARK    5  A    between atoms: C_15  and  C_16
REMARK                            x       y       z     vdW  Elec       q    Type
REMARK                         _______ _______ _______ _____ _____    ______ ____
ROOT
ATOM      1  C   UNL     1      49.179   7.476  13.474  0.00  0.00    +0.000 C 
ENDROOT
BRANCH   1   2
ATOM      2  C   UNL     1      47.807   7.607  12.849  0.00  0.00    +0.000 A 
ATOM      3  C   UNL     1      47.020   8.743  13.052  0.00  0.00    +0.000 A 
ATOM      4  C   UNL     1      45.744   8.806  12.497  0.00  0.00    +0.000 A 
ATOM      5  C   UNL     1      45.250   7.739  11.743  0.00  0.00    +0.000 A 
ATOM      6  F   UNL     1      44.000   7.855  11.265  0.00  0.00    +0.000 F 
ATOM      7  C   UNL     1      46.003   6.578  11.501  0.00  0.00    +0.000 A 
ATOM      8  C   UNL     1      47.290   6.544  12.072  0.00  0.00    +0.000 A 
BRANCH   7   9
ATOM      9  C   UNL     1      45.493   5.445  10.688  0.00  0.00    +0.000 A 
ATOM     10  C   UNL     1      45.788   5.330   9.313  0.00  0.00    +0.000 A 
ATOM     11  C   UNL     1      45.298   4.270   8.537  0.00  0.00    +0.000 A 
ATOM     12  C   UNL     1      44.509   3.287   9.125  0.00  0.00    +0.000 A 
ATOM     13  C   UNL     1      44.214   3.379  10.477  0.00  0.00    +0.000 A 
ATOM     14  F   UNL     1      43.456   2.435  11.050  0.00  0.00    +0.000 F 
ATOM     15  C   UNL     1      44.686   4.440  11.249  0.00  0.00    +0.000 A 
ENDBRANCH   7   9
ENDBRANCH   1   2
BRANCH   1  16
ATOM     16  N   UNL     1      49.056   7.695  14.908  0.00  0.00    +0.000 N 
ATOM     17  H   UNL     1      48.553   8.550  15.122  0.00  0.00    +0.000 HD
BRANCH  16  21
ATOM     18  C   UNL     1      47.925   4.507  17.229  0.00  0.00    +0.000 A 
ATOM     19  C   UNL     1      47.766   4.468  15.854  0.00  0.00    +0.000 A 
ATOM     20  N   UNL     1      48.088   5.519  15.053  0.00  0.00    +0.000 NA
ATOM     21  C   UNL     1      48.584   6.618  15.660  0.00  0.00    +0.000 A 
ATOM     22  C   UNL     1      48.732   6.634  17.056  0.00  0.00    +0.000 A 
ATOM     23  N   UNL     1      48.402   5.604  17.877  0.00  0.00    +0.000 NA
BRANCH  18  25
ATOM     24  N   UNL     1      48.354   3.132  19.172  0.00  0.00    +0.000 N 
ATOM     25  C   UNL     1      47.594   3.310  18.048  0.00  0.00    +0.000 C 
ATOM     26  O   UNL     1      46.704   2.530  17.737  0.00  0.00    +0.000 OA
ATOM     27  H   UNL     1      48.190   2.330  19.763  0.00  0.00    +0.000 HD
ATOM     28  H   UNL     1      49.093   3.790  19.395  0.00  0.00    +0.000 HD
ENDBRANCH  18  25
ENDBRANCH  16  21
ENDBRANCH   1  16
TORSDOF 5
ENDMDL
MODEL 9
REMARK VINA RESULT:    -6.666      5.811      8.213
REMARK INTER + INTRA:          -9.443
REMARK INTER:                  -8.741
REMARK INTRA:                  -0.701
REMARK UNBOUND:                -0.827
REMARK  Name = 
REMARK  5 active torsions:
REMARK  status: ('A' for Active; 'I' for Inactive)
REMARK    1  A    between atoms: C_2  and  C_4
REMARK    2  A    between atoms: C_7  and  N_8
REMARK    3  A    between atoms: N_8  and  C_9
REMARK    4  A    between atoms: C_9  and  C_10
REMARK    5  A    between atoms: C_15  and  C_16
REMARK                            x       y       z     vdW  Elec       q    Type
REMARK                         _______ _______ _______ _____ _____    ______ ____
ROOT
ATOM      1  C   UNL     1      48.387   7.103  14.301  0.00  0.00    +0.000 C 
ENDROOT
BRANCH   1   2
ATOM      2  C   UNL     1      47.212   7.297  13.368  0.00  0.00    +0.000 A 
ATOM      3  C   UNL     1      46.515   8.507  13.316  0.00  0.00    +0.000 A 
ATOM      4  C   UNL     1      45.411   8.631  12.477  0.00  0.00    +0.000 A 
ATOM      5  C   UNL     1      44.997   7.552  11.692  0.00  0.00    +0.000 A 
ATOM      6  F   UNL     1      43.906   7.734  10.930  0.00  0.00    +0.000 F 
ATOM      7  C   UNL     1      45.667   6.317  11.699  0.00  0.00    +0.000 A 
ATOM      8  C   UNL     1      46.782   6.222  12.555  0.00  0.00    +0.000 A 
BRANCH   7   9
ATOM      9  C   UNL     1      45.245   5.170  10.858  0.00  0.00    +0.000 A 
ATOM     10  C   UNL     1      44.475   4.111  11.384  0.00  0.00    +0.000 A 
ATOM     11  C   UNL     1      44.085   3.017  10.598  0.00  0.00    +0.000 A 
ATOM     12  C   UNL     1      44.446   2.964   9.257  0.00  0.00    +0.000 A 
ATOM     13  C   UNL     1      45.198   3.998   8.719  0.00  0.00    +0.000 A 
ATOM     14  F   UNL     1      45.548   3.954   7.427  0.00  0.00    +0.000 F 
ATOM     15  C   UNL     1      45.601   5.080   9.501  0.00  0.00    +0.000 A 
ENDBRANCH   7   9
ENDBRANCH   1   2
BRANCH   1  16
ATOM     16  N   UNL     1      47.925   6.388  15.483  0.00  0.00    +0.000 N 
ATOM     17  H   UNL     1      47.174   5.741  15.269  0.00  0.00    +0.000 HD
BRANCH  16  21
ATOM     18  C   UNL     1      50.688   4.728  18.020  0.00  0.00    +0.000 A 
ATOM     19  C   UNL     1      51.083   5.612  17.031  0.00  0.00    +0.000 A 
ATOM     20  N   UNL     1      50.206   6.152  16.143  0.00  0.00    +0.000 NA
ATOM     21  C   UNL     1      48.911   5.791  16.270  0.00  0.00    +0.000 A 
ATOM     22  C   UNL     1      48.536   4.890  17.278  0.00  0.00    +0.000 A 
ATOM     23  N   UNL     1      49.397   4.327  18.166  0.00  0.00    +0.000 NA
BRANCH  18  25
ATOM     24  N   UNL     1      52.242   2.993  18.673  0.00  0.00    +0.000 N 
ATOM     25  C   UNL     1      51.688   4.204  18.989  0.00  0.00    +0.000 C 
ATOM     26  O   UNL     1      51.995   4.812  20.006  0.00  0.00    +0.000 OA
ATOM     27  H   UNL     1      52.917   2.575  19.297  0.00  0.00    +0.000 HD
ATOM     28  H   UNL     1      51.956   2.509  17.829  0.00  0.00    +0.000 HD
ENDBRANCH  18  25
ENDBRANCH  16  21
ENDBRANCH   1  16
TORSDOF 5
ENDMDL
