MODEL 1
REMARK VINA RESULT:    -7.467      0.000      0.000
REMARK INTER + INTRA:         -12.216
REMARK INTER:                 -10.960
REMARK INTRA:                  -1.256
REMARK UNBOUND:                -1.256
REMARK  Name = 
REMARK  10 active torsions:
REMARK  status: ('A' for Active; 'I' for Inactive)
REMARK    1  A    between atoms: C_1  and  C_2
REMARK    2  A    between atoms: C_2  and  C_3
REMARK    3  A    between atoms: C_3  and  N_4
REMARK    4  A    between atoms: C_10  and  C_11
REMARK    5  A    between atoms: N_13  and  C_14
REMARK    6  A    between atoms: C_14  and  C_15
REMARK    7  A    between atoms: C_18  and  C_19
REMARK    8  A    between atoms: C_19  and  N_20
REMARK    9  A    between atoms: C_21  and  C_23
REMARK   10  A    between atoms: N_27  and  C_28
REMARK                            x       y       z     vdW  Elec       q    Type
REMARK                         _______ _______ _______ _____ _____    ______ ____
ROOT
ATOM      1  C   UNL     1      46.585   8.435  12.998  0.00  0.00    +0.000 C 
ENDROOT
BRANCH   1   2
ATOM      2  C   UNL     1      45.922   7.161  12.530  0.00  0.00    +0.000 A 
ATOM      3  C   UNL     1      44.830   7.213  11.649  0.00  0.00    +0.000 A 
ATOM      4  C   UNL     1      44.212   6.039  11.194  0.00  0.00    +0.000 A 
ATOM      5  C   UNL     1      44.654   4.787  11.642  0.00  0.00    +0.000 A 
ATOM      6  C   UNL     1      45.733   4.738  12.533  0.00  0.00    +0.000 A 
ATOM      7  C   UNL     1      46.364   5.908  12.971  0.00  0.00    +0.000 A 
BRANCH   5   8
ATOM      8  C   UNL     1      44.011   3.508  11.176  0.00  0.00    +0.000 C 
BRANCH   8   9
ATOM      9  N   UNL     1      44.888   2.754  10.317  0.00  0.00    +0.000 N 
ATOM     10  C   UNL     1      44.903   2.970   8.955  0.00  0.00    +0.000 C 
ATOM     11  O   UNL     1      44.171   3.799   8.423  0.00  0.00    +0.000 OA
ATOM     12  H   UNL     1      45.531   2.104  10.743  0.00  0.00    +0.000 HD
BRANCH  10  13
ATOM     13  C   UNL     1      45.856   2.150   8.225  0.00  0.00    +0.000 A 
ATOM     14  C   UNL     1      46.013   0.771   8.183  0.00  0.00    +0.000 A 
ATOM     15  C   UNL     1      47.090   0.541   7.315  0.00  0.00    +0.000 A 
ATOM     16  N   UNL     1      47.585   1.671   6.820  0.00  0.00    +0.000 NA
ATOM     17  N   UNL     1      46.829   2.635   7.390  0.00  0.00    +0.000 N 
ATOM     18  C   UNL     1      47.124   4.020   7.097  0.00  0.00    +0.000 C 
ENDBRANCH  10  13
ENDBRANCH   8   9
ENDBRANCH   5   8
ENDBRANCH   1   2
BRANCH   1  21
ATOM     19  C   UNL     1      48.315   8.754  14.713  0.00  0.00    +0.000 C 
ATOM     20  O   UNL     1      49.151   9.104  13.886  0.00  0.00    +0.000 OA
ATOM     21  N   UNL     1      47.054   8.331  14.356  0.00  0.00    +0.000 N 
ATOM     22  H   UNL     1      46.332   8.347  15.065  0.00  0.00    +0.000 HD
BRANCH  19  29
ATOM     23  N   UNL     1      49.453   5.367  17.700  0.00  0.00    +0.000 N 
ATOM     24  C   UNL     1      49.660   5.876  18.967  0.00  0.00    +0.000 A 
ATOM     25  N   UNL     1      49.544   7.118  19.312  0.00  0.00    +0.000 NA
ATOM     26  C   UNL     1      49.195   7.953  18.301  0.00  0.00    +0.000 A 
ATOM     27  S   UNL     1      48.995   9.624  18.557  0.00  0.00    +0.000 S 
ATOM     28  C   UNL     1      48.580   9.886  16.917  0.00  0.00    +0.000 A 
ATOM     29  C   UNL     1      48.614   8.727  16.152  0.00  0.00    +0.000 A 
ATOM     30  C   UNL     1      48.954   7.601  16.990  0.00  0.00    +0.000 A 
ATOM     31  C   UNL     1      49.063   6.192  16.654  0.00  0.00    +0.000 A 
ATOM     32  O   UNL     1      48.847   5.768  15.522  0.00  0.00    +0.000 OA
BRANCH  23  33
ATOM     33  C   UNL     1      49.658   3.949  17.429  0.00  0.00    +0.000 C 
BRANCH  33  35
ATOM     34  C   UNL     1      47.173   3.320  17.396  0.00  0.00    +0.000 C 
ATOM     35  C   UNL     1      48.550   3.048  17.984  0.00  0.00    +0.000 C 
ENDBRANCH  33  35
ENDBRANCH  23  33
ENDBRANCH  19  29
ENDBRANCH   1  21
TORSDOF 8
ENDMDL
MODEL 2
REMARK VINA RESULT:    -7.428      3.088      9.311
REMARK INTER + INTRA:         -12.158
REMARK INTER:                 -10.891
REMARK INTRA:                  -1.267
REMARK UNBOUND:                -1.256
REMARK  Name = 
REMARK  10 active torsions:
REMARK  status: ('A' for Active; 'I' for Inactive)
REMARK    1  A    between atoms: C_1  and  C_2
REMARK    2  A    between atoms: C_2  and  C_3
REMARK    3  A    between atoms: C_3  and  N_4
REMARK    4  A    between atoms: C_10  and  C_11
REMARK    5  A    between atoms: N_13  and  C_14
REMARK    6  A    between atoms: C_14  and  C_15
REMARK    7  A    between atoms: C_18  and  C_19
REMARK    8  A    between atoms: C_19  and  N_20
REMARK    9  A    between atoms: C_21  and  C_23
REMARK   10  A    between atoms: N_27  and  C_28
REMARK                            x       y       z     vdW  Elec       q    Type
REMARK                         _______ _______ _______ _____ _____    ______ ____
ROOT
ATOM      1  C   UNL     1      47.551   7.534  11.978  0.00  0.00    +0.000 C 
ENDROOT
BRANCH   1   2
ATOM      2  C   UNL     1      48.525   7.449  13.130  0.00  0.00    +0.000 A 
ATOM      3  C   UNL     1      48.170   6.776  14.310  0.00  0.00    +0.000 A 
ATOM      4  C   UNL     1      49.068   6.676  15.382  0.00  0.00    +0.000 A 
ATOM      5  C   UNL     1      50.330   7.279  15.307  0.00  0.00    +0.000 A 
ATOM      6  C   UNL     1      50.677   7.962  14.136  0.00  0.00    +0.000 A 
ATOM      7  C   UNL     1      49.789   8.046  13.056  0.00  0.00    +0.000 A 
BRANCH   5   8
ATOM      8  C   UNL     1      51.316   7.192  16.442  0.00  0.00    +0.000 C 
BRANCH   8   9
ATOM      9  N   UNL     1      51.763   5.839  16.656  0.00  0.00    +0.000 N 
ATOM     10  C   UNL     1      51.317   5.110  17.738  0.00  0.00    +0.000 C 
ATOM     11  O   UNL     1      50.536   5.581  18.559  0.00  0.00    +0.000 OA
ATOM     12  H   UNL     1      52.365   5.419  15.965  0.00  0.00    +0.000 HD
BRANCH  10  13
ATOM     13  C   UNL     1      51.837   3.754  17.806  0.00  0.00    +0.000 A 
ATOM     14  C   UNL     1      53.103   3.289  18.136  0.00  0.00    +0.000 A 
ATOM     15  C   UNL     1      53.030   1.892  18.035  0.00  0.00    +0.000 A 
ATOM     16  N   UNL     1      51.816   1.478  17.686  0.00  0.00    +0.000 NA
ATOM     17  N   UNL     1      51.110   2.622  17.544  0.00  0.00    +0.000 N 
ATOM     18  C   UNL     1      49.729   2.543  17.124  0.00  0.00    +0.000 C 
ENDBRANCH  10  13
ENDBRANCH   8   9
ENDBRANCH   5   8
ENDBRANCH   1   2
BRANCH   1  21
ATOM     19  C   UNL     1      45.425   6.322  11.768  0.00  0.00    +0.000 C 
ATOM     20  O   UNL     1      44.762   7.328  12.002  0.00  0.00    +0.000 OA
ATOM     21  N   UNL     1      46.801   6.316  11.815  0.00  0.00    +0.000 N 
ATOM     22  H   UNL     1      47.287   5.570  11.331  0.00  0.00    +0.000 HD
BRANCH  19  29
ATOM     23  N   UNL     1      45.512   3.517   8.051  0.00  0.00    +0.000 N 
ATOM     24  C   UNL     1      44.748   2.388   8.268  0.00  0.00    +0.000 A 
ATOM     25  N   UNL     1      44.074   2.125   9.340  0.00  0.00    +0.000 NA
ATOM     26  C   UNL     1      44.166   3.070  10.310  0.00  0.00    +0.000 A 
ATOM     27  S   UNL     1      43.351   2.902  11.796  0.00  0.00    +0.000 S 
ATOM     28  C   UNL     1      43.949   4.403  12.360  0.00  0.00    +0.000 A 
ATOM     29  C   UNL     1      44.790   5.034  11.452  0.00  0.00    +0.000 A 
ATOM     30  C   UNL     1      44.884   4.245  10.246  0.00  0.00    +0.000 A 
ATOM     31  C   UNL     1      45.599   4.516   9.011  0.00  0.00    +0.000 A 
ATOM     32  O   UNL     1      46.250   5.543   8.841  0.00  0.00    +0.000 OA
BRANCH  23  33
ATOM     33  C   UNL     1      46.262   3.678   6.811  0.00  0.00    +0.000 C 
BRANCH  33  35
ATOM     34  C   UNL     1      48.188   2.006   6.556  0.00  0.00    +0.000 C 
ATOM     35  C   UNL     1      46.749   2.356   6.209  0.00  0.00    +0.000 C 
ENDBRANCH  33  35
ENDBRANCH  23  33
ENDBRANCH  19  29
ENDBRANCH   1  21
TORSDOF 8
ENDMDL
MODEL 3
REMARK VINA RESULT:    -7.306      2.311      4.010
REMARK INTER + INTRA:         -11.979
REMARK INTER:                 -10.921
REMARK INTRA:                  -1.058
REMARK UNBOUND:                -1.256
REMARK  Name = 
REMARK  10 active torsions:
REMARK  status: ('A' for Active; 'I' for Inactive)
REMARK    1  A    between atoms: C_1  and  C_2
REMARK    2  A    between atoms: C_2  and  C_3
REMARK    3  A    between atoms: C_3  and  N_4
REMARK    4  A    between atoms: C_10  and  C_11
REMARK    5  A    between atoms: N_13  and  C_14
REMARK    6  A    between atoms: C_14  and  C_15
REMARK    7  A    between atoms: C_18  and  C_19
REMARK    8  A    between atoms: C_19  and  N_20
REMARK    9  A    between atoms: C_21  and  C_23
REMARK   10  A    between atoms: N_27  and  C_28
REMARK                            x       y       z     vdW  Elec       q    Type
REMARK                         _______ _______ _______ _____ _____    ______ ____
ROOT
ATOM      1  C   UNL     1      47.042   4.410  14.967  0.00  0.00    +0.000 C 
ENDROOT
BRANCH   1   2
ATOM      2  C   UNL     1      46.367   4.442  13.615  0.00  0.00    +0.000 A 
ATOM      3  C   UNL     1      46.397   5.610  12.836  0.00  0.00    +0.000 A 
ATOM      4  C   UNL     1      45.787   5.650  11.574  0.00  0.00    +0.000 A 
ATOM      5  C   UNL     1      45.104   4.531  11.081  0.00  0.00    +0.000 A 
ATOM      6  C   UNL     1      45.062   3.373  11.866  0.00  0.00    +0.000 A 
ATOM      7  C   UNL     1      45.688   3.324  13.118  0.00  0.00    +0.000 A 
BRANCH   5   8
ATOM      8  C   UNL     1      44.436   4.543   9.731  0.00  0.00    +0.000 C 
BRANCH   8   9
ATOM      9  N   UNL     1      45.342   4.136   8.686  0.00  0.00    +0.000 N 
ATOM     10  C   UNL     1      45.402   2.821   8.275  0.00  0.00    +0.000 C 
ATOM     11  O   UNL     1      44.701   1.952   8.783  0.00  0.00    +0.000 OA
ATOM     12  H   UNL     1      45.889   4.846   8.225  0.00  0.00    +0.000 HD
BRANCH  10  13
ATOM     13  C   UNL     1      46.346   2.570   7.198  0.00  0.00    +0.000 A 
ATOM     14  C   UNL     1      46.826   3.413   6.205  0.00  0.00    +0.000 A 
ATOM     15  C   UNL     1      47.711   2.635   5.445  0.00  0.00    +0.000 A 
ATOM     16  N   UNL     1      47.813   1.394   5.910  0.00  0.00    +0.000 NA
ATOM     17  N   UNL     1      46.972   1.373   6.968  0.00  0.00    +0.000 N 
ATOM     18  C   UNL     1      46.804   0.138   7.702  0.00  0.00    +0.000 C 
ENDBRANCH  10  13
ENDBRANCH   8   9
ENDBRANCH   5   8
ENDBRANCH   1   2
BRANCH   1  21
ATOM     19  C   UNL     1      48.717   5.798  16.107  0.00  0.00    +0.000 C 
ATOM     20  O   UNL     1      49.234   4.828  16.652  0.00  0.00    +0.000 OA
ATOM     21  N   UNL     1      47.588   5.693  15.327  0.00  0.00    +0.000 N 
ATOM     22  H   UNL     1      47.390   6.445  14.677  0.00  0.00    +0.000 HD
BRANCH  19  29
ATOM     23  N   UNL     1      50.328   9.020  13.155  0.00  0.00    +0.000 N 
ATOM     24  C   UNL     1      50.698  10.166  13.830  0.00  0.00    +0.000 A 
ATOM     25  N   UNL     1      50.633  10.345  15.109  0.00  0.00    +0.000 NA
ATOM     26  C   UNL     1      50.145   9.285  15.802  0.00  0.00    +0.000 A 
ATOM     27  S   UNL     1      49.982   9.328  17.497  0.00  0.00    +0.000 S 
ATOM     28  C   UNL     1      49.369   7.731  17.538  0.00  0.00    +0.000 A 
ATOM     29  C   UNL     1      49.252   7.157  16.279  0.00  0.00    +0.000 A 
ATOM     30  C   UNL     1      49.735   8.078  15.277  0.00  0.00    +0.000 A 
ATOM     31  C   UNL     1      49.856   7.908  13.839  0.00  0.00    +0.000 A 
ATOM     32  O   UNL     1      49.542   6.865  13.273  0.00  0.00    +0.000 OA
BRANCH  23  33
ATOM     33  C   UNL     1      50.409   8.958  11.700  0.00  0.00    +0.000 C 
BRANCH  33  35
ATOM     34  C   UNL     1      51.758   7.314  10.268  0.00  0.00    +0.000 C 
ATOM     35  C   UNL     1      51.785   8.534  11.176  0.00  0.00    +0.000 C 
ENDBRANCH  33  35
ENDBRANCH  23  33
ENDBRANCH  19  29
ENDBRANCH   1  21
TORSDOF 8
ENDMDL
MODEL 4
REMARK VINA RESULT:    -7.116      4.654      9.702
REMARK INTER + INTRA:         -11.701
REMARK INTER:                 -11.247
REMARK INTRA:                  -0.454
REMARK UNBOUND:                -1.256
REMARK  Name = 
REMARK  10 active torsions:
REMARK  status: ('A' for Active; 'I' for Inactive)
REMARK    1  A    between atoms: C_1  and  C_2
REMARK    2  A    between atoms: C_2  and  C_3
REMARK    3  A    between atoms: C_3  and  N_4
REMARK    4  A    between atoms: C_10  and  C_11
REMARK    5  A    between atoms: N_13  and  C_14
REMARK    6  A    between atoms: C_14  and  C_15
REMARK    7  A    between atoms: C_18  and  C_19
REMARK    8  A    between atoms: C_19  and  N_20
REMARK    9  A    between atoms: C_21  and  C_23
REMARK   10  A    between atoms: N_27  and  C_28
REMARK                            x       y       z     vdW  Elec       q    Type
REMARK                         _______ _______ _______ _____ _____    ______ ____
ROOT
ATOM      1  C   UNL     1      47.402   3.769  17.227  0.00  0.00    +0.000 C 
ENDROOT
BRANCH   1   2
ATOM      2  C   UNL     1      48.854   3.407  17.436  0.00  0.00    +0.000 A 
ATOM      3  C   UNL     1      49.750   4.349  17.966  0.00  0.00    +0.000 A 
ATOM      4  C   UNL     1      51.097   4.024  18.179  0.00  0.00    +0.000 A 
ATOM      5  C   UNL     1      51.583   2.756  17.832  0.00  0.00    +0.000 A 
ATOM      6  C   UNL     1      50.692   1.824  17.288  0.00  0.00    +0.000 A 
ATOM      7  C   UNL     1      49.342   2.140  17.095  0.00  0.00    +0.000 A 
BRANCH   5   8
ATOM      8  C   UNL     1      53.025   2.377  18.044  0.00  0.00    +0.000 C 
BRANCH   8   9
ATOM      9  N   UNL     1      53.209   0.948  18.009  0.00  0.00    +0.000 N 
ATOM     10  C   UNL     1      54.376   0.373  18.465  0.00  0.00    +0.000 C 
ATOM     11  O   UNL     1      55.300   1.049  18.907  0.00  0.00    +0.000 OA
ATOM     12  H   UNL     1      52.441   0.375  17.694  0.00  0.00    +0.000 HD
BRANCH  10  13
ATOM     13  C   UNL     1      54.404  -1.078  18.386  0.00  0.00    +0.000 A 
ATOM     14  C   UNL     1      53.968  -2.039  19.288  0.00  0.00    +0.000 A 
ATOM     15  C   UNL     1      54.244  -3.275  18.687  0.00  0.00    +0.000 A 
ATOM     16  N   UNL     1      54.798  -3.135  17.486  0.00  0.00    +0.000 NA
ATOM     17  N   UNL     1      54.893  -1.796  17.326  0.00  0.00    +0.000 N 
ATOM     18  C   UNL     1      55.499  -1.278  16.120  0.00  0.00    +0.000 C 
ENDBRANCH  10  13
ENDBRANCH   8   9
ENDBRANCH   5   8
ENDBRANCH   1   2
BRANCH   1  21
ATOM     19  C   UNL     1      47.254   4.250  14.823  0.00  0.00    +0.000 C 
ATOM     20  O   UNL     1      47.565   3.104  14.515  0.00  0.00    +0.000 OA
ATOM     21  N   UNL     1      47.228   4.684  16.129  0.00  0.00    +0.000 N 
ATOM     22  H   UNL     1      46.688   5.515  16.340  0.00  0.00    +0.000 HD
BRANCH  19  29
ATOM     23  N   UNL     1      44.762   4.151  10.890  0.00  0.00    +0.000 N 
ATOM     24  C   UNL     1      44.730   5.397  10.295  0.00  0.00    +0.000 A 
ATOM     25  N   UNL     1      45.317   6.461  10.737  0.00  0.00    +0.000 NA
ATOM     26  C   UNL     1      46.004   6.287  11.894  0.00  0.00    +0.000 A 
ATOM     27  S   UNL     1      46.842   7.572  12.633  0.00  0.00    +0.000 S 
ATOM     28  C   UNL     1      47.383   6.564  13.906  0.00  0.00    +0.000 A 
ATOM     29  C   UNL     1      46.918   5.259  13.807  0.00  0.00    +0.000 A 
ATOM     30  C   UNL     1      46.131   5.113  12.606  0.00  0.00    +0.000 A 
ATOM     31  C   UNL     1      45.483   3.934  12.056  0.00  0.00    +0.000 A 
ATOM     32  O   UNL     1      45.553   2.835  12.597  0.00  0.00    +0.000 OA
BRANCH  23  33
ATOM     33  C   UNL     1      44.021   3.035  10.313  0.00  0.00    +0.000 C 
BRANCH  33  35
ATOM     34  C   UNL     1      45.565   1.746   8.724  0.00  0.00    +0.000 C 
ATOM     35  C   UNL     1      44.406   2.722   8.864  0.00  0.00    +0.000 C 
ENDBRANCH  33  35
ENDBRANCH  23  33
ENDBRANCH  19  29
ENDBRANCH   1  21
TORSDOF 8
ENDMDL
MODEL 5
REMARK VINA RESULT:    -6.668      1.703      2.079
REMARK INTER + INTRA:         -11.042
REMARK INTER:                 -10.141
REMARK INTRA:                  -0.901
REMARK UNBOUND:                -1.256
REMARK  Name = 
REMARK  10 active torsions:
REMARK  status: ('A' for Active; 'I' for Inactive)
REMARK    1  A    between atoms: C_1  and  C_2
REMARK    2  A    between atoms: C_2  and  C_3
REMARK    3  A    between atoms: C_3  and  N_4
REMARK    4  A    between atoms: C_10  and  C_11
REMARK    5  A    between atoms: N_13  and  C_14
REMARK    6  A    between atoms: C_14  and  C_15
REMARK    7  A    between atoms: C_18  and  C_19
REMARK    8  A    between atoms: C_19  and  N_20
REMARK    9  A    between atoms: C_21  and  C_23
REMARK   10  A    between atoms: N_27  and  C_28
REMARK                            x       y       z     vdW  Elec       q    Type
REMARK                         _______ _______ _______ _____ _____    ______ ____
ROOT
ATOM      1  C   UNL     1      45.734   8.258  13.025  0.00  0.00    +0.000 C 
ENDROOT
BRANCH   1   2
ATOM      2  C   UNL     1      45.261   6.920  12.506  0.00  0.00    +0.000 A 
ATOM      3  C   UNL     1      45.333   5.779  13.322  0.00  0.00    +0.000 A 
ATOM      4  C   UNL     1      44.886   4.534  12.860  0.00  0.00    +0.000 A 
ATOM      5  C   UNL     1      44.389   4.397  11.557  0.00  0.00    +0.000 A 
ATOM      6  C   UNL     1      44.333   5.532  10.740  0.00  0.00    +0.000 A 
ATOM      7  C   UNL     1      44.760   6.782  11.207  0.00  0.00    +0.000 A 
BRANCH   5   8
ATOM      8  C   UNL     1      43.904   3.073  11.030  0.00  0.00    +0.000 C 
BRANCH   8   9
ATOM      9  N   UNL     1      44.896   2.434  10.203  0.00  0.00    +0.000 N 
ATOM     10  C   UNL     1      44.913   2.631   8.838  0.00  0.00    +0.000 C 
ATOM     11  O   UNL     1      44.088   3.343   8.277  0.00  0.00    +0.000 OA
ATOM     12  H   UNL     1      45.612   1.885  10.654  0.00  0.00    +0.000 HD
BRANCH  10  13
ATOM     13  C   UNL     1      45.988   1.939   8.144  0.00  0.00    +0.000 A 
ATOM     14  C   UNL     1      46.288   0.586   8.069  0.00  0.00    +0.000 A 
ATOM     15  C   UNL     1      47.432   0.498   7.262  0.00  0.00    +0.000 A 
ATOM     16  N   UNL     1      47.835   1.690   6.833  0.00  0.00    +0.000 NA
ATOM     17  N   UNL     1      46.951   2.551   7.385  0.00  0.00    +0.000 N 
ATOM     18  C   UNL     1      47.117   3.968   7.152  0.00  0.00    +0.000 C 
ENDBRANCH  10  13
ENDBRANCH   8   9
ENDBRANCH   5   8
ENDBRANCH   1   2
BRANCH   1  21
ATOM     19  C   UNL     1      48.174   7.987  12.945  0.00  0.00    +0.000 C 
ATOM     20  O   UNL     1      48.167   7.760  11.739  0.00  0.00    +0.000 OA
ATOM     21  N   UNL     1      47.018   8.163  13.671  0.00  0.00    +0.000 N 
ATOM     22  H   UNL     1      47.087   8.634  14.565  0.00  0.00    +0.000 HD
BRANCH  19  29
ATOM     23  N   UNL     1      49.779   5.723  16.685  0.00  0.00    +0.000 N 
ATOM     24  C   UNL     1      51.054   6.145  17.007  0.00  0.00    +0.000 A 
ATOM     25  N   UNL     1      51.729   7.055  16.384  0.00  0.00    +0.000 NA
ATOM     26  C   UNL     1      51.087   7.607  15.323  0.00  0.00    +0.000 A 
ATOM     27  S   UNL     1      51.814   8.821  14.376  0.00  0.00    +0.000 S 
ATOM     28  C   UNL     1      50.437   8.942  13.368  0.00  0.00    +0.000 A 
ATOM     29  C   UNL     1      49.427   8.053  13.712  0.00  0.00    +0.000 A 
ATOM     30  C   UNL     1      49.820   7.296  14.877  0.00  0.00    +0.000 A 
ATOM     31  C   UNL     1      49.084   6.292  15.626  0.00  0.00    +0.000 A 
ATOM     32  O   UNL     1      47.941   5.959  15.328  0.00  0.00    +0.000 OA
BRANCH  23  33
ATOM     33  C   UNL     1      49.138   4.655  17.443  0.00  0.00    +0.000 C 
BRANCH  33  35
ATOM     34  C   UNL     1      48.779   4.442  19.972  0.00  0.00    +0.000 C 
ATOM     35  C   UNL     1      49.769   4.409  18.817  0.00  0.00    +0.000 C 
ENDBRANCH  33  35
ENDBRANCH  23  33
ENDBRANCH  19  29
ENDBRANCH   1  21
TORSDOF 8
ENDMDL
MODEL 6
REMARK VINA RESULT:    -6.455      4.613      9.275
REMARK INTER + INTRA:         -10.730
REMARK INTER:                  -9.256
REMARK INTRA:                  -1.475
REMARK UNBOUND:                -1.256
REMARK  Name = 
REMARK  10 active torsions:
REMARK  status: ('A' for Active; 'I' for Inactive)
REMARK    1  A    between atoms: C_1  and  C_2
REMARK    2  A    between atoms: C_2  and  C_3
REMARK    3  A    between atoms: C_3  and  N_4
REMARK    4  A    between atoms: C_10  and  C_11
REMARK    5  A    between atoms: N_13  and  C_14
REMARK    6  A    between atoms: C_14  and  C_15
REMARK    7  A    between atoms: C_18  and  C_19
REMARK    8  A    between atoms: C_19  and  N_20
REMARK    9  A    between atoms: C_21  and  C_23
REMARK   10  A    between atoms: N_27  and  C_28
REMARK                            x       y       z     vdW  Elec       q    Type
REMARK                         _______ _______ _______ _____ _____    ______ ____
ROOT
ATOM      1  C   UNL     1      47.363   3.455  16.970  0.00  0.00    +0.000 C 
ENDROOT
BRANCH   1   2
ATOM      2  C   UNL     1      48.833   3.272  17.266  0.00  0.00    +0.000 A 
ATOM      3  C   UNL     1      49.571   4.310  17.856  0.00  0.00    +0.000 A 
ATOM      4  C   UNL     1      50.933   4.151  18.150  0.00  0.00    +0.000 A 
ATOM      5  C   UNL     1      51.593   2.959  17.825  0.00  0.00    +0.000 A 
ATOM      6  C   UNL     1      50.859   1.931  17.222  0.00  0.00    +0.000 A 
ATOM      7  C   UNL     1      49.494   2.080  16.947  0.00  0.00    +0.000 A 
BRANCH   5   8
ATOM      8  C   UNL     1      53.055   2.757  18.124  0.00  0.00    +0.000 C 
BRANCH   8   9
ATOM      9  N   UNL     1      53.362   1.369  18.363  0.00  0.00    +0.000 N 
ATOM     10  C   UNL     1      54.622   0.870  18.109  0.00  0.00    +0.000 C 
ATOM     11  O   UNL     1      55.521   1.577  17.666  0.00  0.00    +0.000 OA
ATOM     12  H   UNL     1      52.649   0.786  18.774  0.00  0.00    +0.000 HD
BRANCH  10  13
ATOM     13  C   UNL     1      54.784  -0.541  18.421  0.00  0.00    +0.000 A 
ATOM     14  C   UNL     1      54.880  -1.188  19.646  0.00  0.00    +0.000 A 
ATOM     15  C   UNL     1      55.024  -2.550  19.342  0.00  0.00    +0.000 A 
ATOM     16  N   UNL     1      55.007  -2.775  18.032  0.00  0.00    +0.000 NA
ATOM     17  N   UNL     1      54.869  -1.544  17.492  0.00  0.00    +0.000 N 
ATOM     18  C   UNL     1      54.853  -1.412  16.052  0.00  0.00    +0.000 C 
ENDBRANCH  10  13
ENDBRANCH   8   9
ENDBRANCH   5   8
ENDBRANCH   1   2
BRANCH   1  21
ATOM     19  C   UNL     1      47.044   4.230  14.660  0.00  0.00    +0.000 C 
ATOM     20  O   UNL     1      47.294   3.123  14.194  0.00  0.00    +0.000 OA
ATOM     21  N   UNL     1      47.133   4.501  16.007  0.00  0.00    +0.000 N 
ATOM     22  H   UNL     1      46.638   5.312  16.360  0.00  0.00    +0.000 HD
BRANCH  19  29
ATOM     23  N   UNL     1      49.123   8.233  13.505  0.00  0.00    +0.000 N 
ATOM     24  C   UNL     1      48.341   8.960  12.629  0.00  0.00    +0.000 A 
ATOM     25  N   UNL     1      47.177   8.610  12.186  0.00  0.00    +0.000 NA
ATOM     26  C   UNL     1      46.736   7.412  12.645  0.00  0.00    +0.000 A 
ATOM     27  S   UNL     1      45.227   6.780  12.173  0.00  0.00    +0.000 S 
ATOM     28  C   UNL     1      45.443   5.384  13.138  0.00  0.00    +0.000 A 
ATOM     29  C   UNL     1      46.663   5.362  13.804  0.00  0.00    +0.000 A 
ATOM     30  C   UNL     1      47.395   6.573  13.518  0.00  0.00    +0.000 A 
ATOM     31  C   UNL     1      48.683   7.020  14.018  0.00  0.00    +0.000 A 
ATOM     32  O   UNL     1      49.342   6.361  14.817  0.00  0.00    +0.000 OA
BRANCH  23  33
ATOM     33  C   UNL     1      50.441   8.717  13.899  0.00  0.00    +0.000 C 
BRANCH  33  35
ATOM     34  C   UNL     1      50.305   9.572  16.312  0.00  0.00    +0.000 C 
ATOM     35  C   UNL     1      50.399   9.929  14.836  0.00  0.00    +0.000 C 
ENDBRANCH  33  35
ENDBRANCH  23  33
ENDBRANCH  19  29
ENDBRANCH   1  21
TORSDOF 8
ENDMDL
MODEL 7
REMARK VINA RESULT:    -6.359      2.246      3.798
REMARK INTER + INTRA:         -10.589
REMARK INTER:                 -10.003
REMARK INTRA:                  -0.586
REMARK UNBOUND:                -1.256
REMARK  Name = 
REMARK  10 active torsions:
REMARK  status: ('A' for Active; 'I' for Inactive)
REMARK    1  A    between atoms: C_1  and  C_2
REMARK    2  A    between atoms: C_2  and  C_3
REMARK    3  A    between atoms: C_3  and  N_4
REMARK    4  A    between atoms: C_10  and  C_11
REMARK    5  A    between atoms: N_13  and  C_14
REMARK    6  A    between atoms: C_14  and  C_15
REMARK    7  A    between atoms: C_18  and  C_19
REMARK    8  A    between atoms: C_19  and  N_20
REMARK    9  A    between atoms: C_21  and  C_23
REMARK   10  A    between atoms: N_27  and  C_28
REMARK                            x       y       z     vdW  Elec       q    Type
REMARK                         _______ _______ _______ _____ _____    ______ ____
ROOT
ATOM      1  C   UNL     1      47.154   5.136  14.813  0.00  0.00    +0.000 C 
ENDROOT
BRANCH   1   2
ATOM      2  C   UNL     1      46.420   4.939  13.508  0.00  0.00    +0.000 A 
ATOM      3  C   UNL     1      45.742   3.736  13.251  0.00  0.00    +0.000 A 
ATOM      4  C   UNL     1      45.045   3.544  12.050  0.00  0.00    +0.000 A 
ATOM      5  C   UNL     1      45.040   4.540  11.066  0.00  0.00    +0.000 A 
ATOM      6  C   UNL     1      45.729   5.732  11.317  0.00  0.00    +0.000 A 
ATOM      7  C   UNL     1      46.409   5.935  12.525  0.00  0.00    +0.000 A 
BRANCH   5   8
ATOM      8  C   UNL     1      44.303   4.364   9.764  0.00  0.00    +0.000 C 
BRANCH   8   9
ATOM      9  N   UNL     1      45.199   4.017   8.689  0.00  0.00    +0.000 N 
ATOM     10  C   UNL     1      45.500   2.699   8.417  0.00  0.00    +0.000 C 
ATOM     11  O   UNL     1      45.030   1.778   9.077  0.00  0.00    +0.000 OA
ATOM     12  H   UNL     1      45.555   4.759   8.106  0.00  0.00    +0.000 HD
BRANCH  10  13
ATOM     13  C   UNL     1      46.398   2.508   7.290  0.00  0.00    +0.000 A 
ATOM     14  C   UNL     1      46.831   3.402   6.320  0.00  0.00    +0.000 A 
ATOM     15  C   UNL     1      47.687   2.668   5.485  0.00  0.00    +0.000 A 
ATOM     16  N   UNL     1      47.816   1.407   5.885  0.00  0.00    +0.000 NA
ATOM     17  N   UNL     1      47.021   1.328   6.975  0.00  0.00    +0.000 N 
ATOM     18  C   UNL     1      46.891   0.058   7.655  0.00  0.00    +0.000 C 
ENDBRANCH  10  13
ENDBRANCH   8   9
ENDBRANCH   5   8
ENDBRANCH   1   2
BRANCH   1  21
ATOM     19  C   UNL     1      48.998   6.574  15.565  0.00  0.00    +0.000 C 
ATOM     20  O   UNL     1      49.465   5.697  16.285  0.00  0.00    +0.000 OA
ATOM     21  N   UNL     1      47.821   6.411  14.869  0.00  0.00    +0.000 N 
ATOM     22  H   UNL     1      47.649   7.024  14.082  0.00  0.00    +0.000 HD
BRANCH  19  29
ATOM     23  N   UNL     1      48.753  10.568  17.947  0.00  0.00    +0.000 N 
ATOM     24  C   UNL     1      49.601  11.516  17.409  0.00  0.00    +0.000 A 
ATOM     25  N   UNL     1      50.360  11.352  16.374  0.00  0.00    +0.000 NA
ATOM     26  C   UNL     1      50.285  10.120  15.810  0.00  0.00    +0.000 A 
ATOM     27  S   UNL     1      51.209   9.711  14.440  0.00  0.00    +0.000 S 
ATOM     28  C   UNL     1      50.550   8.133  14.393  0.00  0.00    +0.000 A 
ATOM     29  C   UNL     1      49.650   7.884  15.421  0.00  0.00    +0.000 A 
ATOM     30  C   UNL     1      49.491   9.072  16.227  0.00  0.00    +0.000 A 
ATOM     31  C   UNL     1      48.630   9.310  17.372  0.00  0.00    +0.000 A 
ATOM     32  O   UNL     1      47.868   8.453  17.810  0.00  0.00    +0.000 OA
BRANCH  23  33
ATOM     33  C   UNL     1      47.978  10.863  19.146  0.00  0.00    +0.000 C 
BRANCH  33  35
ATOM     34  C   UNL     1      49.832   9.866  20.609  0.00  0.00    +0.000 C 
ATOM     35  C   UNL     1      48.827  10.991  20.415  0.00  0.00    +0.000 C 
ENDBRANCH  33  35
ENDBRANCH  23  33
ENDBRANCH  19  29
ENDBRANCH   1  21
TORSDOF 8
ENDMDL
MODEL 8
REMARK VINA RESULT:    -6.156      3.177     10.460
REMARK INTER + INTRA:         -10.291
REMARK INTER:                  -9.515
REMARK INTRA:                  -0.776
REMARK UNBOUND:                -1.256
REMARK  Name = 
REMARK  10 active torsions:
REMARK  status: ('A' for Active; 'I' for Inactive)
REMARK    1  A    between atoms: C_1  and  C_2
REMARK    2  A    between atoms: C_2  and  C_3
REMARK    3  A    between atoms: C_3  and  N_4
REMARK    4  A    between atoms: C_10  and  C_11
REMARK    5  A    between atoms: N_13  and  C_14
REMARK    6  A    between atoms: C_14  and  C_15
REMARK    7  A    between atoms: C_18  and  C_19
REMARK    8  A    between atoms: C_19  and  N_20
REMARK    9  A    between atoms: C_21  and  C_23
REMARK   10  A    between atoms: N_27  and  C_28
REMARK                            x       y       z     vdW  Elec       q    Type
REMARK                         _______ _______ _______ _____ _____    ______ ____
ROOT
ATOM      1  C   UNL     1      47.259   4.036  17.459  0.00  0.00    +0.000 C 
ENDROOT
BRANCH   1   2
ATOM      2  C   UNL     1      48.571   4.215  18.187  0.00  0.00    +0.000 A 
ATOM      3  C   UNL     1      49.768   3.756  17.614  0.00  0.00    +0.000 A 
ATOM      4  C   UNL     1      50.994   3.928  18.271  0.00  0.00    +0.000 A 
ATOM      5  C   UNL     1      51.043   4.533  19.534  0.00  0.00    +0.000 A 
ATOM      6  C   UNL     1      49.848   4.975  20.110  0.00  0.00    +0.000 A 
ATOM      7  C   UNL     1      48.624   4.824  19.446  0.00  0.00    +0.000 A 
BRANCH   5   8
ATOM      8  C   UNL     1      52.344   4.729  20.267  0.00  0.00    +0.000 C 
BRANCH   8   9
ATOM      9  N   UNL     1      52.576   6.117  20.576  0.00  0.00    +0.000 N 
ATOM     10  C   UNL     1      53.233   6.940  19.685  0.00  0.00    +0.000 C 
ATOM     11  O   UNL     1      53.650   6.526  18.608  0.00  0.00    +0.000 OA
ATOM     12  H   UNL     1      52.196   6.485  21.434  0.00  0.00    +0.000 HD
BRANCH  10  13
ATOM     13  C   UNL     1      53.370   8.318  20.128  0.00  0.00    +0.000 A 
ATOM     14  C   UNL     1      54.366   8.931  20.875  0.00  0.00    +0.000 A 
ATOM     15  C   UNL     1      53.976  10.272  20.997  0.00  0.00    +0.000 A 
ATOM     16  N   UNL     1      52.831  10.520  20.369  0.00  0.00    +0.000 NA
ATOM     17  N   UNL     1      52.476   9.321  19.856  0.00  0.00    +0.000 N 
ATOM     18  C   UNL     1      51.232   9.214  19.127  0.00  0.00    +0.000 C 
ENDBRANCH  10  13
ENDBRANCH   8   9
ENDBRANCH   5   8
ENDBRANCH   1   2
BRANCH   1  21
ATOM     19  C   UNL     1      47.286   4.326  15.020  0.00  0.00    +0.000 C 
ATOM     20  O   UNL     1      47.596   3.154  14.827  0.00  0.00    +0.000 OA
ATOM     21  N   UNL     1      47.178   4.863  16.283  0.00  0.00    +0.000 N 
ATOM     22  H   UNL     1      46.641   5.715  16.390  0.00  0.00    +0.000 HD
BRANCH  19  29
ATOM     23  N   UNL     1      44.944   3.991  11.008  0.00  0.00    +0.000 N 
ATOM     24  C   UNL     1      44.998   5.179  10.306  0.00  0.00    +0.000 A 
ATOM     25  N   UNL     1      45.620   6.251  10.678  0.00  0.00    +0.000 NA
ATOM     26  C   UNL     1      46.252   6.149  11.874  0.00  0.00    +0.000 A 
ATOM     27  S   UNL     1      47.124   7.454  12.534  0.00  0.00    +0.000 S 
ATOM     28  C   UNL     1      47.566   6.540  13.912  0.00  0.00    +0.000 A 
ATOM     29  C   UNL     1      47.040   5.254  13.907  0.00  0.00    +0.000 A 
ATOM     30  C   UNL     1      46.293   5.038  12.691  0.00  0.00    +0.000 A 
ATOM     31  C   UNL     1      45.609   3.846  12.219  0.00  0.00    +0.000 A 
ATOM     32  O   UNL     1      45.603   2.797  12.857  0.00  0.00    +0.000 OA
BRANCH  23  33
ATOM     33  C   UNL     1      44.171   2.864  10.500  0.00  0.00    +0.000 C 
BRANCH  33  35
ATOM     34  C   UNL     1      45.689   1.835   8.709  0.00  0.00    +0.000 C 
ATOM     35  C   UNL     1      44.398   2.581   9.012  0.00  0.00    +0.000 C 
ENDBRANCH  33  35
ENDBRANCH  23  33
ENDBRANCH  19  29
ENDBRANCH   1  21
TORSDOF 8
ENDMDL
MODEL 9
REMARK VINA RESULT:    -5.954      4.230      9.443
REMARK INTER + INTRA:          -9.994
REMARK INTER:                  -8.547
REMARK INTRA:                  -1.447
REMARK UNBOUND:                -1.256
REMARK  Name = 
REMARK  10 active torsions:
REMARK  status: ('A' for Active; 'I' for Inactive)
REMARK    1  A    between atoms: C_1  and  C_2
REMARK    2  A    between atoms: C_2  and  C_3
REMARK    3  A    between atoms: C_3  and  N_4
REMARK    4  A    between atoms: C_10  and  C_11
REMARK    5  A    between atoms: N_13  and  C_14
REMARK    6  A    between atoms: C_14  and  C_15
REMARK    7  A    between atoms: C_18  and  C_19
REMARK    8  A    between atoms: C_19  and  N_20
REMARK    9  A    between atoms: C_21  and  C_23
REMARK   10  A    between atoms: N_27  and  C_28
REMARK                            x       y       z     vdW  Elec       q    Type
REMARK                         _______ _______ _______ _____ _____    ______ ____
ROOT
ATOM      1  C   UNL     1      47.213   3.299  17.109  0.00  0.00    +0.000 C 
ENDROOT
BRANCH   1   2
ATOM      2  C   UNL     1      48.690   3.441  17.392  0.00  0.00    +0.000 A 
ATOM      3  C   UNL     1      49.578   2.403  17.067  0.00  0.00    +0.000 A 
ATOM      4  C   UNL     1      50.953   2.526  17.311  0.00  0.00    +0.000 A 
ATOM      5  C   UNL     1      51.464   3.680  17.919  0.00  0.00    +0.000 A 
ATOM      6  C   UNL     1      50.576   4.708  18.257  0.00  0.00    +0.000 A 
ATOM      7  C   UNL     1      49.204   4.595  17.995  0.00  0.00    +0.000 A 
BRANCH   5   8
ATOM      8  C   UNL     1      52.935   3.842  18.198  0.00  0.00    +0.000 C 
BRANCH   8   9
ATOM      9  N   UNL     1      53.466   5.028  17.575  0.00  0.00    +0.000 N 
ATOM     10  C   UNL     1      54.827   5.244  17.509  0.00  0.00    +0.000 C 
ATOM     11  O   UNL     1      55.631   4.447  17.980  0.00  0.00    +0.000 OA
ATOM     12  H   UNL     1      52.821   5.669  17.139  0.00  0.00    +0.000 HD
BRANCH  10  13
ATOM     13  C   UNL     1      55.209   6.472  16.830  0.00  0.00    +0.000 A 
ATOM     14  C   UNL     1      55.435   6.725  15.484  0.00  0.00    +0.000 A 
ATOM     15  C   UNL     1      55.775   8.084  15.409  0.00  0.00    +0.000 A 
ATOM     16  N   UNL     1      55.758   8.672  16.601  0.00  0.00    +0.000 NA
ATOM     17  N   UNL     1      55.420   7.676  17.450  0.00  0.00    +0.000 N 
ATOM     18  C   UNL     1      55.345   7.960  18.866  0.00  0.00    +0.000 C 
ENDBRANCH  10  13
ENDBRANCH   8   9
ENDBRANCH   5   8
ENDBRANCH   1   2
BRANCH   1  21
ATOM     19  C   UNL     1      46.873   3.966  14.769  0.00  0.00    +0.000 C 
ATOM     20  O   UNL     1      47.482   2.991  14.342  0.00  0.00    +0.000 OA
ATOM     21  N   UNL     1      46.762   4.238  16.114  0.00  0.00    +0.000 N 
ATOM     22  H   UNL     1      46.019   4.858  16.412  0.00  0.00    +0.000 HD
BRANCH  19  29
ATOM     23  N   UNL     1      48.171   8.118  13.106  0.00  0.00    +0.000 N 
ATOM     24  C   UNL     1      47.212   8.630  12.255  0.00  0.00    +0.000 A 
ATOM     25  N   UNL     1      46.088   8.064  11.954  0.00  0.00    +0.000 NA
ATOM     26  C   UNL     1      45.886   6.860  12.547  0.00  0.00    +0.000 A 
ATOM     27  S   UNL     1      44.466   5.961  12.274  0.00  0.00    +0.000 S 
ATOM     28  C   UNL     1      44.986   4.711  13.322  0.00  0.00    +0.000 A 
ATOM     29  C   UNL     1      46.243   4.941  13.866  0.00  0.00    +0.000 A 
ATOM     30  C   UNL     1      46.742   6.219  13.417  0.00  0.00    +0.000 A 
ATOM     31  C   UNL     1      47.978   6.905  13.753  0.00  0.00    +0.000 A 
ATOM     32  O   UNL     1      48.799   6.433  14.535  0.00  0.00    +0.000 OA
BRANCH  23  33
ATOM     33  C   UNL     1      49.420   8.835  13.332  0.00  0.00    +0.000 C 
BRANCH  33  35
ATOM     34  C   UNL     1      50.821   7.963  11.370  0.00  0.00    +0.000 C 
ATOM     35  C   UNL     1      50.182   9.167  12.045  0.00  0.00    +0.000 C 
ENDBRANCH  33  35
ENDBRANCH  23  33
ENDBRANCH  19  29
ENDBRANCH   1  21
TORSDOF 8
ENDMDL
