MODEL 1
REMARK VINA RESULT:    -8.389      0.000      0.000
REMARK INTER + INTRA:         -13.783
REMARK INTER:                 -12.313
REMARK INTRA:                  -1.470
REMARK UNBOUND:                -1.470
REMARK  Name = 
REMARK  9 active torsions:
REMARK  status: ('A' for Active; 'I' for Inactive)
REMARK    1  A    between atoms: C_1  and  C_2
REMARK    2  A    between atoms: C_2  and  C_3
REMARK    3  A    between atoms: C_3  and  C_4
REMARK    4  A    between atoms: C_4  and  N_5
REMARK    5  A    between atoms: C_4  and  C_18
REMARK    6  A    between atoms: C_6  and  C_8
REMARK    7  A    between atoms: C_21  and  C_22
REMARK    8  A    between atoms: C_22  and  O_23
REMARK    9  A    between atoms: O_23  and  C_24
REMARK                            x       y       z     vdW  Elec       q    Type
REMARK                         _______ _______ _______ _____ _____    ______ ____
ROOT
ATOM      1  C   UNL     1      46.618   8.010  12.755  0.00  0.00    +0.000 C 
ENDROOT
BRANCH   1   2
ATOM      2  C   UNL     1      46.014   6.815  12.018  0.00  0.00    +0.000 A 
ATOM      3  C   UNL     1      45.089   5.968  12.645  0.00  0.00    +0.000 A 
ATOM      4  C   UNL     1      44.520   4.894  11.949  0.00  0.00    +0.000 A 
ATOM      5  C   UNL     1      44.858   4.644  10.613  0.00  0.00    +0.000 A 
ATOM      6  C   UNL     1      45.787   5.484   9.987  0.00  0.00    +0.000 A 
ATOM      7  C   UNL     1      46.360   6.551  10.681  0.00  0.00    +0.000 A 
BRANCH   5   8
ATOM      8  C   UNL     1      44.221   3.508   9.844  0.00  0.00    +0.000 C 
BRANCH   8   9
ATOM      9  O   UNL     1      44.437   3.713   8.445  0.00  0.00    +0.000 OA
BRANCH   9  10
ATOM     10  C   UNL     1      45.453   2.917   7.949  0.00  0.00    +0.000 A 
ATOM     11  C   UNL     1      46.253   3.462   6.957  0.00  0.00    +0.000 A 
ATOM     12  C   UNL     1      47.300   2.692   6.453  0.00  0.00    +0.000 A 
ATOM     13  C   UNL     1      47.506   1.412   6.955  0.00  0.00    +0.000 A 
ATOM     14  C   UNL     1      46.651   0.951   7.942  0.00  0.00    +0.000 A 
ATOM     15  N   UNL     1      45.628   1.674   8.448  0.00  0.00    +0.000 NA
ENDBRANCH   9  10
ENDBRANCH   8   9
ENDBRANCH   5   8
ENDBRANCH   1   2
BRANCH   1  16
ATOM     16  N   UNL     1      47.169   7.530  14.015  0.00  0.00    +0.000 N 
ATOM     17  C   UNL     1      48.302   6.775  14.156  0.00  0.00    +0.000 C 
ATOM     18  O   UNL     1      49.032   6.472  13.214  0.00  0.00    +0.000 OA
ATOM     19  H   UNL     1      46.493   7.503  14.773  0.00  0.00    +0.000 HD
BRANCH  17  20
ATOM     20  C   UNL     1      48.626   6.377  15.529  0.00  0.00    +0.000 A 
ATOM     21  C   UNL     1      49.425   7.181  16.327  0.00  0.00    +0.000 A 
ATOM     22  S   UNL     1      49.708   6.528  17.881  0.00  0.00    +0.000 S 
ATOM     23  C   UNL     1      48.803   5.133  17.521  0.00  0.00    +0.000 A 
ATOM     24  N   UNL     1      48.692   4.112  18.415  0.00  0.00    +0.000 NA
ATOM     25  C   UNL     1      48.001   3.107  17.992  0.00  0.00    +0.000 A 
ATOM     26  N   UNL     1      47.389   3.035  16.766  0.00  0.00    +0.000 N 
ATOM     27  C   UNL     1      47.430   4.061  15.859  0.00  0.00    +0.000 A 
ATOM     28  O   UNL     1      46.794   4.005  14.815  0.00  0.00    +0.000 OA
ATOM     29  C   UNL     1      48.248   5.191  16.256  0.00  0.00    +0.000 A 
ATOM     30  H   UNL     1      46.827   2.239  16.506  0.00  0.00    +0.000 HD
ENDBRANCH  17  20
ENDBRANCH   1  16
BRANCH   1  31
ATOM     31  C   UNL     1      45.576   9.122  12.977  0.00  0.00    +0.000 C 
BRANCH  31  33
ATOM     32  C   UNL     1      44.096   9.793  11.067  0.00  0.00    +0.000 C 
ATOM     33  C   UNL     1      45.420  10.043  11.768  0.00  0.00    +0.000 C 
ENDBRANCH  31  33
ENDBRANCH   1  31
TORSDOF 8
ENDMDL
MODEL 2
REMARK VINA RESULT:    -8.000      1.828      2.516
REMARK INTER + INTRA:         -13.212
REMARK INTER:                 -11.682
REMARK INTRA:                  -1.530
REMARK UNBOUND:                -1.470
REMARK  Name = 
REMARK  9 active torsions:
REMARK  status: ('A' for Active; 'I' for Inactive)
REMARK    1  A    between atoms: C_1  and  C_2
REMARK    2  A    between atoms: C_2  and  C_3
REMARK    3  A    between atoms: C_3  and  C_4
REMARK    4  A    between atoms: C_4  and  N_5
REMARK    5  A    between atoms: C_4  and  C_18
REMARK    6  A    between atoms: C_6  and  C_8
REMARK    7  A    between atoms: C_21  and  C_22
REMARK    8  A    between atoms: C_22  and  O_23
REMARK    9  A    between atoms: O_23  and  C_24
REMARK                            x       y       z     vdW  Elec       q    Type
REMARK                         _______ _______ _______ _____ _____    ______ ____
ROOT
ATOM      1  C   UNL     1      48.116   7.265  13.313  0.00  0.00    +0.000 C 
ENDROOT
BRANCH   1   2
ATOM      2  C   UNL     1      46.982   6.411  12.745  0.00  0.00    +0.000 A 
ATOM      3  C   UNL     1      46.170   6.882  11.703  0.00  0.00    +0.000 A 
ATOM      4  C   UNL     1      45.155   6.078  11.171  0.00  0.00    +0.000 A 
ATOM      5  C   UNL     1      44.930   4.786  11.665  0.00  0.00    +0.000 A 
ATOM      6  C   UNL     1      45.734   4.315  12.709  0.00  0.00    +0.000 A 
ATOM      7  C   UNL     1      46.743   5.118  13.245  0.00  0.00    +0.000 A 
BRANCH   5   8
ATOM      8  C   UNL     1      43.859   3.898  11.071  0.00  0.00    +0.000 C 
BRANCH   8   9
ATOM      9  O   UNL     1      43.746   4.174   9.672  0.00  0.00    +0.000 OA
BRANCH   9  10
ATOM     10  C   UNL     1      44.733   3.549   8.933  0.00  0.00    +0.000 A 
ATOM     11  C   UNL     1      44.918   2.193   9.148  0.00  0.00    +0.000 A 
ATOM     12  C   UNL     1      45.890   1.529   8.402  0.00  0.00    +0.000 A 
ATOM     13  C   UNL     1      46.638   2.244   7.473  0.00  0.00    +0.000 A 
ATOM     14  C   UNL     1      46.385   3.598   7.331  0.00  0.00    +0.000 A 
ATOM     15  N   UNL     1      45.452   4.266   8.042  0.00  0.00    +0.000 NA
ENDBRANCH   9  10
ENDBRANCH   8   9
ENDBRANCH   5   8
ENDBRANCH   1   2
BRANCH   1  16
ATOM     16  N   UNL     1      48.022   7.228  14.766  0.00  0.00    +0.000 N 
ATOM     17  C   UNL     1      49.050   6.946  15.626  0.00  0.00    +0.000 C 
ATOM     18  O   UNL     1      50.207   6.757  15.256  0.00  0.00    +0.000 OA
ATOM     19  H   UNL     1      47.076   7.099  15.112  0.00  0.00    +0.000 HD
BRANCH  17  20
ATOM     20  C   UNL     1      48.693   6.926  17.047  0.00  0.00    +0.000 A 
ATOM     21  C   UNL     1      48.294   8.087  17.691  0.00  0.00    +0.000 A 
ATOM     22  S   UNL     1      47.949   7.859  19.349  0.00  0.00    +0.000 S 
ATOM     23  C   UNL     1      48.361   6.210  19.266  0.00  0.00    +0.000 A 
ATOM     24  N   UNL     1      48.348   5.420  20.376  0.00  0.00    +0.000 NA
ATOM     25  C   UNL     1      48.713   4.200  20.165  0.00  0.00    +0.000 A 
ATOM     26  N   UNL     1      49.066   3.686  18.944  0.00  0.00    +0.000 N 
ATOM     27  C   UNL     1      49.041   4.431  17.794  0.00  0.00    +0.000 A 
ATOM     28  O   UNL     1      49.269   3.918  16.706  0.00  0.00    +0.000 OA
ATOM     29  C   UNL     1      48.700   5.828  17.982  0.00  0.00    +0.000 A 
ATOM     30  H   UNL     1      49.304   2.713  18.833  0.00  0.00    +0.000 HD
ENDBRANCH  17  20
ENDBRANCH   1  16
BRANCH   1  31
ATOM     31  C   UNL     1      48.058   8.707  12.777  0.00  0.00    +0.000 C 
BRANCH  31  33
ATOM     32  C   UNL     1      50.148   7.850  11.687  0.00  0.00    +0.000 C 
ATOM     33  C   UNL     1      49.216   9.040  11.836  0.00  0.00    +0.000 C 
ENDBRANCH  31  33
ENDBRANCH   1  31
TORSDOF 8
ENDMDL
MODEL 3
REMARK VINA RESULT:    -7.966      1.964      2.672
REMARK INTER + INTRA:         -13.161
REMARK INTER:                 -11.730
REMARK INTRA:                  -1.430
REMARK UNBOUND:                -1.470
REMARK  Name = 
REMARK  9 active torsions:
REMARK  status: ('A' for Active; 'I' for Inactive)
REMARK    1  A    between atoms: C_1  and  C_2
REMARK    2  A    between atoms: C_2  and  C_3
REMARK    3  A    between atoms: C_3  and  C_4
REMARK    4  A    between atoms: C_4  and  N_5
REMARK    5  A    between atoms: C_4  and  C_18
REMARK    6  A    between atoms: C_6  and  C_8
REMARK    7  A    between atoms: C_21  and  C_22
REMARK    8  A    between atoms: C_22  and  O_23
REMARK    9  A    between atoms: O_23  and  C_24
REMARK                            x       y       z     vdW  Elec       q    Type
REMARK                         _______ _______ _______ _____ _____    ______ ____
ROOT
ATOM      1  C   UNL     1      47.516   6.898  13.479  0.00  0.00    +0.000 C 
ENDROOT
BRANCH   1   2
ATOM      2  C   UNL     1      46.630   5.927  12.697  0.00  0.00    +0.000 A 
ATOM      3  C   UNL     1      46.134   6.260  11.429  0.00  0.00    +0.000 A 
ATOM      4  C   UNL     1      45.348   5.350  10.710  0.00  0.00    +0.000 A 
ATOM      5  C   UNL     1      45.044   4.089  11.240  0.00  0.00    +0.000 A 
ATOM      6  C   UNL     1      45.532   3.758  12.508  0.00  0.00    +0.000 A 
ATOM      7  C   UNL     1      46.311   4.666  13.229  0.00  0.00    +0.000 A 
BRANCH   5   8
ATOM      8  C   UNL     1      44.226   3.088  10.454  0.00  0.00    +0.000 C 
BRANCH   8   9
ATOM      9  O   UNL     1      44.252   3.449   9.070  0.00  0.00    +0.000 OA
BRANCH   9  10
ATOM     10  C   UNL     1      45.287   2.837   8.387  0.00  0.00    +0.000 A 
ATOM     11  C   UNL     1      46.029   3.630   7.527  0.00  0.00    +0.000 A 
ATOM     12  C   UNL     1      47.093   3.047   6.841  0.00  0.00    +0.000 A 
ATOM     13  C   UNL     1      47.374   1.699   7.039  0.00  0.00    +0.000 A 
ATOM     14  C   UNL     1      46.572   0.987   7.915  0.00  0.00    +0.000 A 
ATOM     15  N   UNL     1      45.534   1.524   8.590  0.00  0.00    +0.000 NA
ENDBRANCH   9  10
ENDBRANCH   8   9
ENDBRANCH   5   8
ENDBRANCH   1   2
BRANCH   1  16
ATOM     16  N   UNL     1      47.631   6.401  14.844  0.00  0.00    +0.000 N 
ATOM     17  C   UNL     1      48.787   6.336  15.575  0.00  0.00    +0.000 C 
ATOM     18  O   UNL     1      49.866   6.764  15.172  0.00  0.00    +0.000 OA
ATOM     19  H   UNL     1      46.867   5.795  15.125  0.00  0.00    +0.000 HD
BRANCH  17  20
ATOM     20  C   UNL     1      48.652   5.754  16.914  0.00  0.00    +0.000 A 
ATOM     21  C   UNL     1      48.849   4.397  17.117  0.00  0.00    +0.000 A 
ATOM     22  S   UNL     1      48.618   3.913  18.739  0.00  0.00    +0.000 S 
ATOM     23  C   UNL     1      48.208   5.495  19.213  0.00  0.00    +0.000 A 
ATOM     24  N   UNL     1      47.829   5.776  20.489  0.00  0.00    +0.000 NA
ATOM     25  C   UNL     1      47.518   7.012  20.693  0.00  0.00    +0.000 A 
ATOM     26  N   UNL     1      47.574   8.002  19.745  0.00  0.00    +0.000 N 
ATOM     27  C   UNL     1      48.002   7.774  18.464  0.00  0.00    +0.000 A 
ATOM     28  O   UNL     1      48.132   8.696  17.669  0.00  0.00    +0.000 OA
ATOM     29  C   UNL     1      48.302   6.388  18.161  0.00  0.00    +0.000 A 
ATOM     30  H   UNL     1      47.358   8.959  19.974  0.00  0.00    +0.000 HD
ENDBRANCH  17  20
ENDBRANCH   1  16
BRANCH   1  31
ATOM     31  C   UNL     1      46.954   8.331  13.442  0.00  0.00    +0.000 C 
BRANCH  31  33
ATOM     32  C   UNL     1      48.998   8.620  12.017  0.00  0.00    +0.000 C 
ATOM     33  C   UNL     1      47.665   9.223  12.425  0.00  0.00    +0.000 C 
ENDBRANCH  31  33
ENDBRANCH   1  31
TORSDOF 8
ENDMDL
MODEL 4
REMARK VINA RESULT:    -7.507      2.477      4.847
REMARK INTER + INTRA:         -12.488
REMARK INTER:                 -10.966
REMARK INTRA:                  -1.522
REMARK UNBOUND:                -1.470
REMARK  Name = 
REMARK  9 active torsions:
REMARK  status: ('A' for Active; 'I' for Inactive)
REMARK    1  A    between atoms: C_1  and  C_2
REMARK    2  A    between atoms: C_2  and  C_3
REMARK    3  A    between atoms: C_3  and  C_4
REMARK    4  A    between atoms: C_4  and  N_5
REMARK    5  A    between atoms: C_4  and  C_18
REMARK    6  A    between atoms: C_6  and  C_8
REMARK    7  A    between atoms: C_21  and  C_22
REMARK    8  A    between atoms: C_22  and  O_23
REMARK    9  A    between atoms: O_23  and  C_24
REMARK                            x       y       z     vdW  Elec       q    Type
REMARK                         _______ _______ _______ _____ _____    ______ ____
ROOT
ATOM      1  C   UNL     1      47.114   5.491  14.436  0.00  0.00    +0.000 C 
ENDROOT
BRANCH   1   2
ATOM      2  C   UNL     1      46.333   5.104  13.180  0.00  0.00    +0.000 A 
ATOM      3  C   UNL     1      46.302   5.945  12.058  0.00  0.00    +0.000 A 
ATOM      4  C   UNL     1      45.608   5.565  10.902  0.00  0.00    +0.000 A 
ATOM      5  C   UNL     1      44.935   4.338  10.839  0.00  0.00    +0.000 A 
ATOM      6  C   UNL     1      44.958   3.501  11.960  0.00  0.00    +0.000 A 
ATOM      7  C   UNL     1      45.644   3.880  13.116  0.00  0.00    +0.000 A 
BRANCH   5   8
ATOM      8  C   UNL     1      44.214   3.906   9.582  0.00  0.00    +0.000 C 
BRANCH   8   9
ATOM      9  O   UNL     1      44.502   2.527   9.330  0.00  0.00    +0.000 OA
BRANCH   9  10
ATOM     10  C   UNL     1      45.499   2.364   8.385  0.00  0.00    +0.000 A 
ATOM     11  C   UNL     1      45.764   3.443   7.557  0.00  0.00    +0.000 A 
ATOM     12  C   UNL     1      46.778   3.317   6.609  0.00  0.00    +0.000 A 
ATOM     13  C   UNL     1      47.485   2.122   6.525  0.00  0.00    +0.000 A 
ATOM     14  C   UNL     1      47.144   1.098   7.392  0.00  0.00    +0.000 A 
ATOM     15  N   UNL     1      46.166   1.191   8.317  0.00  0.00    +0.000 NA
ENDBRANCH   9  10
ENDBRANCH   8   9
ENDBRANCH   5   8
ENDBRANCH   1   2
BRANCH   1  16
ATOM     16  N   UNL     1      48.254   6.299  14.026  0.00  0.00    +0.000 N 
ATOM     17  C   UNL     1      48.853   7.274  14.777  0.00  0.00    +0.000 C 
ATOM     18  O   UNL     1      48.527   7.531  15.934  0.00  0.00    +0.000 OA
ATOM     19  H   UNL     1      48.389   6.336  13.021  0.00  0.00    +0.000 HD
BRANCH  17  20
ATOM     20  C   UNL     1      49.960   7.980  14.124  0.00  0.00    +0.000 A 
ATOM     21  C   UNL     1      51.252   7.874  14.615  0.00  0.00    +0.000 A 
ATOM     22  S   UNL     1      52.391   8.793  13.732  0.00  0.00    +0.000 S 
ATOM     23  C   UNL     1      51.185   9.391  12.690  0.00  0.00    +0.000 A 
ATOM     24  N   UNL     1      51.476  10.300  11.720  0.00  0.00    +0.000 NA
ATOM     25  C   UNL     1      50.456  10.686  11.029  0.00  0.00    +0.000 A 
ATOM     26  N   UNL     1      49.174  10.230  11.200  0.00  0.00    +0.000 N 
ATOM     27  C   UNL     1      48.847   9.276  12.128  0.00  0.00    +0.000 A 
ATOM     28  O   UNL     1      47.713   8.821  12.191  0.00  0.00    +0.000 OA
ATOM     29  C   UNL     1      49.944   8.854  12.977  0.00  0.00    +0.000 A 
ATOM     30  H   UNL     1      48.423  10.538  10.602  0.00  0.00    +0.000 HD
ENDBRANCH  17  20
ENDBRANCH   1  16
BRANCH   1  31
ATOM     31  C   UNL     1      47.554   4.249  15.232  0.00  0.00    +0.000 C 
BRANCH  31  33
ATOM     32  C   UNL     1      47.329   3.012  17.403  0.00  0.00    +0.000 C 
ATOM     33  C   UNL     1      47.282   4.374  16.730  0.00  0.00    +0.000 C 
ENDBRANCH  31  33
ENDBRANCH   1  31
TORSDOF 8
ENDMDL
MODEL 5
REMARK VINA RESULT:    -7.371      2.655      4.338
REMARK INTER + INTRA:         -12.289
REMARK INTER:                 -10.911
REMARK INTRA:                  -1.378
REMARK UNBOUND:                -1.470
REMARK  Name = 
REMARK  9 active torsions:
REMARK  status: ('A' for Active; 'I' for Inactive)
REMARK    1  A    between atoms: C_1  and  C_2
REMARK    2  A    between atoms: C_2  and  C_3
REMARK    3  A    between atoms: C_3  and  C_4
REMARK    4  A    between atoms: C_4  and  N_5
REMARK    5  A    between atoms: C_4  and  C_18
REMARK    6  A    between atoms: C_6  and  C_8
REMARK    7  A    between atoms: C_21  and  C_22
REMARK    8  A    between atoms: C_22  and  O_23
REMARK    9  A    between atoms: O_23  and  C_24
REMARK                            x       y       z     vdW  Elec       q    Type
REMARK                         _______ _______ _______ _____ _____    ______ ____
ROOT
ATOM      1  C   UNL     1      46.977   5.548  14.233  0.00  0.00    +0.000 C 
ENDROOT
BRANCH   1   2
ATOM      2  C   UNL     1      46.274   5.133  12.940  0.00  0.00    +0.000 A 
ATOM      3  C   UNL     1      45.608   3.903  12.841  0.00  0.00    +0.000 A 
ATOM      4  C   UNL     1      44.942   3.547  11.661  0.00  0.00    +0.000 A 
ATOM      5  C   UNL     1      44.924   4.411  10.558  0.00  0.00    +0.000 A 
ATOM      6  C   UNL     1      45.594   5.636  10.652  0.00  0.00    +0.000 A 
ATOM      7  C   UNL     1      46.264   5.990  11.826  0.00  0.00    +0.000 A 
BRANCH   5   8
ATOM      8  C   UNL     1      44.177   4.049   9.293  0.00  0.00    +0.000 C 
BRANCH   8   9
ATOM      9  O   UNL     1      44.333   2.649   9.044  0.00  0.00    +0.000 OA
BRANCH   9  10
ATOM     10  C   UNL     1      45.394   2.381   8.200  0.00  0.00    +0.000 A 
ATOM     11  C   UNL     1      45.692   3.336   7.240  0.00  0.00    +0.000 A 
ATOM     12  C   UNL     1      46.771   3.105   6.388  0.00  0.00    +0.000 A 
ATOM     13  C   UNL     1      47.508   1.934   6.527  0.00  0.00    +0.000 A 
ATOM     14  C   UNL     1      47.131   1.036   7.512  0.00  0.00    +0.000 A 
ATOM     15  N   UNL     1      46.090   1.233   8.349  0.00  0.00    +0.000 NA
ENDBRANCH   9  10
ENDBRANCH   8   9
ENDBRANCH   5   8
ENDBRANCH   1   2
BRANCH   1  16
ATOM     16  N   UNL     1      48.123   6.374  13.876  0.00  0.00    +0.000 N 
ATOM     17  C   UNL     1      48.156   7.743  13.887  0.00  0.00    +0.000 C 
ATOM     18  O   UNL     1      47.219   8.437  14.276  0.00  0.00    +0.000 OA
ATOM     19  H   UNL     1      48.808   5.896  13.299  0.00  0.00    +0.000 HD
BRANCH  17  20
ATOM     20  C   UNL     1      49.416   8.344  13.442  0.00  0.00    +0.000 A 
ATOM     21  C   UNL     1      49.445   9.194  12.347  0.00  0.00    +0.000 A 
ATOM     22  S   UNL     1      51.011   9.767  11.973  0.00  0.00    +0.000 S 
ATOM     23  C   UNL     1      51.704   8.866  13.239  0.00  0.00    +0.000 A 
ATOM     24  N   UNL     1      53.050   8.852  13.443  0.00  0.00    +0.000 NA
ATOM     25  C   UNL     1      53.433   8.100  14.420  0.00  0.00    +0.000 A 
ATOM     26  N   UNL     1      52.594   7.377  15.230  0.00  0.00    +0.000 N 
ATOM     27  C   UNL     1      51.231   7.405  15.094  0.00  0.00    +0.000 A 
ATOM     28  O   UNL     1      50.506   6.826  15.892  0.00  0.00    +0.000 OA
ATOM     29  C   UNL     1      50.749   8.184  13.970  0.00  0.00    +0.000 A 
ATOM     30  H   UNL     1      52.949   6.838  16.004  0.00  0.00    +0.000 HD
ENDBRANCH  17  20
ENDBRANCH   1  16
BRANCH   1  31
ATOM     31  C   UNL     1      47.397   4.324  15.066  0.00  0.00    +0.000 C 
BRANCH  31  33
ATOM     32  C   UNL     1      47.282   3.380  17.388  0.00  0.00    +0.000 C 
ATOM     33  C   UNL     1      47.515   4.631  16.559  0.00  0.00    +0.000 C 
ENDBRANCH  31  33
ENDBRANCH   1  31
TORSDOF 8
ENDMDL
MODEL 6
REMARK VINA RESULT:    -6.999      2.546      3.619
REMARK INTER + INTRA:         -11.742
REMARK INTER:                 -10.573
REMARK INTRA:                  -1.169
REMARK UNBOUND:                -1.470
REMARK  Name = 
REMARK  9 active torsions:
REMARK  status: ('A' for Active; 'I' for Inactive)
REMARK    1  A    between atoms: C_1  and  C_2
REMARK    2  A    between atoms: C_2  and  C_3
REMARK    3  A    between atoms: C_3  and  C_4
REMARK    4  A    between atoms: C_4  and  N_5
REMARK    5  A    between atoms: C_4  and  C_18
REMARK    6  A    between atoms: C_6  and  C_8
REMARK    7  A    between atoms: C_21  and  C_22
REMARK    8  A    between atoms: C_22  and  O_23
REMARK    9  A    between atoms: O_23  and  C_24
REMARK                            x       y       z     vdW  Elec       q    Type
REMARK                         _______ _______ _______ _____ _____    ______ ____
ROOT
ATOM      1  C   UNL     1      48.415   6.657  13.375  0.00  0.00    +0.000 C 
ENDROOT
BRANCH   1   2
ATOM      2  C   UNL     1      47.142   6.078  12.757  0.00  0.00    +0.000 A 
ATOM      3  C   UNL     1      46.552   4.914  13.268  0.00  0.00    +0.000 A 
ATOM      4  C   UNL     1      45.369   4.411  12.712  0.00  0.00    +0.000 A 
ATOM      5  C   UNL     1      44.749   5.061  11.636  0.00  0.00    +0.000 A 
ATOM      6  C   UNL     1      45.340   6.219  11.119  0.00  0.00    +0.000 A 
ATOM      7  C   UNL     1      46.523   6.718  11.669  0.00  0.00    +0.000 A 
BRANCH   5   8
ATOM      8  C   UNL     1      43.452   4.544  11.054  0.00  0.00    +0.000 C 
BRANCH   8   9
ATOM      9  O   UNL     1      43.608   3.161  10.723  0.00  0.00    +0.000 OA
BRANCH   9  10
ATOM     10  C   UNL     1      44.431   2.973   9.629  0.00  0.00    +0.000 A 
ATOM     11  C   UNL     1      44.496   4.003   8.704  0.00  0.00    +0.000 A 
ATOM     12  C   UNL     1      45.334   3.853   7.601  0.00  0.00    +0.000 A 
ATOM     13  C   UNL     1      46.073   2.683   7.464  0.00  0.00    +0.000 A 
ATOM     14  C   UNL     1      45.939   1.706   8.436  0.00  0.00    +0.000 A 
ATOM     15  N   UNL     1      45.133   1.824   9.513  0.00  0.00    +0.000 NA
ENDBRANCH   9  10
ENDBRANCH   8   9
ENDBRANCH   5   8
ENDBRANCH   1   2
BRANCH   1  16
ATOM     16  N   UNL     1      48.148   6.932  14.780  0.00  0.00    +0.000 N 
ATOM     17  C   UNL     1      49.022   6.728  15.814  0.00  0.00    +0.000 C 
ATOM     18  O   UNL     1      50.180   6.346  15.655  0.00  0.00    +0.000 OA
ATOM     19  H   UNL     1      47.159   6.977  15.008  0.00  0.00    +0.000 HD
BRANCH  17  20
ATOM     20  C   UNL     1      48.501   7.040  17.148  0.00  0.00    +0.000 A 
ATOM     21  C   UNL     1      48.278   6.032  18.074  0.00  0.00    +0.000 A 
ATOM     22  S   UNL     1      47.644   6.599  19.556  0.00  0.00    +0.000 S 
ATOM     23  C   UNL     1      47.611   8.205  18.992  0.00  0.00    +0.000 A 
ATOM     24  N   UNL     1      47.107   9.213  19.757  0.00  0.00    +0.000 NA
ATOM     25  C   UNL     1      47.119  10.370  19.186  0.00  0.00    +0.000 A 
ATOM     26  N   UNL     1      47.609  10.622  17.930  0.00  0.00    +0.000 N 
ATOM     27  C   UNL     1      48.173   9.648  17.149  0.00  0.00    +0.000 A 
ATOM     28  O   UNL     1      48.689   9.922  16.074  0.00  0.00    +0.000 OA
ATOM     29  C   UNL     1      48.128   8.313  17.715  0.00  0.00    +0.000 A 
ATOM     30  H   UNL     1      47.629  11.556  17.552  0.00  0.00    +0.000 HD
ENDBRANCH  17  20
ENDBRANCH   1  16
BRANCH   1  31
ATOM     31  C   UNL     1      48.882   7.920  12.628  0.00  0.00    +0.000 C 
BRANCH  31  33
ATOM     32  C   UNL     1      50.741   8.981  11.320  0.00  0.00    +0.000 C 
ATOM     33  C   UNL     1      50.097   7.670  11.736  0.00  0.00    +0.000 C 
ENDBRANCH  31  33
ENDBRANCH   1  31
TORSDOF 8
ENDMDL
MODEL 7
REMARK VINA RESULT:    -6.966      3.252      7.685
REMARK INTER + INTRA:         -11.694
REMARK INTER:                 -10.112
REMARK INTRA:                  -1.582
REMARK UNBOUND:                -1.470
REMARK  Name = 
REMARK  9 active torsions:
REMARK  status: ('A' for Active; 'I' for Inactive)
REMARK    1  A    between atoms: C_1  and  C_2
REMARK    2  A    between atoms: C_2  and  C_3
REMARK    3  A    between atoms: C_3  and  C_4
REMARK    4  A    between atoms: C_4  and  N_5
REMARK    5  A    between atoms: C_4  and  C_18
REMARK    6  A    between atoms: C_6  and  C_8
REMARK    7  A    between atoms: C_21  and  C_22
REMARK    8  A    between atoms: C_22  and  O_23
REMARK    9  A    between atoms: O_23  and  C_24
REMARK                            x       y       z     vdW  Elec       q    Type
REMARK                         _______ _______ _______ _____ _____    ______ ____
ROOT
ATOM      1  C   UNL     1      48.312   7.664  12.549  0.00  0.00    +0.000 C 
ENDROOT
BRANCH   1   2
ATOM      2  C   UNL     1      48.702   7.065  13.900  0.00  0.00    +0.000 A 
ATOM      3  C   UNL     1      49.840   7.509  14.590  0.00  0.00    +0.000 A 
ATOM      4  C   UNL     1      50.170   6.972  15.841  0.00  0.00    +0.000 A 
ATOM      5  C   UNL     1      49.370   5.985  16.432  0.00  0.00    +0.000 A 
ATOM      6  C   UNL     1      48.239   5.534  15.743  0.00  0.00    +0.000 A 
ATOM      7  C   UNL     1      47.912   6.064  14.492  0.00  0.00    +0.000 A 
BRANCH   5   8
ATOM      8  C   UNL     1      49.700   5.427  17.798  0.00  0.00    +0.000 C 
BRANCH   8   9
ATOM      9  O   UNL     1      49.411   4.026  17.812  0.00  0.00    +0.000 OA
BRANCH   9  10
ATOM     10  C   UNL     1      50.556   3.253  17.791  0.00  0.00    +0.000 A 
ATOM     11  C   UNL     1      51.734   3.860  18.198  0.00  0.00    +0.000 A 
ATOM     12  C   UNL     1      52.902   3.101  18.209  0.00  0.00    +0.000 A 
ATOM     13  C   UNL     1      52.851   1.769  17.813  0.00  0.00    +0.000 A 
ATOM     14  C   UNL     1      51.629   1.251  17.417  0.00  0.00    +0.000 A 
ATOM     15  N   UNL     1      50.483   1.963  17.394  0.00  0.00    +0.000 NA
ENDBRANCH   9  10
ENDBRANCH   8   9
ENDBRANCH   5   8
ENDBRANCH   1   2
BRANCH   1  16
ATOM     16  N   UNL     1      47.528   6.673  11.827  0.00  0.00    +0.000 N 
ATOM     17  C   UNL     1      46.182   6.740  11.583  0.00  0.00    +0.000 C 
ATOM     18  O   UNL     1      45.487   7.704  11.898  0.00  0.00    +0.000 OA
ATOM     19  H   UNL     1      47.963   5.755  11.788  0.00  0.00    +0.000 HD
BRANCH  17  20
ATOM     20  C   UNL     1      45.613   5.592  10.871  0.00  0.00    +0.000 A 
ATOM     21  C   UNL     1      45.712   5.497   9.492  0.00  0.00    +0.000 A 
ATOM     22  S   UNL     1      44.962   4.101   8.852  0.00  0.00    +0.000 S 
ATOM     23  C   UNL     1      44.448   3.601  10.396  0.00  0.00    +0.000 A 
ATOM     24  N   UNL     1      43.682   2.488  10.560  0.00  0.00    +0.000 NA
ATOM     25  C   UNL     1      43.343   2.250  11.782  0.00  0.00    +0.000 A 
ATOM     26  N   UNL     1      43.719   3.008  12.862  0.00  0.00    +0.000 N 
ATOM     27  C   UNL     1      44.532   4.104  12.748  0.00  0.00    +0.000 A 
ATOM     28  O   UNL     1      44.927   4.702  13.741  0.00  0.00    +0.000 OA
ATOM     29  C   UNL     1      44.891   4.456  11.388  0.00  0.00    +0.000 A 
ATOM     30  H   UNL     1      43.456   2.750  13.801  0.00  0.00    +0.000 HD
ENDBRANCH  17  20
ENDBRANCH   1  16
BRANCH   1  31
ATOM     31  C   UNL     1      49.551   8.103  11.747  0.00  0.00    +0.000 C 
BRANCH  31  33
ATOM     32  C   UNL     1      48.220  10.229  11.761  0.00  0.00    +0.000 C 
ATOM     33  C   UNL     1      49.568   9.602  11.450  0.00  0.00    +0.000 C 
ENDBRANCH  31  33
ENDBRANCH   1  31
TORSDOF 8
ENDMDL
MODEL 8
REMARK VINA RESULT:    -6.259      2.571      2.860
REMARK INTER + INTRA:         -10.656
REMARK INTER:                  -9.272
REMARK INTRA:                  -1.384
REMARK UNBOUND:                -1.470
REMARK  Name = 
REMARK  9 active torsions:
REMARK  status: ('A' for Active; 'I' for Inactive)
REMARK    1  A    between atoms: C_1  and  C_2
REMARK    2  A    between atoms: C_2  and  C_3
REMARK    3  A    between atoms: C_3  and  C_4
REMARK    4  A    between atoms: C_4  and  N_5
REMARK    5  A    between atoms: C_4  and  C_18
REMARK    6  A    between atoms: C_6  and  C_8
REMARK    7  A    between atoms: C_21  and  C_22
REMARK    8  A    between atoms: C_22  and  O_23
REMARK    9  A    between atoms: O_23  and  C_24
REMARK                            x       y       z     vdW  Elec       q    Type
REMARK                         _______ _______ _______ _____ _____    ______ ____
ROOT
ATOM      1  C   UNL     1      46.760   8.338  12.523  0.00  0.00    +0.000 C 
ENDROOT
BRANCH   1   2
ATOM      2  C   UNL     1      46.088   7.010  12.175  0.00  0.00    +0.000 A 
ATOM      3  C   UNL     1      44.941   6.967  11.370  0.00  0.00    +0.000 A 
ATOM      4  C   UNL     1      44.352   5.741  11.033  0.00  0.00    +0.000 A 
ATOM      5  C   UNL     1      44.896   4.534  11.490  0.00  0.00    +0.000 A 
ATOM      6  C   UNL     1      46.036   4.574  12.300  0.00  0.00    +0.000 A 
ATOM      7  C   UNL     1      46.621   5.796  12.642  0.00  0.00    +0.000 A 
BRANCH   5   8
ATOM      8  C   UNL     1      44.287   3.205  11.101  0.00  0.00    +0.000 C 
BRANCH   8   9
ATOM      9  O   UNL     1      43.860   3.269   9.737  0.00  0.00    +0.000 OA
BRANCH   9  10
ATOM     10  C   UNL     1      44.895   3.034   8.851  0.00  0.00    +0.000 A 
ATOM     11  C   UNL     1      45.439   1.760   8.842  0.00  0.00    +0.000 A 
ATOM     12  C   UNL     1      46.469   1.485   7.945  0.00  0.00    +0.000 A 
ATOM     13  C   UNL     1      46.915   2.491   7.094  0.00  0.00    +0.000 A 
ATOM     14  C   UNL     1      46.314   3.735   7.180  0.00  0.00    +0.000 A 
ATOM     15  N   UNL     1      45.316   4.029   8.041  0.00  0.00    +0.000 NA
ENDBRANCH   9  10
ENDBRANCH   8   9
ENDBRANCH   5   8
ENDBRANCH   1   2
BRANCH   1  16
ATOM     16  N   UNL     1      47.769   8.078  13.541  0.00  0.00    +0.000 N 
ATOM     17  C   UNL     1      48.883   8.839  13.775  0.00  0.00    +0.000 C 
ATOM     18  O   UNL     1      49.120   9.888  13.180  0.00  0.00    +0.000 OA
ATOM     19  H   UNL     1      47.786   7.116  13.865  0.00  0.00    +0.000 HD
BRANCH  17  20
ATOM     20  C   UNL     1      49.773   8.344  14.829  0.00  0.00    +0.000 A 
ATOM     21  C   UNL     1      50.984   7.749  14.509  0.00  0.00    +0.000 A 
ATOM     22  S   UNL     1      51.859   7.215  15.876  0.00  0.00    +0.000 S 
ATOM     23  C   UNL     1      50.629   7.726  16.935  0.00  0.00    +0.000 A 
ATOM     24  N   UNL     1      50.713   7.507  18.276  0.00  0.00    +0.000 NA
ATOM     25  C   UNL     1      49.692   7.921  18.948  0.00  0.00    +0.000 A 
ATOM     26  N   UNL     1      48.603   8.558  18.409  0.00  0.00    +0.000 N 
ATOM     27  C   UNL     1      48.503   8.847  17.074  0.00  0.00    +0.000 A 
ATOM     28  O   UNL     1      47.564   9.500  16.639  0.00  0.00    +0.000 OA
ATOM     29  C   UNL     1      49.594   8.345  16.260  0.00  0.00    +0.000 A 
ATOM     30  H   UNL     1      47.853   8.896  18.991  0.00  0.00    +0.000 HD
ENDBRANCH  17  20
ENDBRANCH   1  16
BRANCH   1  31
ATOM     31  C   UNL     1      45.733   9.384  12.996  0.00  0.00    +0.000 C 
BRANCH  31  33
ATOM     32  C   UNL     1      46.375  11.348  11.573  0.00  0.00    +0.000 C 
ATOM     33  C   UNL     1      45.291  10.330  11.880  0.00  0.00    +0.000 C 
ENDBRANCH  31  33
ENDBRANCH   1  31
TORSDOF 8
ENDMDL
MODEL 9
REMARK VINA RESULT:    -6.248      4.086      6.656
REMARK INTER + INTRA:         -10.640
REMARK INTER:                  -9.285
REMARK INTRA:                  -1.355
REMARK UNBOUND:                -1.470
REMARK  Name = 
REMARK  9 active torsions:
REMARK  status: ('A' for Active; 'I' for Inactive)
REMARK    1  A    between atoms: C_1  and  C_2
REMARK    2  A    between atoms: C_2  and  C_3
REMARK    3  A    between atoms: C_3  and  C_4
REMARK    4  A    between atoms: C_4  and  N_5
REMARK    5  A    between atoms: C_4  and  C_18
REMARK    6  A    between atoms: C_6  and  C_8
REMARK    7  A    between atoms: C_21  and  C_22
REMARK    8  A    between atoms: C_22  and  O_23
REMARK    9  A    between atoms: O_23  and  C_24
REMARK                            x       y       z     vdW  Elec       q    Type
REMARK                         _______ _______ _______ _____ _____    ______ ____
ROOT
ATOM      1  C   UNL     1      46.030   8.235  12.883  0.00  0.00    +0.000 C 
ENDROOT
BRANCH   1   2
ATOM      2  C   UNL     1      47.466   8.327  12.365  0.00  0.00    +0.000 A 
ATOM      3  C   UNL     1      48.288   7.192  12.300  0.00  0.00    +0.000 A 
ATOM      4  C   UNL     1      49.591   7.284  11.796  0.00  0.00    +0.000 A 
ATOM      5  C   UNL     1      50.101   8.508  11.343  0.00  0.00    +0.000 A 
ATOM      6  C   UNL     1      49.285   9.643  11.413  0.00  0.00    +0.000 A 
ATOM      7  C   UNL     1      47.988   9.555  11.921  0.00  0.00    +0.000 A 
BRANCH   5   8
ATOM      8  C   UNL     1      51.494   8.608  10.763  0.00  0.00    +0.000 C 
BRANCH   8   9
ATOM      9  O   UNL     1      52.187   7.379  11.000  0.00  0.00    +0.000 OA
BRANCH   9  10
ATOM     10  C   UNL     1      52.726   6.849   9.842  0.00  0.00    +0.000 A 
ATOM     11  C   UNL     1      52.407   7.483   8.652  0.00  0.00    +0.000 A 
ATOM     12  C   UNL     1      52.953   6.986   7.469  0.00  0.00    +0.000 A 
ATOM     13  C   UNL     1      53.793   5.879   7.521  0.00  0.00    +0.000 A 
ATOM     14  C   UNL     1      54.049   5.310   8.757  0.00  0.00    +0.000 A 
ATOM     15  N   UNL     1      53.533   5.768   9.917  0.00  0.00    +0.000 NA
ENDBRANCH   9  10
ENDBRANCH   8   9
ENDBRANCH   5   8
ENDBRANCH   1   2
BRANCH   1  16
ATOM     16  N   UNL     1      45.433   7.023  12.339  0.00  0.00    +0.000 N 
ATOM     17  C   UNL     1      45.478   5.782  12.916  0.00  0.00    +0.000 C 
ATOM     18  O   UNL     1      45.981   5.567  14.017  0.00  0.00    +0.000 OA
ATOM     19  H   UNL     1      45.256   7.066  11.340  0.00  0.00    +0.000 HD
BRANCH  17  20
ATOM     20  C   UNL     1      44.838   4.709  12.149  0.00  0.00    +0.000 A 
ATOM     21  C   UNL     1      44.019   3.784  12.778  0.00  0.00    +0.000 A 
ATOM     22  S   UNL     1      43.394   2.599  11.716  0.00  0.00    +0.000 S 
ATOM     23  C   UNL     1      44.231   3.263  10.391  0.00  0.00    +0.000 A 
ATOM     24  N   UNL     1      44.185   2.681   9.162  0.00  0.00    +0.000 NA
ATOM     25  C   UNL     1      44.893   3.278   8.263  0.00  0.00    +0.000 A 
ATOM     26  N   UNL     1      45.626   4.418   8.471  0.00  0.00    +0.000 N 
ATOM     27  C   UNL     1      45.657   5.066   9.678  0.00  0.00    +0.000 A 
ATOM     28  O   UNL     1      46.243   6.134   9.805  0.00  0.00    +0.000 OA
ATOM     29  C   UNL     1      44.930   4.402  10.742  0.00  0.00    +0.000 A 
ATOM     30  H   UNL     1      46.129   4.863   7.719  0.00  0.00    +0.000 HD
ENDBRANCH  17  20
ENDBRANCH   1  16
BRANCH   1  31
ATOM     31  C   UNL     1      45.215   9.486  12.509  0.00  0.00    +0.000 C 
BRANCH  31  33
ATOM     32  C   UNL     1      43.807  10.620  10.770  0.00  0.00    +0.000 C 
ATOM     33  C   UNL     1      44.374   9.294  11.248  0.00  0.00    +0.000 C 
ENDBRANCH  31  33
ENDBRANCH   1  31
TORSDOF 8
ENDMDL
