MODEL 1
REMARK VINA RESULT:    -8.511      0.000      0.000
REMARK INTER + INTRA:         -11.958
REMARK INTER:                 -11.247
REMARK INTRA:                  -0.711
REMARK UNBOUND:                -0.711
REMARK  Name = 
REMARK  6 active torsions:
REMARK  status: ('A' for Active; 'I' for Inactive)
REMARK    1  A    between atoms: C_2  and  C_19
REMARK    2  A    between atoms: N_3  and  C_4
REMARK    3  A    between atoms: C_4  and  C_5
REMARK    4  A    between atoms: C_8  and  C_9
REMARK    5  A    between atoms: C_9  and  O_10
REMARK    6  A    between atoms: C_9  and  C_11
REMARK                            x       y       z     vdW  Elec       q    Type
REMARK                         _______ _______ _______ _____ _____    ______ ____
ROOT
ATOM      1  C   UNL     1      47.027   7.505  13.161  0.00  0.00    +0.000 C 
ENDROOT
BRANCH   1   2
ATOM      2  C   UNL     1      46.385   6.518  12.219  0.00  0.00    +0.000 A 
ATOM      3  C   UNL     1      46.557   6.631  10.841  0.00  0.00    +0.000 A 
ATOM      4  N   UNL     1      45.970   5.793   9.949  0.00  0.00    +0.000 NA
ATOM      5  C   UNL     1      45.206   4.800  10.486  0.00  0.00    +0.000 A 
ATOM      6  C   UNL     1      45.055   4.674  11.863  0.00  0.00    +0.000 A 
ATOM      7  N   UNL     1      45.629   5.521  12.752  0.00  0.00    +0.000 NA
BRANCH   5   8
ATOM      8  C   UNL     1      44.512   3.835   9.542  0.00  0.00    +0.000 C 
BRANCH   8   9
ATOM      9  C   UNL     1      45.450   3.110   8.600  0.00  0.00    +0.000 A 
ATOM     10  C   UNL     1      45.710   1.741   8.766  0.00  0.00    +0.000 A 
ATOM     11  C   UNL     1      46.530   1.061   7.862  0.00  0.00    +0.000 A 
ATOM     12  C   UNL     1      47.095   1.740   6.784  0.00  0.00    +0.000 A 
ATOM     13  C   UNL     1      46.852   3.100   6.612  0.00  0.00    +0.000 A 
ATOM     14  C   UNL     1      46.038   3.782   7.516  0.00  0.00    +0.000 A 
ENDBRANCH   8   9
BRANCH   8  15
ATOM     15  O   UNL     1      43.557   4.523   8.727  0.00  0.00    +0.000 OA
ATOM     16  H   UNL     1      43.738   4.214   7.815  0.00  0.00    +0.000 HD
ENDBRANCH   8  15
ENDBRANCH   5   8
ENDBRANCH   1   2
BRANCH   1  19
ATOM     17  O   UNL     1      49.619   6.940  14.029  0.00  0.00    +0.000 OA
ATOM     18  C   UNL     1      48.690   6.713  14.800  0.00  0.00    +0.000 C 
ATOM     19  N   UNL     1      47.387   6.926  14.437  0.00  0.00    +0.000 N 
ATOM     20  H   UNL     1      46.642   6.805  15.114  0.00  0.00    +0.000 HD
BRANCH  18  21
ATOM     21  C   UNL     1      48.921   6.157  16.136  0.00  0.00    +0.000 A 
ATOM     22  C   UNL     1      49.669   6.873  17.060  0.00  0.00    +0.000 A 
ATOM     23  S   UNL     1      49.830   6.086  18.564  0.00  0.00    +0.000 S 
ATOM     24  C   UNL     1      48.866   4.781  18.049  0.00  0.00    +0.000 A 
ATOM     25  N   UNL     1      48.569   3.754  18.889  0.00  0.00    +0.000 NA
ATOM     26  C   UNL     1      47.793   2.857  18.380  0.00  0.00    +0.000 A 
ATOM     27  N   UNL     1      47.295   2.886  17.103  0.00  0.00    +0.000 N 
ATOM     28  C   UNL     1      47.614   3.873  16.200  0.00  0.00    +0.000 A 
ATOM     29  O   UNL     1      47.231   3.822  15.035  0.00  0.00    +0.000 OA
ATOM     30  C   UNL     1      48.453   4.931  16.736  0.00  0.00    +0.000 A 
ATOM     31  H   UNL     1      46.708   2.140  16.761  0.00  0.00    +0.000 HD
ENDBRANCH  18  21
ENDBRANCH   1  19
TORSDOF 6
ENDMDL
MODEL 2
REMARK VINA RESULT:    -8.389      2.406      4.277
REMARK INTER + INTRA:         -11.797
REMARK INTER:                 -10.880
REMARK INTRA:                  -0.916
REMARK UNBOUND:                -0.711
REMARK  Name = 
REMARK  6 active torsions:
REMARK  status: ('A' for Active; 'I' for Inactive)
REMARK    1  A    between atoms: C_2  and  C_19
REMARK    2  A    between atoms: N_3  and  C_4
REMARK    3  A    between atoms: C_4  and  C_5
REMARK    4  A    between atoms: C_8  and  C_9
REMARK    5  A    between atoms: C_9  and  O_10
REMARK    6  A    between atoms: C_9  and  C_11
REMARK                            x       y       z     vdW  Elec       q    Type
REMARK                         _______ _______ _______ _____ _____    ______ ____
ROOT
ATOM      1  C   UNL     1      46.649   4.995  14.375  0.00  0.00    +0.000 C 
ENDROOT
BRANCH   1   2
ATOM      2  C   UNL     1      46.073   4.564  13.050  0.00  0.00    +0.000 A 
ATOM      3  C   UNL     1      45.981   5.459  11.986  0.00  0.00    +0.000 A 
ATOM      4  N   UNL     1      45.436   5.133  10.786  0.00  0.00    +0.000 NA
ATOM      5  C   UNL     1      44.995   3.848  10.668  0.00  0.00    +0.000 A 
ATOM      6  C   UNL     1      45.110   2.949  11.722  0.00  0.00    +0.000 A 
ATOM      7  N   UNL     1      45.640   3.281  12.925  0.00  0.00    +0.000 NA
BRANCH   5   8
ATOM      8  C   UNL     1      44.365   3.422   9.355  0.00  0.00    +0.000 C 
BRANCH   8   9
ATOM      9  C   UNL     1      45.340   2.812   8.370  0.00  0.00    +0.000 A 
ATOM     10  C   UNL     1      45.859   3.576   7.314  0.00  0.00    +0.000 A 
ATOM     11  C   UNL     1      46.802   3.029   6.441  0.00  0.00    +0.000 A 
ATOM     12  C   UNL     1      47.236   1.716   6.614  0.00  0.00    +0.000 A 
ATOM     13  C   UNL     1      46.723   0.943   7.652  0.00  0.00    +0.000 A 
ATOM     14  C   UNL     1      45.778   1.486   8.522  0.00  0.00    +0.000 A 
ENDBRANCH   8   9
BRANCH   8  15
ATOM     15  O   UNL     1      43.758   4.540   8.698  0.00  0.00    +0.000 OA
ATOM     16  H   UNL     1      42.934   4.183   8.307  0.00  0.00    +0.000 HD
ENDBRANCH   8  15
ENDBRANCH   5   8
ENDBRANCH   1   2
BRANCH   1  19
ATOM     17  O   UNL     1      49.063   5.847  15.487  0.00  0.00    +0.000 OA
ATOM     18  C   UNL     1      48.369   6.678  14.906  0.00  0.00    +0.000 C 
ATOM     19  N   UNL     1      47.155   6.350  14.366  0.00  0.00    +0.000 N 
ATOM     20  H   UNL     1      46.635   7.032  13.824  0.00  0.00    +0.000 HD
BRANCH  18  21
ATOM     21  C   UNL     1      48.783   8.080  14.796  0.00  0.00    +0.000 A 
ATOM     22  C   UNL     1      48.975   8.834  15.946  0.00  0.00    +0.000 A 
ATOM     23  S   UNL     1      49.463  10.437  15.637  0.00  0.00    +0.000 S 
ATOM     24  C   UNL     1      49.480  10.169  13.955  0.00  0.00    +0.000 A 
ATOM     25  N   UNL     1      49.857  11.149  13.093  0.00  0.00    +0.000 NA
ATOM     26  C   UNL     1      49.866  10.793  11.852  0.00  0.00    +0.000 A 
ATOM     27  N   UNL     1      49.520   9.548  11.393  0.00  0.00    +0.000 N 
ATOM     28  C   UNL     1      49.077   8.544  12.222  0.00  0.00    +0.000 A 
ATOM     29  O   UNL     1      48.683   7.471  11.773  0.00  0.00    +0.000 OA
ATOM     30  C   UNL     1      49.088   8.880  13.635  0.00  0.00    +0.000 A 
ATOM     31  H   UNL     1      49.529   9.342  10.406  0.00  0.00    +0.000 HD
ENDBRANCH  18  21
ENDBRANCH   1  19
TORSDOF 6
ENDMDL
MODEL 3
REMARK VINA RESULT:    -8.267      1.557      2.150
REMARK INTER + INTRA:         -11.636
REMARK INTER:                 -11.014
REMARK INTRA:                  -0.622
REMARK UNBOUND:                -0.711
REMARK  Name = 
REMARK  6 active torsions:
REMARK  status: ('A' for Active; 'I' for Inactive)
REMARK    1  A    between atoms: C_2  and  C_19
REMARK    2  A    between atoms: N_3  and  C_4
REMARK    3  A    between atoms: C_4  and  C_5
REMARK    4  A    between atoms: C_8  and  C_9
REMARK    5  A    between atoms: C_9  and  O_10
REMARK    6  A    between atoms: C_9  and  C_11
REMARK                            x       y       z     vdW  Elec       q    Type
REMARK                         _______ _______ _______ _____ _____    ______ ____
ROOT
ATOM      1  C   UNL     1      47.086   6.568  13.600  0.00  0.00    +0.000 C 
ENDROOT
BRANCH   1   2
ATOM      2  C   UNL     1      46.443   5.776  12.490  0.00  0.00    +0.000 A 
ATOM      3  C   UNL     1      46.319   6.311  11.210  0.00  0.00    +0.000 A 
ATOM      4  N   UNL     1      45.714   5.655  10.187  0.00  0.00    +0.000 NA
ATOM      5  C   UNL     1      45.244   4.409  10.480  0.00  0.00    +0.000 A 
ATOM      6  C   UNL     1      45.390   3.866  11.752  0.00  0.00    +0.000 A 
ATOM      7  N   UNL     1      45.981   4.529  12.777  0.00  0.00    +0.000 NA
BRANCH   5   8
ATOM      8  C   UNL     1      44.546   3.626   9.382  0.00  0.00    +0.000 C 
BRANCH   8   9
ATOM      9  C   UNL     1      45.489   2.955   8.406  0.00  0.00    +0.000 A 
ATOM     10  C   UNL     1      45.870   1.617   8.587  0.00  0.00    +0.000 A 
ATOM     11  C   UNL     1      46.694   0.983   7.655  0.00  0.00    +0.000 A 
ATOM     12  C   UNL     1      47.143   1.677   6.533  0.00  0.00    +0.000 A 
ATOM     13  C   UNL     1      46.780   3.007   6.344  0.00  0.00    +0.000 A 
ATOM     14  C   UNL     1      45.962   3.644   7.277  0.00  0.00    +0.000 A 
ENDBRANCH   8   9
BRANCH   8  15
ATOM     15  O   UNL     1      43.694   4.483   8.613  0.00  0.00    +0.000 OA
ATOM     16  H   UNL     1      43.360   3.915   7.888  0.00  0.00    +0.000 HD
ENDBRANCH   8  15
ENDBRANCH   5   8
ENDBRANCH   1   2
BRANCH   1  19
ATOM     17  O   UNL     1      49.366   6.551  15.210  0.00  0.00    +0.000 OA
ATOM     18  C   UNL     1      48.399   5.885  15.571  0.00  0.00    +0.000 C 
ATOM     19  N   UNL     1      47.257   5.810  14.820  0.00  0.00    +0.000 N 
ATOM     20  H   UNL     1      46.444   5.317  15.173  0.00  0.00    +0.000 HD
BRANCH  18  21
ATOM     21  C   UNL     1      48.430   5.096  16.806  0.00  0.00    +0.000 A 
ATOM     22  C   UNL     1      48.319   3.714  16.743  0.00  0.00    +0.000 A 
ATOM     23  S   UNL     1      48.383   2.954  18.267  0.00  0.00    +0.000 S 
ATOM     24  C   UNL     1      48.609   4.443  19.063  0.00  0.00    +0.000 A 
ATOM     25  N   UNL     1      48.779   4.498  20.411  0.00  0.00    +0.000 NA
ATOM     26  C   UNL     1      48.984   5.686  20.873  0.00  0.00    +0.000 A 
ATOM     27  N   UNL     1      49.023   6.826  20.112  0.00  0.00    +0.000 N 
ATOM     28  C   UNL     1      48.798   6.825  18.755  0.00  0.00    +0.000 A 
ATOM     29  O   UNL     1      48.745   7.872  18.116  0.00  0.00    +0.000 OA
ATOM     30  C   UNL     1      48.604   5.507  18.178  0.00  0.00    +0.000 A 
ATOM     31  H   UNL     1      49.167   7.727  20.541  0.00  0.00    +0.000 HD
ENDBRANCH  18  21
ENDBRANCH   1  19
TORSDOF 6
ENDMDL
MODEL 4
REMARK VINA RESULT:    -7.928      2.653      3.907
REMARK INTER + INTRA:         -11.188
REMARK INTER:                 -10.522
REMARK INTRA:                  -0.666
REMARK UNBOUND:                -0.711
REMARK  Name = 
REMARK  6 active torsions:
REMARK  status: ('A' for Active; 'I' for Inactive)
REMARK    1  A    between atoms: C_2  and  C_19
REMARK    2  A    between atoms: N_3  and  C_4
REMARK    3  A    between atoms: C_4  and  C_5
REMARK    4  A    between atoms: C_8  and  C_9
REMARK    5  A    between atoms: C_9  and  O_10
REMARK    6  A    between atoms: C_9  and  C_11
REMARK                            x       y       z     vdW  Elec       q    Type
REMARK                         _______ _______ _______ _____ _____    ______ ____
ROOT
ATOM      1  C   UNL     1      47.058   4.892  14.727  0.00  0.00    +0.000 C 
ENDROOT
BRANCH   1   2
ATOM      2  C   UNL     1      46.371   4.522  13.437  0.00  0.00    +0.000 A 
ATOM      3  C   UNL     1      46.138   5.479  12.452  0.00  0.00    +0.000 A 
ATOM      4  N   UNL     1      45.490   5.208  11.291  0.00  0.00    +0.000 NA
ATOM      5  C   UNL     1      45.091   3.914  11.127  0.00  0.00    +0.000 A 
ATOM      6  C   UNL     1      45.345   2.954  12.100  0.00  0.00    +0.000 A 
ATOM      7  N   UNL     1      45.979   3.231  13.266  0.00  0.00    +0.000 NA
BRANCH   5   8
ATOM      8  C   UNL     1      44.350   3.545   9.854  0.00  0.00    +0.000 C 
BRANCH   8   9
ATOM      9  C   UNL     1      45.244   3.036   8.743  0.00  0.00    +0.000 A 
ATOM     10  C   UNL     1      45.708   3.906   7.746  0.00  0.00    +0.000 A 
ATOM     11  C   UNL     1      46.579   3.448   6.754  0.00  0.00    +0.000 A 
ATOM     12  C   UNL     1      46.996   2.119   6.751  0.00  0.00    +0.000 A 
ATOM     13  C   UNL     1      46.538   1.241   7.730  0.00  0.00    +0.000 A 
ATOM     14  C   UNL     1      45.664   1.696   8.718  0.00  0.00    +0.000 A 
ENDBRANCH   8   9
BRANCH   8  15
ATOM     15  O   UNL     1      43.645   4.677   9.332  0.00  0.00    +0.000 OA
ATOM     16  H   UNL     1      44.126   4.914   8.513  0.00  0.00    +0.000 HD
ENDBRANCH   8  15
ENDBRANCH   5   8
ENDBRANCH   1   2
BRANCH   1  19
ATOM     17  O   UNL     1      49.311   5.801  16.101  0.00  0.00    +0.000 OA
ATOM     18  C   UNL     1      48.686   6.609  15.418  0.00  0.00    +0.000 C 
ATOM     19  N   UNL     1      47.549   6.253  14.744  0.00  0.00    +0.000 N 
ATOM     20  H   UNL     1      47.092   6.915  14.126  0.00  0.00    +0.000 HD
BRANCH  18  21
ATOM     21  C   UNL     1      49.096   8.013  15.324  0.00  0.00    +0.000 A 
ATOM     22  C   UNL     1      49.742   8.466  14.182  0.00  0.00    +0.000 A 
ATOM     23  S   UNL     1      50.139  10.123  14.235  0.00  0.00    +0.000 S 
ATOM     24  C   UNL     1      49.420  10.305  15.768  0.00  0.00    +0.000 A 
ATOM     25  N   UNL     1      49.379  11.516  16.383  0.00  0.00    +0.000 NA
ATOM     26  C   UNL     1      48.765  11.515  17.519  0.00  0.00    +0.000 A 
ATOM     27  N   UNL     1      48.199  10.411  18.102  0.00  0.00    +0.000 N 
ATOM     28  C   UNL     1      48.268   9.155  17.545  0.00  0.00    +0.000 A 
ATOM     29  O   UNL     1      47.836   8.170  18.136  0.00  0.00    +0.000 OA
ATOM     30  C   UNL     1      48.912   9.108  16.244  0.00  0.00    +0.000 A 
ATOM     31  H   UNL     1      47.752  10.477  19.003  0.00  0.00    +0.000 HD
ENDBRANCH  18  21
ENDBRANCH   1  19
TORSDOF 6
ENDMDL
MODEL 5
REMARK VINA RESULT:    -7.808      2.837      3.906
REMARK INTER + INTRA:         -11.029
REMARK INTER:                 -10.115
REMARK INTRA:                  -0.914
REMARK UNBOUND:                -0.711
REMARK  Name = 
REMARK  6 active torsions:
REMARK  status: ('A' for Active; 'I' for Inactive)
REMARK    1  A    between atoms: C_2  and  C_19
REMARK    2  A    between atoms: N_3  and  C_4
REMARK    3  A    between atoms: C_4  and  C_5
REMARK    4  A    between atoms: C_8  and  C_9
REMARK    5  A    between atoms: C_9  and  O_10
REMARK    6  A    between atoms: C_9  and  C_11
REMARK                            x       y       z     vdW  Elec       q    Type
REMARK                         _______ _______ _______ _____ _____    ______ ____
ROOT
ATOM      1  C   UNL     1      46.593   5.803  13.896  0.00  0.00    +0.000 C 
ENDROOT
BRANCH   1   2
ATOM      2  C   UNL     1      46.003   5.186  12.653  0.00  0.00    +0.000 A 
ATOM      3  C   UNL     1      45.547   3.870  12.656  0.00  0.00    +0.000 A 
ATOM      4  N   UNL     1      45.044   3.256  11.555  0.00  0.00    +0.000 NA
ATOM      5  C   UNL     1      44.986   4.020  10.427  0.00  0.00    +0.000 A 
ATOM      6  C   UNL     1      45.420   5.342  10.432  0.00  0.00    +0.000 A 
ATOM      7  N   UNL     1      45.937   5.948  11.529  0.00  0.00    +0.000 NA
BRANCH   5   8
ATOM      8  C   UNL     1      44.444   3.390   9.158  0.00  0.00    +0.000 C 
BRANCH   8   9
ATOM      9  C   UNL     1      45.501   2.744   8.287  0.00  0.00    +0.000 A 
ATOM     10  C   UNL     1      46.214   3.503   7.348  0.00  0.00    +0.000 A 
ATOM     11  C   UNL     1      47.228   2.917   6.586  0.00  0.00    +0.000 A 
ATOM     12  C   UNL     1      47.540   1.570   6.757  0.00  0.00    +0.000 A 
ATOM     13  C   UNL     1      46.835   0.802   7.680  0.00  0.00    +0.000 A 
ATOM     14  C   UNL     1      45.819   1.383   8.437  0.00  0.00    +0.000 A 
ENDBRANCH   8   9
BRANCH   8  15
ATOM     15  O   UNL     1      43.784   4.370   8.348  0.00  0.00    +0.000 OA
ATOM     16  H   UNL     1      44.497   4.770   7.809  0.00  0.00    +0.000 HD
ENDBRANCH   8  15
ENDBRANCH   5   8
ENDBRANCH   1   2
BRANCH   1  19
ATOM     17  O   UNL     1      47.181   8.531  13.892  0.00  0.00    +0.000 OA
ATOM     18  C   UNL     1      48.107   7.740  13.729  0.00  0.00    +0.000 C 
ATOM     19  N   UNL     1      47.898   6.389  13.680  0.00  0.00    +0.000 N 
ATOM     20  H   UNL     1      48.685   5.751  13.622  0.00  0.00    +0.000 HD
BRANCH  18  21
ATOM     21  C   UNL     1      49.485   8.202  13.532  0.00  0.00    +0.000 A 
ATOM     22  C   UNL     1      49.772   9.094  12.509  0.00  0.00    +0.000 A 
ATOM     23  S   UNL     1      51.417   9.534  12.429  0.00  0.00    +0.000 S 
ATOM     24  C   UNL     1      51.796   8.582  13.790  0.00  0.00    +0.000 A 
ATOM     25  N   UNL     1      53.061   8.543  14.286  0.00  0.00    +0.000 NA
ATOM     26  C   UNL     1      53.194   7.817  15.346  0.00  0.00    +0.000 A 
ATOM     27  N   UNL     1      52.180   7.117  15.948  0.00  0.00    +0.000 N 
ATOM     28  C   UNL     1      50.899   7.080  15.447  0.00  0.00    +0.000 A 
ATOM     29  O   UNL     1      50.036   6.368  15.952  0.00  0.00    +0.000 OA
ATOM     30  C   UNL     1      50.686   7.915  14.278  0.00  0.00    +0.000 A 
ATOM     31  H   UNL     1      52.358   6.551  16.763  0.00  0.00    +0.000 HD
ENDBRANCH  18  21
ENDBRANCH   1  19
TORSDOF 6
ENDMDL
MODEL 6
REMARK VINA RESULT:    -7.280      3.479      8.289
REMARK INTER + INTRA:         -10.332
REMARK INTER:                  -9.429
REMARK INTRA:                  -0.903
REMARK UNBOUND:                -0.711
REMARK  Name = 
REMARK  6 active torsions:
REMARK  status: ('A' for Active; 'I' for Inactive)
REMARK    1  A    between atoms: C_2  and  C_19
REMARK    2  A    between atoms: N_3  and  C_4
REMARK    3  A    between atoms: C_4  and  C_5
REMARK    4  A    between atoms: C_8  and  C_9
REMARK    5  A    between atoms: C_9  and  O_10
REMARK    6  A    between atoms: C_9  and  C_11
REMARK                            x       y       z     vdW  Elec       q    Type
REMARK                         _______ _______ _______ _____ _____    ______ ____
ROOT
ATOM      1  C   UNL     1      47.894   6.923  13.719  0.00  0.00    +0.000 C 
ENDROOT
BRANCH   1   2
ATOM      2  C   UNL     1      48.406   6.248  14.966  0.00  0.00    +0.000 A 
ATOM      3  C   UNL     1      49.498   6.763  15.660  0.00  0.00    +0.000 A 
ATOM      4  N   UNL     1      50.022   6.173  16.765  0.00  0.00    +0.000 NA
ATOM      5  C   UNL     1      49.394   5.036  17.180  0.00  0.00    +0.000 A 
ATOM      6  C   UNL     1      48.289   4.536  16.500  0.00  0.00    +0.000 A 
ATOM      7  N   UNL     1      47.777   5.119  15.388  0.00  0.00    +0.000 NA
BRANCH   5   8
ATOM      8  C   UNL     1      49.937   4.320  18.403  0.00  0.00    +0.000 C 
BRANCH   8   9
ATOM      9  C   UNL     1      51.075   3.366  18.108  0.00  0.00    +0.000 A 
ATOM     10  C   UNL     1      52.394   3.705  18.441  0.00  0.00    +0.000 A 
ATOM     11  C   UNL     1      53.436   2.800  18.220  0.00  0.00    +0.000 A 
ATOM     12  C   UNL     1      53.168   1.549  17.667  0.00  0.00    +0.000 A 
ATOM     13  C   UNL     1      51.865   1.202  17.324  0.00  0.00    +0.000 A 
ATOM     14  C   UNL     1      50.825   2.106  17.539  0.00  0.00    +0.000 A 
ENDBRANCH   8   9
BRANCH   8  15
ATOM     15  O   UNL     1      48.908   3.553  19.039  0.00  0.00    +0.000 OA
ATOM     16  H   UNL     1      48.106   3.718  18.502  0.00  0.00    +0.000 HD
ENDBRANCH   8  15
ENDBRANCH   5   8
ENDBRANCH   1   2
BRANCH   1  19
ATOM     17  O   UNL     1      46.112   7.699  11.716  0.00  0.00    +0.000 OA
ATOM     18  C   UNL     1      46.328   6.499  11.864  0.00  0.00    +0.000 C 
ATOM     19  N   UNL     1      47.159   6.034  12.847  0.00  0.00    +0.000 N 
ATOM     20  H   UNL     1      47.382   5.046  12.903  0.00  0.00    +0.000 HD
BRANCH  18  21
ATOM     21  C   UNL     1      45.672   5.493  11.024  0.00  0.00    +0.000 A 
ATOM     22  C   UNL     1      45.813   5.549   9.644  0.00  0.00    +0.000 A 
ATOM     23  S   UNL     1      44.995   4.299   8.823  0.00  0.00    +0.000 S 
ATOM     24  C   UNL     1      44.459   3.611  10.286  0.00  0.00    +0.000 A 
ATOM     25  N   UNL     1      43.723   2.469  10.295  0.00  0.00    +0.000 NA
ATOM     26  C   UNL     1      43.425   2.037  11.474  0.00  0.00    +0.000 A 
ATOM     27  N   UNL     1      43.785   2.649  12.646  0.00  0.00    +0.000 N 
ATOM     28  C   UNL     1      44.478   3.837  12.685  0.00  0.00    +0.000 A 
ATOM     29  O   UNL     1      44.703   4.412  13.746  0.00  0.00    +0.000 OA
ATOM     30  C   UNL     1      44.875   4.345  11.384  0.00  0.00    +0.000 A 
ATOM     31  H   UNL     1      43.500   2.269  13.536  0.00  0.00    +0.000 HD
ENDBRANCH  18  21
ENDBRANCH   1  19
TORSDOF 6
ENDMDL
MODEL 7
REMARK VINA RESULT:    -7.226      3.788      8.886
REMARK INTER + INTRA:         -10.260
REMARK INTER:                  -9.429
REMARK INTRA:                  -0.831
REMARK UNBOUND:                -0.711
REMARK  Name = 
REMARK  6 active torsions:
REMARK  status: ('A' for Active; 'I' for Inactive)
REMARK    1  A    between atoms: C_2  and  C_19
REMARK    2  A    between atoms: N_3  and  C_4
REMARK    3  A    between atoms: C_4  and  C_5
REMARK    4  A    between atoms: C_8  and  C_9
REMARK    5  A    between atoms: C_9  and  O_10
REMARK    6  A    between atoms: C_9  and  C_11
REMARK                            x       y       z     vdW  Elec       q    Type
REMARK                         _______ _______ _______ _____ _____    ______ ____
ROOT
ATOM      1  C   UNL     1      47.167   3.365  16.875  0.00  0.00    +0.000 C 
ENDROOT
BRANCH   1   2
ATOM      2  C   UNL     1      48.569   3.515  17.410  0.00  0.00    +0.000 A 
ATOM      3  C   UNL     1      48.863   4.467  18.384  0.00  0.00    +0.000 A 
ATOM      4  N   UNL     1      50.114   4.669  18.871  0.00  0.00    +0.000 NA
ATOM      5  C   UNL     1      51.083   3.855  18.362  0.00  0.00    +0.000 A 
ATOM      6  C   UNL     1      50.784   2.889  17.408  0.00  0.00    +0.000 A 
ATOM      7  N   UNL     1      49.536   2.700  16.912  0.00  0.00    +0.000 NA
BRANCH   5   8
ATOM      8  C   UNL     1      52.507   4.036  18.857  0.00  0.00    +0.000 C 
BRANCH   8   9
ATOM      9  C   UNL     1      53.479   4.494  17.791  0.00  0.00    +0.000 A 
ATOM     10  C   UNL     1      53.257   5.688  17.088  0.00  0.00    +0.000 A 
ATOM     11  C   UNL     1      54.185   6.138  16.145  0.00  0.00    +0.000 A 
ATOM     12  C   UNL     1      55.342   5.402  15.898  0.00  0.00    +0.000 A 
ATOM     13  C   UNL     1      55.572   4.212  16.581  0.00  0.00    +0.000 A 
ATOM     14  C   UNL     1      54.645   3.758  17.519  0.00  0.00    +0.000 A 
ENDBRANCH   8   9
BRANCH   8  15
ATOM     15  O   UNL     1      53.020   2.807  19.384  0.00  0.00    +0.000 OA
ATOM     16  H   UNL     1      52.229   2.319  19.692  0.00  0.00    +0.000 HD
ENDBRANCH   8  15
ENDBRANCH   5   8
ENDBRANCH   1   2
BRANCH   1  19
ATOM     17  O   UNL     1      47.331   3.085  14.103  0.00  0.00    +0.000 OA
ATOM     18  C   UNL     1      46.894   4.141  14.551  0.00  0.00    +0.000 C 
ATOM     19  N   UNL     1      46.817   4.373  15.898  0.00  0.00    +0.000 N 
ATOM     20  H   UNL     1      46.383   5.221  16.247  0.00  0.00    +0.000 HD
BRANCH  18  21
ATOM     21  C   UNL     1      46.473   5.233  13.668  0.00  0.00    +0.000 A 
ATOM     22  C   UNL     1      47.355   6.264  13.379  0.00  0.00    +0.000 A 
ATOM     23  S   UNL     1      46.708   7.443  12.331  0.00  0.00    +0.000 S 
ATOM     24  C   UNL     1      45.239   6.592  12.190  0.00  0.00    +0.000 A 
ATOM     25  N   UNL     1      44.240   7.048  11.389  0.00  0.00    +0.000 NA
ATOM     26  C   UNL     1      43.203   6.280  11.344  0.00  0.00    +0.000 A 
ATOM     27  N   UNL     1      43.068   5.104  12.035  0.00  0.00    +0.000 N 
ATOM     28  C   UNL     1      44.028   4.634  12.901  0.00  0.00    +0.000 A 
ATOM     29  O   UNL     1      43.839   3.628  13.579  0.00  0.00    +0.000 OA
ATOM     30  C   UNL     1      45.235   5.440  12.958  0.00  0.00    +0.000 A 
ATOM     31  H   UNL     1      42.220   4.562  11.970  0.00  0.00    +0.000 HD
ENDBRANCH  18  21
ENDBRANCH   1  19
TORSDOF 6
ENDMDL
MODEL 8
REMARK VINA RESULT:    -7.200      2.113      2.503
REMARK INTER + INTRA:         -10.226
REMARK INTER:                  -9.379
REMARK INTRA:                  -0.847
REMARK UNBOUND:                -0.711
REMARK  Name = 
REMARK  6 active torsions:
REMARK  status: ('A' for Active; 'I' for Inactive)
REMARK    1  A    between atoms: C_2  and  C_19
REMARK    2  A    between atoms: N_3  and  C_4
REMARK    3  A    between atoms: C_4  and  C_5
REMARK    4  A    between atoms: C_8  and  C_9
REMARK    5  A    between atoms: C_9  and  O_10
REMARK    6  A    between atoms: C_9  and  C_11
REMARK                            x       y       z     vdW  Elec       q    Type
REMARK                         _______ _______ _______ _____ _____    ______ ____
ROOT
ATOM      1  C   UNL     1      48.047   7.783  13.923  0.00  0.00    +0.000 C 
ENDROOT
BRANCH   1   2
ATOM      2  C   UNL     1      47.088   6.955  13.106  0.00  0.00    +0.000 A 
ATOM      3  C   UNL     1      46.345   7.530  12.077  0.00  0.00    +0.000 A 
ATOM      4  N   UNL     1      45.441   6.838  11.338  0.00  0.00    +0.000 NA
ATOM      5  C   UNL     1      45.313   5.516  11.649  0.00  0.00    +0.000 A 
ATOM      6  C   UNL     1      46.072   4.938  12.660  0.00  0.00    +0.000 A 
ATOM      7  N   UNL     1      46.964   5.635  13.407  0.00  0.00    +0.000 NA
BRANCH   5   8
ATOM      8  C   UNL     1      44.310   4.688  10.867  0.00  0.00    +0.000 C 
BRANCH   8   9
ATOM      9  C   UNL     1      44.918   3.884   9.737  0.00  0.00    +0.000 A 
ATOM     10  C   UNL     1      45.588   4.525   8.685  0.00  0.00    +0.000 A 
ATOM     11  C   UNL     1      46.198   3.779   7.674  0.00  0.00    +0.000 A 
ATOM     12  C   UNL     1      46.147   2.387   7.705  0.00  0.00    +0.000 A 
ATOM     13  C   UNL     1      45.479   1.736   8.739  0.00  0.00    +0.000 A 
ATOM     14  C   UNL     1      44.865   2.480   9.747  0.00  0.00    +0.000 A 
ENDBRANCH   8   9
BRANCH   8  15
ATOM     15  O   UNL     1      43.305   5.526  10.284  0.00  0.00    +0.000 OA
ATOM     16  H   UNL     1      43.737   6.399  10.182  0.00  0.00    +0.000 HD
ENDBRANCH   8  15
ENDBRANCH   5   8
ENDBRANCH   1   2
BRANCH   1  19
ATOM     17  O   UNL     1      48.423   9.189  16.305  0.00  0.00    +0.000 OA
ATOM     18  C   UNL     1      48.487   7.963  16.342  0.00  0.00    +0.000 C 
ATOM     19  N   UNL     1      48.352   7.202  15.212  0.00  0.00    +0.000 N 
ATOM     20  H   UNL     1      48.331   6.190  15.276  0.00  0.00    +0.000 HD
BRANCH  18  21
ATOM     21  C   UNL     1      48.757   7.246  17.592  0.00  0.00    +0.000 A 
ATOM     22  C   UNL     1      47.924   7.432  18.686  0.00  0.00    +0.000 A 
ATOM     23  S   UNL     1      48.376   6.517  20.051  0.00  0.00    +0.000 S 
ATOM     24  C   UNL     1      49.675   5.802  19.213  0.00  0.00    +0.000 A 
ATOM     25  N   UNL     1      50.465   4.871  19.808  0.00  0.00    +0.000 NA
ATOM     26  C   UNL     1      51.382   4.382  19.042  0.00  0.00    +0.000 A 
ATOM     27  N   UNL     1      51.589   4.749  17.737  0.00  0.00    +0.000 N 
ATOM     28  C   UNL     1      50.852   5.728  17.112  0.00  0.00    +0.000 A 
ATOM     29  O   UNL     1      51.122   6.103  15.974  0.00  0.00    +0.000 OA
ATOM     30  C   UNL     1      49.778   6.281  17.918  0.00  0.00    +0.000 A 
ATOM     31  H   UNL     1      52.338   4.341  17.200  0.00  0.00    +0.000 HD
ENDBRANCH  18  21
ENDBRANCH   1  19
TORSDOF 6
ENDMDL
MODEL 9
REMARK VINA RESULT:    -6.604      3.997      8.555
REMARK INTER + INTRA:          -9.438
REMARK INTER:                  -8.737
REMARK INTRA:                  -0.701
REMARK UNBOUND:                -0.711
REMARK  Name = 
REMARK  6 active torsions:
REMARK  status: ('A' for Active; 'I' for Inactive)
REMARK    1  A    between atoms: C_2  and  C_19
REMARK    2  A    between atoms: N_3  and  C_4
REMARK    3  A    between atoms: C_4  and  C_5
REMARK    4  A    between atoms: C_8  and  C_9
REMARK    5  A    between atoms: C_9  and  O_10
REMARK    6  A    between atoms: C_9  and  C_11
REMARK                            x       y       z     vdW  Elec       q    Type
REMARK                         _______ _______ _______ _____ _____    ______ ____
ROOT
ATOM      1  C   UNL     1      46.269   4.840  13.534  0.00  0.00    +0.000 C 
ENDROOT
BRANCH   1   2
ATOM      2  C   UNL     1      47.071   4.709  14.804  0.00  0.00    +0.000 A 
ATOM      3  C   UNL     1      48.092   5.610  15.101  0.00  0.00    +0.000 A 
ATOM      4  N   UNL     1      48.868   5.514  16.210  0.00  0.00    +0.000 NA
ATOM      5  C   UNL     1      48.574   4.479  17.048  0.00  0.00    +0.000 A 
ATOM      6  C   UNL     1      47.539   3.595  16.763  0.00  0.00    +0.000 A 
ATOM      7  N   UNL     1      46.775   3.684  15.647  0.00  0.00    +0.000 NA
BRANCH   5   8
ATOM      8  C   UNL     1      49.412   4.309  18.302  0.00  0.00    +0.000 C 
BRANCH   8   9
ATOM      9  C   UNL     1      50.668   3.488  18.100  0.00  0.00    +0.000 A 
ATOM     10  C   UNL     1      51.917   3.984  18.502  0.00  0.00    +0.000 A 
ATOM     11  C   UNL     1      53.067   3.203  18.366  0.00  0.00    +0.000 A 
ATOM     12  C   UNL     1      52.980   1.919  17.831  0.00  0.00    +0.000 A 
ATOM     13  C   UNL     1      51.749   1.416  17.420  0.00  0.00    +0.000 A 
ATOM     14  C   UNL     1      50.601   2.197  17.550  0.00  0.00    +0.000 A 
ENDBRANCH   8   9
BRANCH   8  15
ATOM     15  O   UNL     1      48.656   3.661  19.332  0.00  0.00    +0.000 OA
ATOM     16  H   UNL     1      47.721   3.852  19.113  0.00  0.00    +0.000 HD
ENDBRANCH   8  15
ENDBRANCH   5   8
ENDBRANCH   1   2
BRANCH   1  19
ATOM     17  O   UNL     1      47.559   6.540  11.735  0.00  0.00    +0.000 OA
ATOM     18  C   UNL     1      46.558   6.960  12.310  0.00  0.00    +0.000 C 
ATOM     19  N   UNL     1      45.890   6.204  13.235  0.00  0.00    +0.000 N 
ATOM     20  H   UNL     1      45.023   6.540  13.641  0.00  0.00    +0.000 HD
BRANCH  18  21
ATOM     21  C   UNL     1      46.048   8.314  12.072  0.00  0.00    +0.000 A 
ATOM     22  C   UNL     1      46.881   9.407  12.263  0.00  0.00    +0.000 A 
ATOM     23  S   UNL     1      46.132  10.902  11.932  0.00  0.00    +0.000 S 
ATOM     24  C   UNL     1      44.679  10.138  11.477  0.00  0.00    +0.000 A 
ATOM     25  N   UNL     1      43.616  10.861  11.037  0.00  0.00    +0.000 NA
ATOM     26  C   UNL     1      42.598  10.149  10.683  0.00  0.00    +0.000 A 
ATOM     27  N   UNL     1      42.543   8.780  10.740  0.00  0.00    +0.000 N 
ATOM     28  C   UNL     1      43.572   8.012  11.232  0.00  0.00    +0.000 A 
ATOM     29  O   UNL     1      43.457   6.796  11.361  0.00  0.00    +0.000 OA
ATOM     30  C   UNL     1      44.758   8.762  11.605  0.00  0.00    +0.000 A 
ATOM     31  H   UNL     1      41.707   8.286  10.467  0.00  0.00    +0.000 HD
ENDBRANCH  18  21
ENDBRANCH   1  19
TORSDOF 6
ENDMDL
