MODEL 1
REMARK VINA RESULT:    -8.243      0.000      0.000
REMARK INTER + INTRA:         -13.716
REMARK INTER:                 -12.821
REMARK INTRA:                  -0.895
REMARK UNBOUND:                -0.895
REMARK  Name = 
REMARK  10 active torsions:
REMARK  status: ('A' for Active; 'I' for Inactive)
REMARK    1  A    between atoms: N_1  and  C_2
REMARK    2  A    between atoms: C_2  and  C_3
REMARK    3  A    between atoms: C_3  and  N_4
REMARK    4  A    between atoms: C_3  and  C_20
REMARK    5  A    between atoms: N_4  and  C_5
REMARK    6  A    between atoms: C_5  and  C_6
REMARK    7  A    between atoms: C_9  and  C_10
REMARK    8  A    between atoms: C_10  and  N_11
REMARK    9  A    between atoms: N_11  and  C_12
REMARK   10  A    between atoms: C_12  and  C_13
REMARK                            x       y       z     vdW  Elec       q    Type
REMARK                         _______ _______ _______ _____ _____    ______ ____
ROOT
ATOM      1  N   UNL     1      48.045   5.987  16.138  0.00  0.00    +0.000 NA
ATOM      2  H   UNL     1      48.706   6.603  16.610  0.00  0.00    +0.000 HD
ENDROOT
BRANCH   1   3
ATOM      3  C   UNL     1      48.218   4.637  16.717  0.00  0.00    +0.000 C 
BRANCH   3   4
ATOM      4  C   UNL     1      49.595   4.582  17.364  0.00  0.00    +0.000 A 
ATOM      5  C   UNL     1      50.201   5.612  18.071  0.00  0.00    +0.000 A 
ATOM      6  S   UNL     1      51.738   5.198  18.690  0.00  0.00    +0.000 S 
ATOM      7  C   UNL     1      51.629   3.618  18.062  0.00  0.00    +0.000 A 
ATOM      8  N   UNL     1      52.623   2.709  18.253  0.00  0.00    +0.000 NA
ATOM      9  C   UNL     1      52.380   1.548  17.742  0.00  0.00    +0.000 A 
ATOM     10  N   UNL     1      51.245   1.212  17.050  0.00  0.00    +0.000 N 
ATOM     11  C   UNL     1      50.213   2.095  16.827  0.00  0.00    +0.000 A 
ATOM     12  O   UNL     1      49.202   1.768  16.218  0.00  0.00    +0.000 OA
ATOM     13  C   UNL     1      50.443   3.416  17.384  0.00  0.00    +0.000 A 
ATOM     14  H   UNL     1      51.119   0.279  16.681  0.00  0.00    +0.000 HD
ENDBRANCH   3   4
BRANCH   3  15
ATOM     15  C   UNL     1      47.110   4.233  17.741  0.00  0.00    +0.000 C 
BRANCH  15  16
ATOM     16  N   UNL     1      46.674   2.834  17.636  0.00  0.00    +0.000 NA
ATOM     17  H   UNL     1      45.872   2.763  17.016  0.00  0.00    +0.000 HD
ATOM     18  H   UNL     1      46.391   2.512  18.562  0.00  0.00    +0.000 HD
ENDBRANCH  15  16
ENDBRANCH   3  15
ENDBRANCH   1   3
BRANCH   1  19
ATOM     19  C   UNL     1      48.321   6.018  14.704  0.00  0.00    +0.000 C 
BRANCH  19  20
ATOM     20  C   UNL     1      47.230   5.338  13.924  0.00  0.00    +0.000 A 
ATOM     21  C   UNL     1      46.308   6.081  13.183  0.00  0.00    +0.000 A 
ATOM     22  C   UNL     1      45.315   5.429  12.460  0.00  0.00    +0.000 A 
ATOM     23  C   UNL     1      45.271   4.039  12.488  0.00  0.00    +0.000 A 
ATOM     24  N   UNL     1      46.142   3.293  13.214  0.00  0.00    +0.000 NA
ATOM     25  C   UNL     1      47.090   3.956  13.914  0.00  0.00    +0.000 A 
BRANCH  23  26
ATOM     26  C   UNL     1      44.195   3.297  11.723  0.00  0.00    +0.000 C 
BRANCH  26  27
ATOM     27  N   UNL     1      44.707   2.497  10.604  0.00  0.00    +0.000 NA
ATOM     28  H   UNL     1      44.106   1.672  10.534  0.00  0.00    +0.000 HD
BRANCH  27  29
ATOM     29  C   UNL     1      44.590   3.215   9.330  0.00  0.00    +0.000 C 
BRANCH  29  30
ATOM     30  C   UNL     1      45.573   2.632   8.371  0.00  0.00    +0.000 A 
ATOM     31  C   UNL     1      46.204   3.234   7.301  0.00  0.00    +0.000 A 
ATOM     32  N   UNL     1      47.024   2.277   6.778  0.00  0.00    +0.000 N 
ATOM     33  C   UNL     1      46.861   1.144   7.522  0.00  0.00    +0.000 A 
ATOM     34  N   UNL     1      45.989   1.320   8.485  0.00  0.00    +0.000 NA
ATOM     35  H   UNL     1      47.648   2.387   5.992  0.00  0.00    +0.000 HD
ENDBRANCH  29  30
ENDBRANCH  27  29
ENDBRANCH  26  27
ENDBRANCH  23  26
ENDBRANCH  19  20
ENDBRANCH   1  19
TORSDOF 10
ENDMDL
MODEL 2
REMARK VINA RESULT:    -7.325      2.048      2.739
REMARK INTER + INTRA:         -12.288
REMARK INTER:                 -11.239
REMARK INTRA:                  -1.050
REMARK UNBOUND:                -0.895
REMARK  Name = 
REMARK  10 active torsions:
REMARK  status: ('A' for Active; 'I' for Inactive)
REMARK    1  A    between atoms: N_1  and  C_2
REMARK    2  A    between atoms: C_2  and  C_3
REMARK    3  A    between atoms: C_3  and  N_4
REMARK    4  A    between atoms: C_3  and  C_20
REMARK    5  A    between atoms: N_4  and  C_5
REMARK    6  A    between atoms: C_5  and  C_6
REMARK    7  A    between atoms: C_9  and  C_10
REMARK    8  A    between atoms: C_10  and  N_11
REMARK    9  A    between atoms: N_11  and  C_12
REMARK   10  A    between atoms: C_12  and  C_13
REMARK                            x       y       z     vdW  Elec       q    Type
REMARK                         _______ _______ _______ _____ _____    ______ ____
ROOT
ATOM      1  N   UNL     1      47.002   4.562  15.629  0.00  0.00    +0.000 NA
ATOM      2  H   UNL     1      46.423   5.108  16.266  0.00  0.00    +0.000 HD
ENDROOT
BRANCH   1   3
ATOM      3  C   UNL     1      48.192   4.123  16.389  0.00  0.00    +0.000 C 
BRANCH   3   4
ATOM      4  C   UNL     1      48.218   4.897  17.699  0.00  0.00    +0.000 A 
ATOM      5  C   UNL     1      47.106   5.300  18.425  0.00  0.00    +0.000 A 
ATOM      6  S   UNL     1      47.500   6.124  19.868  0.00  0.00    +0.000 S 
ATOM      7  C   UNL     1      49.170   5.939  19.586  0.00  0.00    +0.000 A 
ATOM      8  N   UNL     1      50.094   6.409  20.467  0.00  0.00    +0.000 NA
ATOM      9  C   UNL     1      51.316   6.167  20.127  0.00  0.00    +0.000 A 
ATOM     10  N   UNL     1      51.703   5.508  18.988  0.00  0.00    +0.000 N 
ATOM     11  C   UNL     1      50.808   5.016  18.065  0.00  0.00    +0.000 A 
ATOM     12  O   UNL     1      51.177   4.419  17.061  0.00  0.00    +0.000 OA
ATOM     13  C   UNL     1      49.420   5.268  18.406  0.00  0.00    +0.000 A 
ATOM     14  H   UNL     1      52.681   5.348  18.788  0.00  0.00    +0.000 HD
ENDBRANCH   3   4
BRANCH   3  15
ATOM     15  C   UNL     1      48.248   2.584  16.655  0.00  0.00    +0.000 C 
BRANCH  15  16
ATOM     16  N   UNL     1      49.478   1.935  16.178  0.00  0.00    +0.000 NA
ATOM     17  H   UNL     1      49.909   1.406  16.930  0.00  0.00    +0.000 HD
ATOM     18  H   UNL     1      50.132   2.660  15.881  0.00  0.00    +0.000 HD
ENDBRANCH  15  16
ENDBRANCH   3  15
ENDBRANCH   1   3
BRANCH   1  19
ATOM     19  C   UNL     1      47.351   5.399  14.483  0.00  0.00    +0.000 C 
BRANCH  19  20
ATOM     20  C   UNL     1      46.432   5.142  13.320  0.00  0.00    +0.000 A 
ATOM     21  C   UNL     1      45.680   3.968  13.246  0.00  0.00    +0.000 A 
ATOM     22  C   UNL     1      44.829   3.758  12.167  0.00  0.00    +0.000 A 
ATOM     23  C   UNL     1      44.741   4.739  11.184  0.00  0.00    +0.000 A 
ATOM     24  N   UNL     1      45.474   5.881  11.221  0.00  0.00    +0.000 NA
ATOM     25  C   UNL     1      46.299   6.052  12.277  0.00  0.00    +0.000 A 
BRANCH  23  26
ATOM     26  C   UNL     1      43.834   4.538   9.988  0.00  0.00    +0.000 C 
BRANCH  26  27
ATOM     27  N   UNL     1      44.553   4.294   8.732  0.00  0.00    +0.000 NA
ATOM     28  H   UNL     1      45.477   4.721   8.835  0.00  0.00    +0.000 HD
BRANCH  27  29
ATOM     29  C   UNL     1      44.771   2.861   8.504  0.00  0.00    +0.000 C 
BRANCH  29  30
ATOM     30  C   UNL     1      46.045   2.694   7.746  0.00  0.00    +0.000 A 
ATOM     31  C   UNL     1      46.742   3.627   7.005  0.00  0.00    +0.000 A 
ATOM     32  N   UNL     1      47.850   2.973   6.550  0.00  0.00    +0.000 N 
ATOM     33  C   UNL     1      47.788   1.689   7.008  0.00  0.00    +0.000 A 
ATOM     34  N   UNL     1      46.709   1.484   7.726  0.00  0.00    +0.000 NA
ATOM     35  H   UNL     1      48.589   3.369   5.987  0.00  0.00    +0.000 HD
ENDBRANCH  29  30
ENDBRANCH  27  29
ENDBRANCH  26  27
ENDBRANCH  23  26
ENDBRANCH  19  20
ENDBRANCH   1  19
TORSDOF 10
ENDMDL
MODEL 3
REMARK VINA RESULT:    -7.276      1.794      2.475
REMARK INTER + INTRA:         -12.212
REMARK INTER:                 -11.134
REMARK INTRA:                  -1.077
REMARK UNBOUND:                -0.895
REMARK  Name = 
REMARK  10 active torsions:
REMARK  status: ('A' for Active; 'I' for Inactive)
REMARK    1  A    between atoms: N_1  and  C_2
REMARK    2  A    between atoms: C_2  and  C_3
REMARK    3  A    between atoms: C_3  and  N_4
REMARK    4  A    between atoms: C_3  and  C_20
REMARK    5  A    between atoms: N_4  and  C_5
REMARK    6  A    between atoms: C_5  and  C_6
REMARK    7  A    between atoms: C_9  and  C_10
REMARK    8  A    between atoms: C_10  and  N_11
REMARK    9  A    between atoms: N_11  and  C_12
REMARK   10  A    between atoms: C_12  and  C_13
REMARK                            x       y       z     vdW  Elec       q    Type
REMARK                         _______ _______ _______ _____ _____    ______ ____
ROOT
ATOM      1  N   UNL     1      48.316   6.161  14.431  0.00  0.00    +0.000 NA
ATOM      2  H   UNL     1      47.796   5.370  14.809  0.00  0.00    +0.000 HD
ENDROOT
BRANCH   1   3
ATOM      3  C   UNL     1      48.676   7.032  15.571  0.00  0.00    +0.000 C 
BRANCH   3   4
ATOM      4  C   UNL     1      50.093   6.676  15.999  0.00  0.00    +0.000 A 
ATOM      5  C   UNL     1      51.238   7.397  15.693  0.00  0.00    +0.000 A 
ATOM      6  S   UNL     1      52.660   6.729  16.361  0.00  0.00    +0.000 S 
ATOM      7  C   UNL     1      51.787   5.472  17.110  0.00  0.00    +0.000 A 
ATOM      8  N   UNL     1      52.409   4.536  17.876  0.00  0.00    +0.000 NA
ATOM      9  C   UNL     1      51.608   3.667  18.398  0.00  0.00    +0.000 A 
ATOM     10  N   UNL     1      50.249   3.639  18.221  0.00  0.00    +0.000 N 
ATOM     11  C   UNL     1      49.573   4.562  17.453  0.00  0.00    +0.000 A 
ATOM     12  O   UNL     1      48.356   4.525  17.321  0.00  0.00    +0.000 OA
ATOM     13  C   UNL     1      50.435   5.559  16.845  0.00  0.00    +0.000 A 
ATOM     14  H   UNL     1      49.682   2.931  18.666  0.00  0.00    +0.000 HD
ENDBRANCH   3   4
BRANCH   3  15
ATOM     15  C   UNL     1      48.558   8.560  15.270  0.00  0.00    +0.000 C 
BRANCH  15  16
ATOM     16  N   UNL     1      47.673   9.288  16.190  0.00  0.00    +0.000 NA
ATOM     17  H   UNL     1      46.702   9.157  15.920  0.00  0.00    +0.000 HD
ATOM     18  H   UNL     1      47.889  10.283  16.129  0.00  0.00    +0.000 HD
ENDBRANCH  15  16
ENDBRANCH   3  15
ENDBRANCH   1   3
BRANCH   1  19
ATOM     19  C   UNL     1      47.477   6.845  13.450  0.00  0.00    +0.000 C 
BRANCH  19  20
ATOM     20  C   UNL     1      46.575   5.878  12.735  0.00  0.00    +0.000 A 
ATOM     21  C   UNL     1      46.135   6.134  11.435  0.00  0.00    +0.000 A 
ATOM     22  C   UNL     1      45.311   5.219  10.789  0.00  0.00    +0.000 A 
ATOM     23  C   UNL     1      44.950   4.055  11.461  0.00  0.00    +0.000 A 
ATOM     24  N   UNL     1      45.348   3.789  12.731  0.00  0.00    +0.000 NA
ATOM     25  C   UNL     1      46.140   4.702  13.335  0.00  0.00    +0.000 A 
BRANCH  23  26
ATOM     26  C   UNL     1      44.043   3.042  10.793  0.00  0.00    +0.000 C 
BRANCH  26  27
ATOM     27  N   UNL     1      44.213   2.963   9.338  0.00  0.00    +0.000 NA
ATOM     28  H   UNL     1      44.710   3.811   9.053  0.00  0.00    +0.000 HD
BRANCH  27  29
ATOM     29  C   UNL     1      45.059   1.827   8.954  0.00  0.00    +0.000 C 
BRANCH  29  30
ATOM     30  C   UNL     1      46.111   2.319   8.017  0.00  0.00    +0.000 A 
ATOM     31  C   UNL     1      46.326   3.600   7.551  0.00  0.00    +0.000 A 
ATOM     32  N   UNL     1      47.429   3.514   6.752  0.00  0.00    +0.000 N 
ATOM     33  C   UNL     1      47.835   2.211   6.749  0.00  0.00    +0.000 A 
ATOM     34  N   UNL     1      47.058   1.462   7.494  0.00  0.00    +0.000 NA
ATOM     35  H   UNL     1      47.875   4.277   6.262  0.00  0.00    +0.000 HD
ENDBRANCH  29  30
ENDBRANCH  27  29
ENDBRANCH  26  27
ENDBRANCH  23  26
ENDBRANCH  19  20
ENDBRANCH   1  19
TORSDOF 10
ENDMDL
MODEL 4
REMARK VINA RESULT:    -7.083      1.931      2.872
REMARK INTER + INTRA:         -11.912
REMARK INTER:                 -11.002
REMARK INTRA:                  -0.910
REMARK UNBOUND:                -0.895
REMARK  Name = 
REMARK  10 active torsions:
REMARK  status: ('A' for Active; 'I' for Inactive)
REMARK    1  A    between atoms: N_1  and  C_2
REMARK    2  A    between atoms: C_2  and  C_3
REMARK    3  A    between atoms: C_3  and  N_4
REMARK    4  A    between atoms: C_3  and  C_20
REMARK    5  A    between atoms: N_4  and  C_5
REMARK    6  A    between atoms: C_5  and  C_6
REMARK    7  A    between atoms: C_9  and  C_10
REMARK    8  A    between atoms: C_10  and  N_11
REMARK    9  A    between atoms: N_11  and  C_12
REMARK   10  A    between atoms: C_12  and  C_13
REMARK                            x       y       z     vdW  Elec       q    Type
REMARK                         _______ _______ _______ _____ _____    ______ ____
ROOT
ATOM      1  N   UNL     1      48.575   6.249  16.674  0.00  0.00    +0.000 NA
ATOM      2  H   UNL     1      49.103   6.684  17.430  0.00  0.00    +0.000 HD
ENDROOT
BRANCH   1   3
ATOM      3  C   UNL     1      48.637   4.786  16.886  0.00  0.00    +0.000 C 
BRANCH   3   4
ATOM      4  C   UNL     1      49.945   4.475  17.600  0.00  0.00    +0.000 A 
ATOM      5  C   UNL     1      50.611   5.320  18.476  0.00  0.00    +0.000 A 
ATOM      6  S   UNL     1      52.038   4.640  19.123  0.00  0.00    +0.000 S 
ATOM      7  C   UNL     1      51.793   3.180  18.278  0.00  0.00    +0.000 A 
ATOM      8  N   UNL     1      52.657   2.136  18.402  0.00  0.00    +0.000 NA
ATOM      9  C   UNL     1      52.320   1.091  17.722  0.00  0.00    +0.000 A 
ATOM     10  N   UNL     1      51.209   0.993  16.924  0.00  0.00    +0.000 N 
ATOM     11  C   UNL     1      50.307   2.021  16.764  0.00  0.00    +0.000 A 
ATOM     12  O   UNL     1      49.313   1.905  16.057  0.00  0.00    +0.000 OA
ATOM     13  C   UNL     1      50.647   3.218  17.510  0.00  0.00    +0.000 A 
ATOM     14  H   UNL     1      51.003   0.139  16.424  0.00  0.00    +0.000 HD
ENDBRANCH   3   4
BRANCH   3  15
ATOM     15  C   UNL     1      47.423   4.203  17.677  0.00  0.00    +0.000 C 
BRANCH  15  16
ATOM     16  N   UNL     1      46.635   5.211  18.399  0.00  0.00    +0.000 NA
ATOM     17  H   UNL     1      46.037   4.762  19.087  0.00  0.00    +0.000 HD
ATOM     18  H   UNL     1      46.040   5.698  17.728  0.00  0.00    +0.000 HD
ENDBRANCH  15  16
ENDBRANCH   3  15
ENDBRANCH   1   3
BRANCH   1  19
ATOM     19  C   UNL     1      49.166   6.653  15.400  0.00  0.00    +0.000 C 
BRANCH  19  20
ATOM     20  C   UNL     1      48.104   6.945  14.375  0.00  0.00    +0.000 A 
ATOM     21  C   UNL     1      47.664   5.954  13.496  0.00  0.00    +0.000 A 
ATOM     22  C   UNL     1      46.673   6.244  12.565  0.00  0.00    +0.000 A 
ATOM     23  C   UNL     1      46.135   7.527  12.541  0.00  0.00    +0.000 A 
ATOM     24  N   UNL     1      46.557   8.515  13.371  0.00  0.00    +0.000 NA
ATOM     25  C   UNL     1      47.528   8.204  14.258  0.00  0.00    +0.000 A 
BRANCH  23  26
ATOM     26  C   UNL     1      45.063   7.882  11.531  0.00  0.00    +0.000 C 
BRANCH  26  27
ATOM     27  N   UNL     1      44.657   6.760  10.678  0.00  0.00    +0.000 NA
ATOM     28  H   UNL     1      45.408   6.067  10.725  0.00  0.00    +0.000 HD
BRANCH  27  29
ATOM     29  C   UNL     1      43.446   6.105  11.188  0.00  0.00    +0.000 C 
BRANCH  29  30
ATOM     30  C   UNL     1      43.644   4.628  11.114  0.00  0.00    +0.000 A 
ATOM     31  C   UNL     1      44.373   3.895  10.200  0.00  0.00    +0.000 A 
ATOM     32  N   UNL     1      44.255   2.596  10.601  0.00  0.00    +0.000 N 
ATOM     33  C   UNL     1      43.466   2.578  11.714  0.00  0.00    +0.000 A 
ATOM     34  N   UNL     1      43.073   3.785  12.047  0.00  0.00    +0.000 NA
ATOM     35  H   UNL     1      44.683   1.793  10.163  0.00  0.00    +0.000 HD
ENDBRANCH  29  30
ENDBRANCH  27  29
ENDBRANCH  26  27
ENDBRANCH  23  26
ENDBRANCH  19  20
ENDBRANCH   1  19
TORSDOF 10
ENDMDL
MODEL 5
REMARK VINA RESULT:    -7.001      2.833      3.811
REMARK INTER + INTRA:         -11.785
REMARK INTER:                 -10.634
REMARK INTRA:                  -1.151
REMARK UNBOUND:                -0.895
REMARK  Name = 
REMARK  10 active torsions:
REMARK  status: ('A' for Active; 'I' for Inactive)
REMARK    1  A    between atoms: N_1  and  C_2
REMARK    2  A    between atoms: C_2  and  C_3
REMARK    3  A    between atoms: C_3  and  N_4
REMARK    4  A    between atoms: C_3  and  C_20
REMARK    5  A    between atoms: N_4  and  C_5
REMARK    6  A    between atoms: C_5  and  C_6
REMARK    7  A    between atoms: C_9  and  C_10
REMARK    8  A    between atoms: C_10  and  N_11
REMARK    9  A    between atoms: N_11  and  C_12
REMARK   10  A    between atoms: C_12  and  C_13
REMARK                            x       y       z     vdW  Elec       q    Type
REMARK                         _______ _______ _______ _____ _____    ______ ____
ROOT
ATOM      1  N   UNL     1      48.345   5.869  14.651  0.00  0.00    +0.000 NA
ATOM      2  H   UNL     1      47.621   5.255  15.024  0.00  0.00    +0.000 HD
ENDROOT
BRANCH   1   3
ATOM      3  C   UNL     1      48.835   6.698  15.774  0.00  0.00    +0.000 C 
BRANCH   3   4
ATOM      4  C   UNL     1      48.647   5.900  17.057  0.00  0.00    +0.000 A 
ATOM      5  C   UNL     1      48.903   4.545  17.214  0.00  0.00    +0.000 A 
ATOM      6  S   UNL     1      48.611   3.979  18.799  0.00  0.00    +0.000 S 
ATOM      7  C   UNL     1      48.167   5.534  19.334  0.00  0.00    +0.000 A 
ATOM      8  N   UNL     1      47.813   5.764  20.628  0.00  0.00    +0.000 NA
ATOM      9  C   UNL     1      47.531   6.998  20.885  0.00  0.00    +0.000 A 
ATOM     10  N   UNL     1      47.559   8.021  19.972  0.00  0.00    +0.000 N 
ATOM     11  C   UNL     1      47.907   7.839  18.652  0.00  0.00    +0.000 A 
ATOM     12  O   UNL     1      47.938   8.771  17.858  0.00  0.00    +0.000 OA
ATOM     13  C   UNL     1      48.231   6.465  18.317  0.00  0.00    +0.000 A 
ATOM     14  H   UNL     1      47.331   8.966  20.246  0.00  0.00    +0.000 HD
ENDBRANCH   3   4
BRANCH   3  15
ATOM     15  C   UNL     1      50.319   7.163  15.625  0.00  0.00    +0.000 C 
BRANCH  15  16
ATOM     16  N   UNL     1      50.633   8.411  16.335  0.00  0.00    +0.000 NA
ATOM     17  H   UNL     1      49.883   9.084  16.206  0.00  0.00    +0.000 HD
ATOM     18  H   UNL     1      51.486   8.804  15.937  0.00  0.00    +0.000 HD
ENDBRANCH  15  16
ENDBRANCH   3  15
ENDBRANCH   1   3
BRANCH   1  19
ATOM     19  C   UNL     1      47.768   6.672  13.576  0.00  0.00    +0.000 C 
BRANCH  19  20
ATOM     20  C   UNL     1      46.762   5.883  12.785  0.00  0.00    +0.000 A 
ATOM     21  C   UNL     1      46.393   6.276  11.497  0.00  0.00    +0.000 A 
ATOM     22  C   UNL     1      45.469   5.523  10.781  0.00  0.00    +0.000 A 
ATOM     23  C   UNL     1      44.938   4.380  11.371  0.00  0.00    +0.000 A 
ATOM     24  N   UNL     1      45.265   3.984  12.627  0.00  0.00    +0.000 NA
ATOM     25  C   UNL     1      46.158   4.742  13.301  0.00  0.00    +0.000 A 
BRANCH  23  26
ATOM     26  C   UNL     1      43.920   3.544  10.624  0.00  0.00    +0.000 C 
BRANCH  26  27
ATOM     27  N   UNL     1      44.202   3.405   9.191  0.00  0.00    +0.000 NA
ATOM     28  H   UNL     1      44.820   4.180   8.936  0.00  0.00    +0.000 HD
BRANCH  27  29
ATOM     29  C   UNL     1      44.935   2.167   8.902  0.00  0.00    +0.000 C 
BRANCH  29  30
ATOM     30  C   UNL     1      46.066   2.493   7.985  0.00  0.00    +0.000 A 
ATOM     31  C   UNL     1      46.441   3.718   7.473  0.00  0.00    +0.000 A 
ATOM     32  N   UNL     1      47.553   3.471   6.721  0.00  0.00    +0.000 N 
ATOM     33  C   UNL     1      47.807   2.132   6.790  0.00  0.00    +0.000 A 
ATOM     34  N   UNL     1      46.926   1.511   7.537  0.00  0.00    +0.000 NA
ATOM     35  H   UNL     1      48.099   4.155   6.217  0.00  0.00    +0.000 HD
ENDBRANCH  29  30
ENDBRANCH  27  29
ENDBRANCH  26  27
ENDBRANCH  23  26
ENDBRANCH  19  20
ENDBRANCH   1  19
TORSDOF 10
ENDMDL
MODEL 6
REMARK VINA RESULT:    -6.711      2.598      3.812
REMARK INTER + INTRA:         -11.333
REMARK INTER:                 -10.166
REMARK INTRA:                  -1.166
REMARK UNBOUND:                -0.895
REMARK  Name = 
REMARK  10 active torsions:
REMARK  status: ('A' for Active; 'I' for Inactive)
REMARK    1  A    between atoms: N_1  and  C_2
REMARK    2  A    between atoms: C_2  and  C_3
REMARK    3  A    between atoms: C_3  and  N_4
REMARK    4  A    between atoms: C_3  and  C_20
REMARK    5  A    between atoms: N_4  and  C_5
REMARK    6  A    between atoms: C_5  and  C_6
REMARK    7  A    between atoms: C_9  and  C_10
REMARK    8  A    between atoms: C_10  and  N_11
REMARK    9  A    between atoms: N_11  and  C_12
REMARK   10  A    between atoms: C_12  and  C_13
REMARK                            x       y       z     vdW  Elec       q    Type
REMARK                         _______ _______ _______ _____ _____    ______ ____
ROOT
ATOM      1  N   UNL     1      49.890   7.015  14.725  0.00  0.00    +0.000 NA
ATOM      2  H   UNL     1      49.733   6.035  14.491  0.00  0.00    +0.000 HD
ENDROOT
BRANCH   1   3
ATOM      3  C   UNL     1      48.956   7.357  15.820  0.00  0.00    +0.000 C 
BRANCH   3   4
ATOM      4  C   UNL     1      49.177   6.359  16.948  0.00  0.00    +0.000 A 
ATOM      5  C   UNL     1      49.980   6.558  18.062  0.00  0.00    +0.000 A 
ATOM      6  S   UNL     1      49.976   5.240  19.147  0.00  0.00    +0.000 S 
ATOM      7  C   UNL     1      48.872   4.373  18.180  0.00  0.00    +0.000 A 
ATOM      8  N   UNL     1      48.420   3.145  18.549  0.00  0.00    +0.000 NA
ATOM      9  C   UNL     1      47.567   2.629  17.726  0.00  0.00    +0.000 A 
ATOM     10  N   UNL     1      47.131   3.220  16.568  0.00  0.00    +0.000 N 
ATOM     11  C   UNL     1      47.561   4.460  16.150  0.00  0.00    +0.000 A 
ATOM     12  O   UNL     1      47.147   4.974  15.118  0.00  0.00    +0.000 OA
ATOM     13  C   UNL     1      48.523   5.077  17.044  0.00  0.00    +0.000 A 
ATOM     14  H   UNL     1      46.456   2.760  15.973  0.00  0.00    +0.000 HD
ENDBRANCH   3   4
BRANCH   3  15
ATOM     15  C   UNL     1      49.094   8.823  16.344  0.00  0.00    +0.000 C 
BRANCH  15  16
ATOM     16  N   UNL     1      47.814   9.475  16.651  0.00  0.00    +0.000 NA
ATOM     17  H   UNL     1      47.962  10.258  17.281  0.00  0.00    +0.000 HD
ATOM     18  H   UNL     1      47.210   8.799  17.119  0.00  0.00    +0.000 HD
ENDBRANCH  15  16
ENDBRANCH   3  15
ENDBRANCH   1   3
BRANCH   1  19
ATOM     19  C   UNL     1      49.663   7.822  13.528  0.00  0.00    +0.000 C 
BRANCH  19  20
ATOM     20  C   UNL     1      48.269   7.632  12.998  0.00  0.00    +0.000 A 
ATOM     21  C   UNL     1      47.932   6.497  12.258  0.00  0.00    +0.000 A 
ATOM     22  C   UNL     1      46.633   6.337  11.788  0.00  0.00    +0.000 A 
ATOM     23  C   UNL     1      45.692   7.320  12.079  0.00  0.00    +0.000 A 
ATOM     24  N   UNL     1      45.996   8.442  12.780  0.00  0.00    +0.000 NA
ATOM     25  C   UNL     1      47.269   8.573  13.214  0.00  0.00    +0.000 A 
BRANCH  23  26
ATOM     26  C   UNL     1      44.271   7.186  11.572  0.00  0.00    +0.000 C 
BRANCH  26  27
ATOM     27  N   UNL     1      43.461   6.221  12.325  0.00  0.00    +0.000 NA
ATOM     28  H   UNL     1      42.847   6.765  12.935  0.00  0.00    +0.000 HD
BRANCH  27  29
ATOM     29  C   UNL     1      42.592   5.437  11.439  0.00  0.00    +0.000 C 
BRANCH  29  30
ATOM     30  C   UNL     1      43.349   4.237  10.978  0.00  0.00    +0.000 A 
ATOM     31  C   UNL     1      43.541   3.033  11.623  0.00  0.00    +0.000 A 
ATOM     32  N   UNL     1      44.273   2.272  10.758  0.00  0.00    +0.000 N 
ATOM     33  C   UNL     1      44.507   3.024   9.644  0.00  0.00    +0.000 A 
ATOM     34  N   UNL     1      43.971   4.217   9.746  0.00  0.00    +0.000 NA
ATOM     35  H   UNL     1      44.576   1.320  10.907  0.00  0.00    +0.000 HD
ENDBRANCH  29  30
ENDBRANCH  27  29
ENDBRANCH  26  27
ENDBRANCH  23  26
ENDBRANCH  19  20
ENDBRANCH   1  19
TORSDOF 10
ENDMDL
MODEL 7
REMARK VINA RESULT:    -6.427      3.528      4.435
REMARK INTER + INTRA:         -10.892
REMARK INTER:                  -9.807
REMARK INTRA:                  -1.085
REMARK UNBOUND:                -0.895
REMARK  Name = 
REMARK  10 active torsions:
REMARK  status: ('A' for Active; 'I' for Inactive)
REMARK    1  A    between atoms: N_1  and  C_2
REMARK    2  A    between atoms: C_2  and  C_3
REMARK    3  A    between atoms: C_3  and  N_4
REMARK    4  A    between atoms: C_3  and  C_20
REMARK    5  A    between atoms: N_4  and  C_5
REMARK    6  A    between atoms: C_5  and  C_6
REMARK    7  A    between atoms: C_9  and  C_10
REMARK    8  A    between atoms: C_10  and  N_11
REMARK    9  A    between atoms: N_11  and  C_12
REMARK   10  A    between atoms: C_12  and  C_13
REMARK                            x       y       z     vdW  Elec       q    Type
REMARK                         _______ _______ _______ _____ _____    ______ ____
ROOT
ATOM      1  N   UNL     1      48.920   6.619  13.298  0.00  0.00    +0.000 NA
ATOM      2  H   UNL     1      49.799   6.171  13.557  0.00  0.00    +0.000 HD
ENDROOT
BRANCH   1   3
ATOM      3  C   UNL     1      49.098   8.075  13.491  0.00  0.00    +0.000 C 
BRANCH   3   4
ATOM      4  C   UNL     1      50.570   8.396  13.269  0.00  0.00    +0.000 A 
ATOM      5  C   UNL     1      51.097   9.066  12.174  0.00  0.00    +0.000 A 
ATOM      6  S   UNL     1      52.788   9.284  12.262  0.00  0.00    +0.000 S 
ATOM      7  C   UNL     1      52.866   8.519  13.782  0.00  0.00    +0.000 A 
ATOM      8  N   UNL     1      54.044   8.385  14.449  0.00  0.00    +0.000 NA
ATOM      9  C   UNL     1      53.935   7.810  15.600  0.00  0.00    +0.000 A 
ATOM     10  N   UNL     1      52.764   7.349  16.144  0.00  0.00    +0.000 N 
ATOM     11  C   UNL     1      51.547   7.457  15.509  0.00  0.00    +0.000 A 
ATOM     12  O   UNL     1      50.512   7.050  16.021  0.00  0.00    +0.000 OA
ATOM     13  C   UNL     1      51.622   8.098  14.208  0.00  0.00    +0.000 A 
ATOM     14  H   UNL     1      52.752   6.912  17.056  0.00  0.00    +0.000 HD
ENDBRANCH   3   4
BRANCH   3  15
ATOM     15  C   UNL     1      48.195   8.957  12.571  0.00  0.00    +0.000 C 
BRANCH  15  16
ATOM     16  N   UNL     1      47.097   9.633  13.276  0.00  0.00    +0.000 NA
ATOM     17  H   UNL     1      47.469  10.291  13.954  0.00  0.00    +0.000 HD
ATOM     18  H   UNL     1      46.553   8.931  13.778  0.00  0.00    +0.000 HD
ENDBRANCH  15  16
ENDBRANCH   3  15
ENDBRANCH   1   3
BRANCH   1  19
ATOM     19  C   UNL     1      47.855   6.072  14.136  0.00  0.00    +0.000 C 
BRANCH  19  20
ATOM     20  C   UNL     1      46.855   5.305  13.316  0.00  0.00    +0.000 A 
ATOM     21  C   UNL     1      46.131   5.930  12.299  0.00  0.00    +0.000 A 
ATOM     22  C   UNL     1      45.220   5.198  11.546  0.00  0.00    +0.000 A 
ATOM     23  C   UNL     1      45.060   3.844  11.824  0.00  0.00    +0.000 A 
ATOM     24  N   UNL     1      45.736   3.214  12.819  0.00  0.00    +0.000 NA
ATOM     25  C   UNL     1      46.606   3.956  13.539  0.00  0.00    +0.000 A 
BRANCH  23  26
ATOM     26  C   UNL     1      44.067   3.018  11.033  0.00  0.00    +0.000 C 
BRANCH  26  27
ATOM     27  N   UNL     1      44.664   2.291   9.907  0.00  0.00    +0.000 NA
ATOM     28  H   UNL     1      44.070   1.476   9.735  0.00  0.00    +0.000 HD
BRANCH  27  29
ATOM     29  C   UNL     1      44.648   3.093   8.677  0.00  0.00    +0.000 C 
BRANCH  29  30
ATOM     30  C   UNL     1      45.898   2.807   7.914  0.00  0.00    +0.000 A 
ATOM     31  C   UNL     1      46.661   3.665   7.149  0.00  0.00    +0.000 A 
ATOM     32  N   UNL     1      47.709   2.914   6.701  0.00  0.00    +0.000 N 
ATOM     33  C   UNL     1      47.548   1.650   7.187  0.00  0.00    +0.000 A 
ATOM     34  N   UNL     1      46.462   1.548   7.917  0.00  0.00    +0.000 NA
ATOM     35  H   UNL     1      48.474   3.236   6.125  0.00  0.00    +0.000 HD
ENDBRANCH  29  30
ENDBRANCH  27  29
ENDBRANCH  26  27
ENDBRANCH  23  26
ENDBRANCH  19  20
ENDBRANCH   1  19
TORSDOF 10
ENDMDL
MODEL 8
REMARK VINA RESULT:    -6.031      4.776      5.870
REMARK INTER + INTRA:         -10.276
REMARK INTER:                  -9.375
REMARK INTRA:                  -0.901
REMARK UNBOUND:                -0.895
REMARK  Name = 
REMARK  10 active torsions:
REMARK  status: ('A' for Active; 'I' for Inactive)
REMARK    1  A    between atoms: N_1  and  C_2
REMARK    2  A    between atoms: C_2  and  C_3
REMARK    3  A    between atoms: C_3  and  N_4
REMARK    4  A    between atoms: C_3  and  C_20
REMARK    5  A    between atoms: N_4  and  C_5
REMARK    6  A    between atoms: C_5  and  C_6
REMARK    7  A    between atoms: C_9  and  C_10
REMARK    8  A    between atoms: C_10  and  N_11
REMARK    9  A    between atoms: N_11  and  C_12
REMARK   10  A    between atoms: C_12  and  C_13
REMARK                            x       y       z     vdW  Elec       q    Type
REMARK                         _______ _______ _______ _____ _____    ______ ____
ROOT
ATOM      1  N   UNL     1      47.824   7.666  12.285  0.00  0.00    +0.000 NA
ATOM      2  H   UNL     1      48.834   7.538  12.221  0.00  0.00    +0.000 HD
ENDROOT
BRANCH   1   3
ATOM      3  C   UNL     1      47.586   9.092  12.601  0.00  0.00    +0.000 C 
BRANCH   3   4
ATOM      4  C   UNL     1      48.780   9.887  12.093  0.00  0.00    +0.000 A 
ATOM      5  C   UNL     1      48.780  10.739  10.997  0.00  0.00    +0.000 A 
ATOM      6  S   UNL     1      50.287  11.496  10.726  0.00  0.00    +0.000 S 
ATOM      7  C   UNL     1      50.978  10.735  12.084  0.00  0.00    +0.000 A 
ATOM      8  N   UNL     1      52.269  10.967  12.445  0.00  0.00    +0.000 NA
ATOM      9  C   UNL     1      52.638  10.339  13.512  0.00  0.00    +0.000 A 
ATOM     10  N   UNL     1      51.844   9.496  14.247  0.00  0.00    +0.000 N 
ATOM     11  C   UNL     1      50.533   9.226  13.922  0.00  0.00    +0.000 A 
ATOM     12  O   UNL     1      49.839   8.481  14.601  0.00  0.00    +0.000 OA
ATOM     13  C   UNL     1      50.075   9.911  12.726  0.00  0.00    +0.000 A 
ATOM     14  H   UNL     1      52.199   9.041  15.077  0.00  0.00    +0.000 HD
ENDBRANCH   3   4
BRANCH   3  15
ATOM     15  C   UNL     1      46.253   9.662  12.018  0.00  0.00    +0.000 C 
BRANCH  15  16
ATOM     16  N   UNL     1      45.091   9.499  12.902  0.00  0.00    +0.000 NA
ATOM     17  H   UNL     1      44.947   8.516  13.114  0.00  0.00    +0.000 HD
ATOM     18  H   UNL     1      44.264   9.846  12.417  0.00  0.00    +0.000 HD
ENDBRANCH  15  16
ENDBRANCH   3  15
ENDBRANCH   1   3
BRANCH   1  19
ATOM     19  C   UNL     1      47.305   6.772  13.317  0.00  0.00    +0.000 C 
BRANCH  19  20
ATOM     20  C   UNL     1      46.363   5.755  12.733  0.00  0.00    +0.000 A 
ATOM     21  C   UNL     1      46.399   4.423  13.149  0.00  0.00    +0.000 A 
ATOM     22  C   UNL     1      45.510   3.503  12.603  0.00  0.00    +0.000 A 
ATOM     23  C   UNL     1      44.593   3.942  11.653  0.00  0.00    +0.000 A 
ATOM     24  N   UNL     1      44.548   5.227  11.217  0.00  0.00    +0.000 NA
ATOM     25  C   UNL     1      45.431   6.095  11.759  0.00  0.00    +0.000 A 
BRANCH  23  26
ATOM     26  C   UNL     1      43.619   2.965  11.028  0.00  0.00    +0.000 C 
BRANCH  26  27
ATOM     27  N   UNL     1      44.192   2.178   9.930  0.00  0.00    +0.000 NA
ATOM     28  H   UNL     1      43.428   1.620   9.539  0.00  0.00    +0.000 HD
BRANCH  27  29
ATOM     29  C   UNL     1      44.684   3.039   8.848  0.00  0.00    +0.000 C 
BRANCH  29  30
ATOM     30  C   UNL     1      45.784   2.321   8.140  0.00  0.00    +0.000 A 
ATOM     31  C   UNL     1      46.710   2.819   7.247  0.00  0.00    +0.000 A 
ATOM     32  N   UNL     1      47.509   1.760   6.925  0.00  0.00    +0.000 N 
ATOM     33  C   UNL     1      47.047   0.673   7.609  0.00  0.00    +0.000 A 
ATOM     34  N   UNL     1      46.004   0.974   8.345  0.00  0.00    +0.000 NA
ATOM     35  H   UNL     1      48.305   1.778   6.305  0.00  0.00    +0.000 HD
ENDBRANCH  29  30
ENDBRANCH  27  29
ENDBRANCH  26  27
ENDBRANCH  23  26
ENDBRANCH  19  20
ENDBRANCH   1  19
TORSDOF 10
ENDMDL
MODEL 9
REMARK VINA RESULT:    -5.920      2.610      3.437
REMARK INTER + INTRA:         -10.103
REMARK INTER:                  -9.177
REMARK INTRA:                  -0.927
REMARK UNBOUND:                -0.895
REMARK  Name = 
REMARK  10 active torsions:
REMARK  status: ('A' for Active; 'I' for Inactive)
REMARK    1  A    between atoms: N_1  and  C_2
REMARK    2  A    between atoms: C_2  and  C_3
REMARK    3  A    between atoms: C_3  and  N_4
REMARK    4  A    between atoms: C_3  and  C_20
REMARK    5  A    between atoms: N_4  and  C_5
REMARK    6  A    between atoms: C_5  and  C_6
REMARK    7  A    between atoms: C_9  and  C_10
REMARK    8  A    between atoms: C_10  and  N_11
REMARK    9  A    between atoms: N_11  and  C_12
REMARK   10  A    between atoms: C_12  and  C_13
REMARK                            x       y       z     vdW  Elec       q    Type
REMARK                         _______ _______ _______ _____ _____    ______ ____
ROOT
ATOM      1  N   UNL     1      49.778   4.590  17.039  0.00  0.00    +0.000 NA
ATOM      2  H   UNL     1      49.370   3.918  16.390  0.00  0.00    +0.000 HD
ENDROOT
BRANCH   1   3
ATOM      3  C   UNL     1      49.885   3.918  18.352  0.00  0.00    +0.000 C 
BRANCH   3   4
ATOM      4  C   UNL     1      51.360   3.645  18.615  0.00  0.00    +0.000 A 
ATOM      5  C   UNL     1      52.198   4.417  19.407  0.00  0.00    +0.000 A 
ATOM      6  S   UNL     1      53.789   3.804  19.510  0.00  0.00    +0.000 S 
ATOM      7  C   UNL     1      53.399   2.468  18.527  0.00  0.00    +0.000 A 
ATOM      8  N   UNL     1      54.323   1.516  18.227  0.00  0.00    +0.000 NA
ATOM      9  C   UNL     1      53.868   0.553  17.496  0.00  0.00    +0.000 A 
ATOM     10  N   UNL     1      52.582   0.456  17.030  0.00  0.00    +0.000 N 
ATOM     11  C   UNL     1      51.612   1.394  17.302  0.00  0.00    +0.000 A 
ATOM     12  O   UNL     1      50.466   1.279  16.886  0.00  0.00    +0.000 OA
ATOM     13  C   UNL     1      52.080   2.498  18.121  0.00  0.00    +0.000 A 
ATOM     14  H   UNL     1      52.293  -0.331  16.466  0.00  0.00    +0.000 HD
ENDBRANCH   3   4
BRANCH   3  15
ATOM     15  C   UNL     1      49.252   4.719  19.535  0.00  0.00    +0.000 C 
BRANCH  15  16
ATOM     16  N   UNL     1      48.542   3.884  20.515  0.00  0.00    +0.000 NA
ATOM     17  H   UNL     1      48.262   4.445  21.314  0.00  0.00    +0.000 HD
ATOM     18  H   UNL     1      49.179   3.157  20.842  0.00  0.00    +0.000 HD
ENDBRANCH  15  16
ENDBRANCH   3  15
ENDBRANCH   1   3
BRANCH   1  19
ATOM     19  C   UNL     1      48.919   5.772  17.087  0.00  0.00    +0.000 C 
BRANCH  19  20
ATOM     20  C   UNL     1      48.426   6.143  15.716  0.00  0.00    +0.000 A 
ATOM     21  C   UNL     1      48.739   7.382  15.152  0.00  0.00    +0.000 A 
ATOM     22  C   UNL     1      48.281   7.698  13.878  0.00  0.00    +0.000 A 
ATOM     23  C   UNL     1      47.522   6.757  13.188  0.00  0.00    +0.000 A 
ATOM     24  N   UNL     1      47.187   5.554  13.719  0.00  0.00    +0.000 NA
ATOM     25  C   UNL     1      47.639   5.280  14.963  0.00  0.00    +0.000 A 
BRANCH  23  26
ATOM     26  C   UNL     1      46.996   7.074  11.804  0.00  0.00    +0.000 C 
BRANCH  26  27
ATOM     27  N   UNL     1      46.303   5.951  11.162  0.00  0.00    +0.000 NA
ATOM     28  H   UNL     1      46.544   5.112  11.696  0.00  0.00    +0.000 HD
BRANCH  27  29
ATOM     29  C   UNL     1      44.845   6.099  11.241  0.00  0.00    +0.000 C 
BRANCH  29  30
ATOM     30  C   UNL     1      44.268   4.817  11.738  0.00  0.00    +0.000 A 
ATOM     31  C   UNL     1      44.012   4.427  13.037  0.00  0.00    +0.000 A 
ATOM     32  N   UNL     1      43.456   3.184  12.939  0.00  0.00    +0.000 N 
ATOM     33  C   UNL     1      43.403   2.860  11.615  0.00  0.00    +0.000 A 
ATOM     34  N   UNL     1      43.892   3.818  10.863  0.00  0.00    +0.000 NA
ATOM     35  H   UNL     1      43.130   2.612  13.705  0.00  0.00    +0.000 HD
ENDBRANCH  29  30
ENDBRANCH  27  29
ENDBRANCH  26  27
ENDBRANCH  23  26
ENDBRANCH  19  20
ENDBRANCH   1  19
TORSDOF 10
ENDMDL
