MODEL 1
REMARK VINA RESULT:    -7.716      0.000      0.000
REMARK INTER + INTRA:         -11.148
REMARK INTER:                 -10.648
REMARK INTRA:                  -0.499
REMARK UNBOUND:                -0.499
REMARK  Name = 
REMARK  8 active torsions:
REMARK  status: ('A' for Active; 'I' for Inactive)
REMARK    1  A    between atoms: C_1  and  C_2
REMARK    2  A    between atoms: C_2  and  N_3
REMARK    3  A    between atoms: C_2  and  C_4
REMARK    4  A    between atoms: C_4  and  C_5
REMARK    5  A    between atoms: C_8  and  O_9
REMARK    6  A    between atoms: O_9  and  C_10
REMARK    7  A    between atoms: C_10  and  C_11
REMARK    8  A    between atoms: C_13  and  C_14
REMARK                            x       y       z     vdW  Elec       q    Type
REMARK                         _______ _______ _______ _____ _____    ______ ____
ROOT
ATOM      1  C   UNL     1      45.920   2.307   8.200  0.00  0.00    +0.000 A 
ATOM      2  C   UNL     1      45.022   1.706   9.090  0.00  0.00    +0.000 A 
ATOM      3  C   UNL     1      44.179   2.494   9.887  0.00  0.00    +0.000 A 
ATOM      4  C   UNL     1      44.239   3.888   9.810  0.00  0.00    +0.000 A 
ATOM      5  C   UNL     1      45.107   4.485   8.896  0.00  0.00    +0.000 A 
ATOM      6  C   UNL     1      45.955   3.704   8.115  0.00  0.00    +0.000 A 
ENDROOT
BRANCH   1   7
ATOM      7  C   UNL     1      46.874   1.489   7.357  0.00  0.00    +0.000 C 
BRANCH   7   9
ATOM      8  C   UNL     1      46.813   2.811   5.124  0.00  0.00    +0.000 C 
ATOM      9  C   UNL     1      47.594   2.259   6.278  0.00  0.00    +0.000 C 
BRANCH   9  10
ATOM     10  N   UNL     1      48.940   2.680   6.474  0.00  0.00    +0.000 NA
ATOM     11  H   UNL     1      49.267   3.507   5.988  0.00  0.00    +0.000 HD
ATOM     12  H   UNL     1      49.657   1.983   6.649  0.00  0.00    +0.000 HD
ENDBRANCH   9  10
ENDBRANCH   7   9
ENDBRANCH   1   7
BRANCH   4  13
ATOM     13  O   UNL     1      43.424   4.581  10.663  0.00  0.00    +0.000 OA
BRANCH  13  14
ATOM     14  C   UNL     1      43.527   4.181  12.037  0.00  0.00    +0.000 C 
BRANCH  14  15
ATOM     15  C   UNL     1      44.833   4.661  12.617  0.00  0.00    +0.000 A 
ATOM     16  C   UNL     1      45.124   6.021  12.602  0.00  0.00    +0.000 A 
ATOM     17  C   UNL     1      46.315   6.471  13.176  0.00  0.00    +0.000 A 
ATOM     18  C   UNL     1      47.170   5.530  13.758  0.00  0.00    +0.000 A 
ATOM     19  C   UNL     1      46.797   4.195  13.744  0.00  0.00    +0.000 A 
ATOM     20  N   UNL     1      45.650   3.746  13.195  0.00  0.00    +0.000 NA
BRANCH  17  21
ATOM     21  C   UNL     1      46.670   7.930  13.172  0.00  0.00    +0.000 C 
ATOM     22  F   UNL     1      45.606   8.751  13.397  0.00  0.00    +0.000 F 
ATOM     23  F   UNL     1      47.589   8.244  14.126  0.00  0.00    +0.000 F 
ATOM     24  F   UNL     1      47.207   8.330  11.987  0.00  0.00    +0.000 F 
ENDBRANCH  17  21
ENDBRANCH  14  15
ENDBRANCH  13  14
ENDBRANCH   4  13
TORSDOF 7
ENDMDL
MODEL 2
REMARK VINA RESULT:    -7.333      1.429      2.181
REMARK INTER + INTRA:         -10.619
REMARK INTER:                 -10.011
REMARK INTRA:                  -0.608
REMARK UNBOUND:                -0.499
REMARK  Name = 
REMARK  8 active torsions:
REMARK  status: ('A' for Active; 'I' for Inactive)
REMARK    1  A    between atoms: C_1  and  C_2
REMARK    2  A    between atoms: C_2  and  N_3
REMARK    3  A    between atoms: C_2  and  C_4
REMARK    4  A    between atoms: C_4  and  C_5
REMARK    5  A    between atoms: C_8  and  O_9
REMARK    6  A    between atoms: O_9  and  C_10
REMARK    7  A    between atoms: C_10  and  C_11
REMARK    8  A    between atoms: C_13  and  C_14
REMARK                            x       y       z     vdW  Elec       q    Type
REMARK                         _______ _______ _______ _____ _____    ______ ____
ROOT
ATOM      1  C   UNL     1      45.978   2.324   8.174  0.00  0.00    +0.000 A 
ATOM      2  C   UNL     1      45.978   3.716   8.032  0.00  0.00    +0.000 A 
ATOM      3  C   UNL     1      45.086   4.506   8.769  0.00  0.00    +0.000 A 
ATOM      4  C   UNL     1      44.175   3.907   9.645  0.00  0.00    +0.000 A 
ATOM      5  C   UNL     1      44.200   2.524   9.814  0.00  0.00    +0.000 A 
ATOM      6  C   UNL     1      45.076   1.737   9.071  0.00  0.00    +0.000 A 
ENDROOT
BRANCH   1   7
ATOM      7  C   UNL     1      46.897   1.438   7.362  0.00  0.00    +0.000 C 
BRANCH   7   9
ATOM      8  C   UNL     1      46.867   2.578   5.030  0.00  0.00    +0.000 C 
ATOM      9  C   UNL     1      47.629   2.135   6.242  0.00  0.00    +0.000 C 
BRANCH   9  10
ATOM     10  N   UNL     1      48.962   2.598   6.435  0.00  0.00    +0.000 NA
ATOM     11  H   UNL     1      49.388   3.169   5.714  0.00  0.00    +0.000 HD
ATOM     12  H   UNL     1      49.615   2.025   6.959  0.00  0.00    +0.000 HD
ENDBRANCH   9  10
ENDBRANCH   7   9
ENDBRANCH   1   7
BRANCH   4  13
ATOM     13  O   UNL     1      43.302   4.746  10.282  0.00  0.00    +0.000 OA
BRANCH  13  14
ATOM     14  C   UNL     1      43.501   4.844  11.699  0.00  0.00    +0.000 C 
BRANCH  14  15
ATOM     15  C   UNL     1      44.461   5.966  12.008  0.00  0.00    +0.000 A 
ATOM     16  C   UNL     1      45.618   5.691  12.729  0.00  0.00    +0.000 A 
ATOM     17  C   UNL     1      46.527   6.720  12.979  0.00  0.00    +0.000 A 
ATOM     18  C   UNL     1      46.241   7.996  12.483  0.00  0.00    +0.000 A 
ATOM     19  C   UNL     1      45.073   8.181  11.761  0.00  0.00    +0.000 A 
ATOM     20  N   UNL     1      44.186   7.196  11.509  0.00  0.00    +0.000 NA
BRANCH  17  21
ATOM     21  C   UNL     1      47.783   6.467  13.763  0.00  0.00    +0.000 C 
ATOM     22  F   UNL     1      48.118   7.488  14.601  0.00  0.00    +0.000 F 
ATOM     23  F   UNL     1      47.691   5.358  14.547  0.00  0.00    +0.000 F 
ATOM     24  F   UNL     1      48.865   6.271  12.961  0.00  0.00    +0.000 F 
ENDBRANCH  17  21
ENDBRANCH  14  15
ENDBRANCH  13  14
ENDBRANCH   4  13
TORSDOF 7
ENDMDL
MODEL 3
REMARK VINA RESULT:    -7.211      2.412      2.914
REMARK INTER + INTRA:         -10.451
REMARK INTER:                  -9.997
REMARK INTRA:                  -0.454
REMARK UNBOUND:                -0.499
REMARK  Name = 
REMARK  8 active torsions:
REMARK  status: ('A' for Active; 'I' for Inactive)
REMARK    1  A    between atoms: C_1  and  C_2
REMARK    2  A    between atoms: C_2  and  N_3
REMARK    3  A    between atoms: C_2  and  C_4
REMARK    4  A    between atoms: C_4  and  C_5
REMARK    5  A    between atoms: C_8  and  O_9
REMARK    6  A    between atoms: O_9  and  C_10
REMARK    7  A    between atoms: C_10  and  C_11
REMARK    8  A    between atoms: C_13  and  C_14
REMARK                            x       y       z     vdW  Elec       q    Type
REMARK                         _______ _______ _______ _____ _____    ______ ____
ROOT
ATOM      1  C   UNL     1      45.652   3.503   8.014  0.00  0.00    +0.000 A 
ATOM      2  C   UNL     1      44.810   2.681   8.773  0.00  0.00    +0.000 A 
ATOM      3  C   UNL     1      44.337   3.108  10.021  0.00  0.00    +0.000 A 
ATOM      4  C   UNL     1      44.716   4.355  10.528  0.00  0.00    +0.000 A 
ATOM      5  C   UNL     1      45.525   5.188   9.756  0.00  0.00    +0.000 A 
ATOM      6  C   UNL     1      46.007   4.759   8.522  0.00  0.00    +0.000 A 
ENDROOT
BRANCH   1   7
ATOM      7  C   UNL     1      46.215   3.056   6.683  0.00  0.00    +0.000 C 
BRANCH   7   9
ATOM      8  C   UNL     1      47.140   0.701   7.264  0.00  0.00    +0.000 C 
ATOM      9  C   UNL     1      47.376   2.097   6.771  0.00  0.00    +0.000 C 
BRANCH   9  10
ATOM     10  N   UNL     1      48.621   2.419   6.158  0.00  0.00    +0.000 NA
ATOM     11  H   UNL     1      48.616   2.838   5.235  0.00  0.00    +0.000 HD
ATOM     12  H   UNL     1      49.434   1.845   6.357  0.00  0.00    +0.000 HD
ENDBRANCH   9  10
ENDBRANCH   7   9
ENDBRANCH   1   7
BRANCH   4  13
ATOM     13  O   UNL     1      44.257   4.669  11.777  0.00  0.00    +0.000 OA
BRANCH  13  14
ATOM     14  C   UNL     1      44.489   6.030  12.170  0.00  0.00    +0.000 C 
BRANCH  14  15
ATOM     15  C   UNL     1      45.734   6.117  13.016  0.00  0.00    +0.000 A 
ATOM     16  C   UNL     1      46.007   5.104  13.929  0.00  0.00    +0.000 A 
ATOM     17  C   UNL     1      47.181   5.163  14.683  0.00  0.00    +0.000 A 
ATOM     18  C   UNL     1      48.048   6.242  14.482  0.00  0.00    +0.000 A 
ATOM     19  C   UNL     1      47.707   7.201  13.541  0.00  0.00    +0.000 A 
ATOM     20  N   UNL     1      46.579   7.156  12.804  0.00  0.00    +0.000 NA
BRANCH  17  21
ATOM     21  C   UNL     1      47.508   4.094  15.687  0.00  0.00    +0.000 C 
ATOM     22  F   UNL     1      48.676   4.312  16.354  0.00  0.00    +0.000 F 
ATOM     23  F   UNL     1      46.550   3.973  16.646  0.00  0.00    +0.000 F 
ATOM     24  F   UNL     1      47.626   2.865  15.117  0.00  0.00    +0.000 F 
ENDBRANCH  17  21
ENDBRANCH  14  15
ENDBRANCH  13  14
ENDBRANCH   4  13
TORSDOF 7
ENDMDL
MODEL 4
REMARK VINA RESULT:    -7.203      1.811      2.584
REMARK INTER + INTRA:         -10.439
REMARK INTER:                 -10.185
REMARK INTRA:                  -0.254
REMARK UNBOUND:                -0.499
REMARK  Name = 
REMARK  8 active torsions:
REMARK  status: ('A' for Active; 'I' for Inactive)
REMARK    1  A    between atoms: C_1  and  C_2
REMARK    2  A    between atoms: C_2  and  N_3
REMARK    3  A    between atoms: C_2  and  C_4
REMARK    4  A    between atoms: C_4  and  C_5
REMARK    5  A    between atoms: C_8  and  O_9
REMARK    6  A    between atoms: O_9  and  C_10
REMARK    7  A    between atoms: C_10  and  C_11
REMARK    8  A    between atoms: C_13  and  C_14
REMARK                            x       y       z     vdW  Elec       q    Type
REMARK                         _______ _______ _______ _____ _____    ______ ____
ROOT
ATOM      1  C   UNL     1      45.730   3.368   7.880  0.00  0.00    +0.000 A 
ATOM      2  C   UNL     1      44.958   2.581   8.742  0.00  0.00    +0.000 A 
ATOM      3  C   UNL     1      44.542   3.084   9.983  0.00  0.00    +0.000 A 
ATOM      4  C   UNL     1      44.907   4.375  10.376  0.00  0.00    +0.000 A 
ATOM      5  C   UNL     1      45.644   5.172   9.502  0.00  0.00    +0.000 A 
ATOM      6  C   UNL     1      46.071   4.668   8.276  0.00  0.00    +0.000 A 
ENDROOT
BRANCH   1   7
ATOM      7  C   UNL     1      46.234   2.841   6.554  0.00  0.00    +0.000 C 
BRANCH   7   9
ATOM      8  C   UNL     1      47.003   0.526   7.441  0.00  0.00    +0.000 C 
ATOM      9  C   UNL     1      47.290   1.769   6.653  0.00  0.00    +0.000 C 
BRANCH   9  10
ATOM     10  N   UNL     1      48.437   1.811   5.809  0.00  0.00    +0.000 NA
ATOM     11  H   UNL     1      48.562   1.076   5.122  0.00  0.00    +0.000 HD
ATOM     12  H   UNL     1      49.300   2.207   6.165  0.00  0.00    +0.000 HD
ENDBRANCH   9  10
ENDBRANCH   7   9
ENDBRANCH   1   7
BRANCH   4  13
ATOM     13  O   UNL     1      44.507   4.767  11.624  0.00  0.00    +0.000 OA
BRANCH  13  14
ATOM     14  C   UNL     1      45.577   4.921  12.568  0.00  0.00    +0.000 C 
BRANCH  14  15
ATOM     15  C   UNL     1      46.044   6.354  12.588  0.00  0.00    +0.000 A 
ATOM     16  C   UNL     1      47.370   6.642  12.282  0.00  0.00    +0.000 A 
ATOM     17  C   UNL     1      47.793   7.972  12.260  0.00  0.00    +0.000 A 
ATOM     18  C   UNL     1      46.856   8.973  12.539  0.00  0.00    +0.000 A 
ATOM     19  C   UNL     1      45.551   8.601  12.818  0.00  0.00    +0.000 A 
ATOM     20  N   UNL     1      45.127   7.321  12.841  0.00  0.00    +0.000 NA
BRANCH  17  21
ATOM     21  C   UNL     1      49.219   8.323  11.944  0.00  0.00    +0.000 C 
ATOM     22  F   UNL     1      49.895   7.331  11.300  0.00  0.00    +0.000 F 
ATOM     23  F   UNL     1      49.318   9.420  11.144  0.00  0.00    +0.000 F 
ATOM     24  F   UNL     1      49.944   8.606  13.061  0.00  0.00    +0.000 F 
ENDBRANCH  17  21
ENDBRANCH  14  15
ENDBRANCH  13  14
ENDBRANCH   4  13
TORSDOF 7
ENDMDL
MODEL 5
REMARK VINA RESULT:    -7.019      3.534      7.209
REMARK INTER + INTRA:         -10.185
REMARK INTER:                  -9.750
REMARK INTRA:                  -0.435
REMARK UNBOUND:                -0.499
REMARK  Name = 
REMARK  8 active torsions:
REMARK  status: ('A' for Active; 'I' for Inactive)
REMARK    1  A    between atoms: C_1  and  C_2
REMARK    2  A    between atoms: C_2  and  N_3
REMARK    3  A    between atoms: C_2  and  C_4
REMARK    4  A    between atoms: C_4  and  C_5
REMARK    5  A    between atoms: C_8  and  O_9
REMARK    6  A    between atoms: O_9  and  C_10
REMARK    7  A    between atoms: C_10  and  C_11
REMARK    8  A    between atoms: C_13  and  C_14
REMARK                            x       y       z     vdW  Elec       q    Type
REMARK                         _______ _______ _______ _____ _____    ______ ____
ROOT
ATOM      1  C   UNL     1      47.629   5.222  15.209  0.00  0.00    +0.000 A 
ATOM      2  C   UNL     1      48.050   6.425  14.629  0.00  0.00    +0.000 A 
ATOM      3  C   UNL     1      47.611   6.786  13.348  0.00  0.00    +0.000 A 
ATOM      4  C   UNL     1      46.759   5.941  12.631  0.00  0.00    +0.000 A 
ATOM      5  C   UNL     1      46.311   4.761  13.224  0.00  0.00    +0.000 A 
ATOM      6  C   UNL     1      46.759   4.394  14.491  0.00  0.00    +0.000 A 
ENDROOT
BRANCH   1   7
ATOM      7  C   UNL     1      48.118   4.780  16.571  0.00  0.00    +0.000 C 
BRANCH   7   9
ATOM      8  C   UNL     1      48.937   2.319  16.673  0.00  0.00    +0.000 C 
ATOM      9  C   UNL     1      47.857   3.332  16.904  0.00  0.00    +0.000 C 
BRANCH   9  10
ATOM     10  N   UNL     1      46.708   2.966  17.662  0.00  0.00    +0.000 NA
ATOM     11  H   UNL     1      45.805   2.955  17.202  0.00  0.00    +0.000 HD
ATOM     12  H   UNL     1      46.674   3.189  18.651  0.00  0.00    +0.000 HD
ENDBRANCH   9  10
ENDBRANCH   7   9
ENDBRANCH   1   7
BRANCH   4  13
ATOM     13  O   UNL     1      46.425   6.342  11.367  0.00  0.00    +0.000 OA
BRANCH  13  14
ATOM     14  C   UNL     1      45.058   6.097  11.008  0.00  0.00    +0.000 C 
BRANCH  14  15
ATOM     15  C   UNL     1      44.956   4.827  10.202  0.00  0.00    +0.000 A 
ATOM     16  C   UNL     1      45.743   4.679   9.065  0.00  0.00    +0.000 A 
ATOM     17  C   UNL     1      45.680   3.486   8.342  0.00  0.00    +0.000 A 
ATOM     18  C   UNL     1      44.827   2.476   8.798  0.00  0.00    +0.000 A 
ATOM     19  C   UNL     1      44.088   2.699   9.949  0.00  0.00    +0.000 A 
ATOM     20  N   UNL     1      44.141   3.845  10.659  0.00  0.00    +0.000 NA
BRANCH  17  21
ATOM     21  C   UNL     1      46.507   3.290   7.103  0.00  0.00    +0.000 C 
ATOM     22  F   UNL     1      47.100   4.434   6.658  0.00  0.00    +0.000 F 
ATOM     23  F   UNL     1      47.516   2.397   7.289  0.00  0.00    +0.000 F 
ATOM     24  F   UNL     1      45.774   2.818   6.059  0.00  0.00    +0.000 F 
ENDBRANCH  17  21
ENDBRANCH  14  15
ENDBRANCH  13  14
ENDBRANCH   4  13
TORSDOF 7
ENDMDL
MODEL 6
REMARK VINA RESULT:    -6.940      3.291      6.800
REMARK INTER + INTRA:         -10.076
REMARK INTER:                  -9.378
REMARK INTRA:                  -0.698
REMARK UNBOUND:                -0.499
REMARK  Name = 
REMARK  8 active torsions:
REMARK  status: ('A' for Active; 'I' for Inactive)
REMARK    1  A    between atoms: C_1  and  C_2
REMARK    2  A    between atoms: C_2  and  N_3
REMARK    3  A    between atoms: C_2  and  C_4
REMARK    4  A    between atoms: C_4  and  C_5
REMARK    5  A    between atoms: C_8  and  O_9
REMARK    6  A    between atoms: O_9  and  C_10
REMARK    7  A    between atoms: C_10  and  C_11
REMARK    8  A    between atoms: C_13  and  C_14
REMARK                            x       y       z     vdW  Elec       q    Type
REMARK                         _______ _______ _______ _____ _____    ______ ____
ROOT
ATOM      1  C   UNL     1      47.484   6.656  13.454  0.00  0.00    +0.000 A 
ATOM      2  C   UNL     1      46.966   5.423  13.868  0.00  0.00    +0.000 A 
ATOM      3  C   UNL     1      45.728   4.975  13.385  0.00  0.00    +0.000 A 
ATOM      4  C   UNL     1      44.993   5.764  12.495  0.00  0.00    +0.000 A 
ATOM      5  C   UNL     1      45.527   6.974  12.056  0.00  0.00    +0.000 A 
ATOM      6  C   UNL     1      46.748   7.427  12.546  0.00  0.00    +0.000 A 
ENDROOT
BRANCH   1   7
ATOM      7  C   UNL     1      48.794   7.190  13.990  0.00  0.00    +0.000 C 
BRANCH   7   9
ATOM      8  C   UNL     1      49.702   9.607  14.255  0.00  0.00    +0.000 C 
ATOM      9  C   UNL     1      48.713   8.549  14.639  0.00  0.00    +0.000 C 
BRANCH   9  10
ATOM     10  N   UNL     1      47.568   8.910  15.407  0.00  0.00    +0.000 NA
ATOM     11  H   UNL     1      47.196   8.240  16.070  0.00  0.00    +0.000 HD
ATOM     12  H   UNL     1      46.877   9.533  15.003  0.00  0.00    +0.000 HD
ENDBRANCH   9  10
ENDBRANCH   7   9
ENDBRANCH   1   7
BRANCH   4  13
ATOM     13  O   UNL     1      43.771   5.278  12.118  0.00  0.00    +0.000 OA
BRANCH  13  14
ATOM     14  C   UNL     1      43.512   5.354  10.709  0.00  0.00    +0.000 C 
BRANCH  14  15
ATOM     15  C   UNL     1      44.105   4.158  10.010  0.00  0.00    +0.000 A 
ATOM     16  C   UNL     1      45.053   4.355   9.011  0.00  0.00    +0.000 A 
ATOM     17  C   UNL     1      45.633   3.246   8.393  0.00  0.00    +0.000 A 
ATOM     18  C   UNL     1      45.243   1.970   8.811  0.00  0.00    +0.000 A 
ATOM     19  C   UNL     1      44.303   1.862   9.824  0.00  0.00    +0.000 A 
ATOM     20  N   UNL     1      43.736   2.923  10.433  0.00  0.00    +0.000 NA
BRANCH  17  21
ATOM     21  C   UNL     1      46.653   3.416   7.303  0.00  0.00    +0.000 C 
ATOM     22  F   UNL     1      46.136   3.293   6.048  0.00  0.00    +0.000 F 
ATOM     23  F   UNL     1      47.252   4.638   7.339  0.00  0.00    +0.000 F 
ATOM     24  F   UNL     1      47.658   2.503   7.385  0.00  0.00    +0.000 F 
ENDBRANCH  17  21
ENDBRANCH  14  15
ENDBRANCH  13  14
ENDBRANCH   4  13
TORSDOF 7
ENDMDL
MODEL 7
REMARK VINA RESULT:    -6.839      3.397      4.387
REMARK INTER + INTRA:          -9.937
REMARK INTER:                  -9.307
REMARK INTRA:                  -0.629
REMARK UNBOUND:                -0.499
REMARK  Name = 
REMARK  8 active torsions:
REMARK  status: ('A' for Active; 'I' for Inactive)
REMARK    1  A    between atoms: C_1  and  C_2
REMARK    2  A    between atoms: C_2  and  N_3
REMARK    3  A    between atoms: C_2  and  C_4
REMARK    4  A    between atoms: C_4  and  C_5
REMARK    5  A    between atoms: C_8  and  O_9
REMARK    6  A    between atoms: O_9  and  C_10
REMARK    7  A    between atoms: C_10  and  C_11
REMARK    8  A    between atoms: C_13  and  C_14
REMARK                            x       y       z     vdW  Elec       q    Type
REMARK                         _______ _______ _______ _____ _____    ______ ____
ROOT
ATOM      1  C   UNL     1      45.139   4.093   9.498  0.00  0.00    +0.000 A 
ATOM      2  C   UNL     1      44.858   3.255  10.583  0.00  0.00    +0.000 A 
ATOM      3  C   UNL     1      45.088   3.692  11.895  0.00  0.00    +0.000 A 
ATOM      4  C   UNL     1      45.615   4.965  12.130  0.00  0.00    +0.000 A 
ATOM      5  C   UNL     1      45.860   5.812  11.051  0.00  0.00    +0.000 A 
ATOM      6  C   UNL     1      45.646   5.374   9.747  0.00  0.00    +0.000 A 
ENDROOT
BRANCH   1   7
ATOM      7  C   UNL     1      44.944   3.638   8.067  0.00  0.00    +0.000 C 
BRANCH   7   9
ATOM      8  C   UNL     1      46.702   1.795   7.569  0.00  0.00    +0.000 C 
ATOM      9  C   UNL     1      46.201   3.192   7.363  0.00  0.00    +0.000 C 
BRANCH   9  10
ATOM     10  N   UNL     1      46.761   3.987   6.322  0.00  0.00    +0.000 NA
ATOM     11  H   UNL     1      46.135   4.492   5.705  0.00  0.00    +0.000 HD
ATOM     12  H   UNL     1      47.634   3.700   5.894  0.00  0.00    +0.000 HD
ENDBRANCH   9  10
ENDBRANCH   7   9
ENDBRANCH   1   7
BRANCH   4  13
ATOM     13  O   UNL     1      45.863   5.290  13.436  0.00  0.00    +0.000 OA
BRANCH  13  14
ATOM     14  C   UNL     1      46.962   6.192  13.625  0.00  0.00    +0.000 C 
BRANCH  14  15
ATOM     15  C   UNL     1      47.706   5.842  14.888  0.00  0.00    +0.000 A 
ATOM     16  C   UNL     1      47.449   4.626  15.512  0.00  0.00    +0.000 A 
ATOM     17  C   UNL     1      48.168   4.282  16.659  0.00  0.00    +0.000 A 
ATOM     18  C   UNL     1      49.133   5.176  17.133  0.00  0.00    +0.000 A 
ATOM     19  C   UNL     1      49.337   6.360  16.441  0.00  0.00    +0.000 A 
ATOM     20  N   UNL     1      48.653   6.705  15.332  0.00  0.00    +0.000 NA
BRANCH  17  21
ATOM     21  C   UNL     1      47.914   2.983  17.368  0.00  0.00    +0.000 C 
ATOM     22  F   UNL     1      46.590   2.704  17.537  0.00  0.00    +0.000 F 
ATOM     23  F   UNL     1      48.435   1.916  16.702  0.00  0.00    +0.000 F 
ATOM     24  F   UNL     1      48.464   2.954  18.612  0.00  0.00    +0.000 F 
ENDBRANCH  17  21
ENDBRANCH  14  15
ENDBRANCH  13  14
ENDBRANCH   4  13
TORSDOF 7
ENDMDL
MODEL 8
REMARK VINA RESULT:    -6.707      1.313      2.037
REMARK INTER + INTRA:          -9.755
REMARK INTER:                  -9.524
REMARK INTRA:                  -0.231
REMARK UNBOUND:                -0.499
REMARK  Name = 
REMARK  8 active torsions:
REMARK  status: ('A' for Active; 'I' for Inactive)
REMARK    1  A    between atoms: C_1  and  C_2
REMARK    2  A    between atoms: C_2  and  N_3
REMARK    3  A    between atoms: C_2  and  C_4
REMARK    4  A    between atoms: C_4  and  C_5
REMARK    5  A    between atoms: C_8  and  O_9
REMARK    6  A    between atoms: O_9  and  C_10
REMARK    7  A    between atoms: C_10  and  C_11
REMARK    8  A    between atoms: C_13  and  C_14
REMARK                            x       y       z     vdW  Elec       q    Type
REMARK                         _______ _______ _______ _____ _____    ______ ____
ROOT
ATOM      1  C   UNL     1      45.549   3.331   8.035  0.00  0.00    +0.000 A 
ATOM      2  C   UNL     1      45.862   4.589   8.563  0.00  0.00    +0.000 A 
ATOM      3  C   UNL     1      45.340   4.990   9.801  0.00  0.00    +0.000 A 
ATOM      4  C   UNL     1      44.489   4.139  10.513  0.00  0.00    +0.000 A 
ATOM      5  C   UNL     1      44.207   2.872  10.004  0.00  0.00    +0.000 A 
ATOM      6  C   UNL     1      44.713   2.480   8.768  0.00  0.00    +0.000 A 
ENDROOT
BRANCH   1   7
ATOM      7  C   UNL     1      46.059   2.885   6.682  0.00  0.00    +0.000 C 
BRANCH   7   9
ATOM      8  C   UNL     1      47.299   0.712   7.374  0.00  0.00    +0.000 C 
ATOM      9  C   UNL     1      47.321   2.059   6.716  0.00  0.00    +0.000 C 
BRANCH   9  10
ATOM     10  N   UNL     1      48.442   2.427   5.920  0.00  0.00    +0.000 NA
ATOM     11  H   UNL     1      48.318   3.128   5.199  0.00  0.00    +0.000 HD
ATOM     12  H   UNL     1      49.155   1.735   5.716  0.00  0.00    +0.000 HD
ENDBRANCH   9  10
ENDBRANCH   7   9
ENDBRANCH   1   7
BRANCH   4  13
ATOM     13  O   UNL     1      43.979   4.630  11.683  0.00  0.00    +0.000 OA
BRANCH  13  14
ATOM     14  C   UNL     1      44.819   4.426  12.829  0.00  0.00    +0.000 C 
BRANCH  14  15
ATOM     15  C   UNL     1      45.729   5.613  13.018  0.00  0.00    +0.000 A 
ATOM     16  C   UNL     1      45.308   6.868  12.592  0.00  0.00    +0.000 A 
ATOM     17  C   UNL     1      46.133   7.974  12.805  0.00  0.00    +0.000 A 
ATOM     18  C   UNL     1      47.357   7.776  13.452  0.00  0.00    +0.000 A 
ATOM     19  C   UNL     1      47.694   6.495  13.858  0.00  0.00    +0.000 A 
ATOM     20  N   UNL     1      46.907   5.418  13.662  0.00  0.00    +0.000 NA
BRANCH  17  21
ATOM     21  C   UNL     1      45.718   9.344  12.351  0.00  0.00    +0.000 C 
ATOM     22  F   UNL     1      45.359   9.398  11.038  0.00  0.00    +0.000 F 
ATOM     23  F   UNL     1      44.650   9.821  13.048  0.00  0.00    +0.000 F 
ATOM     24  F   UNL     1      46.709  10.265  12.506  0.00  0.00    +0.000 F 
ENDBRANCH  17  21
ENDBRANCH  14  15
ENDBRANCH  13  14
ENDBRANCH   4  13
TORSDOF 7
ENDMDL
MODEL 9
REMARK VINA RESULT:    -6.482      3.771      7.525
REMARK INTER + INTRA:          -9.444
REMARK INTER:                  -8.816
REMARK INTRA:                  -0.628
REMARK UNBOUND:                -0.499
REMARK  Name = 
REMARK  8 active torsions:
REMARK  status: ('A' for Active; 'I' for Inactive)
REMARK    1  A    between atoms: C_1  and  C_2
REMARK    2  A    between atoms: C_2  and  N_3
REMARK    3  A    between atoms: C_2  and  C_4
REMARK    4  A    between atoms: C_4  and  C_5
REMARK    5  A    between atoms: C_8  and  O_9
REMARK    6  A    between atoms: O_9  and  C_10
REMARK    7  A    between atoms: C_10  and  C_11
REMARK    8  A    between atoms: C_13  and  C_14
REMARK                            x       y       z     vdW  Elec       q    Type
REMARK                         _______ _______ _______ _____ _____    ______ ____
ROOT
ATOM      1  C   UNL     1      47.900   6.694  13.980  0.00  0.00    +0.000 A 
ATOM      2  C   UNL     1      47.317   7.672  13.166  0.00  0.00    +0.000 A 
ATOM      3  C   UNL     1      46.262   7.343  12.304  0.00  0.00    +0.000 A 
ATOM      4  C   UNL     1      45.791   6.028  12.240  0.00  0.00    +0.000 A 
ATOM      5  C   UNL     1      46.348   5.062  13.077  0.00  0.00    +0.000 A 
ATOM      6  C   UNL     1      47.406   5.385  13.923  0.00  0.00    +0.000 A 
ENDROOT
BRANCH   1   7
ATOM      7  C   UNL     1      49.069   7.006  14.888  0.00  0.00    +0.000 C 
BRANCH   7   9
ATOM      8  C   UNL     1      49.507   5.593  17.022  0.00  0.00    +0.000 C 
ATOM      9  C   UNL     1      48.825   6.749  16.354  0.00  0.00    +0.000 C 
BRANCH   9  10
ATOM     10  N   UNL     1      48.167   7.727  17.155  0.00  0.00    +0.000 NA
ATOM     11  H   UNL     1      48.550   8.665  17.189  0.00  0.00    +0.000 HD
ATOM     12  H   UNL     1      47.689   7.436  18.000  0.00  0.00    +0.000 HD
ENDBRANCH   9  10
ENDBRANCH   7   9
ENDBRANCH   1   7
BRANCH   4  13
ATOM     13  O   UNL     1      44.798   5.780  11.332  0.00  0.00    +0.000 OA
BRANCH  13  14
ATOM     14  C   UNL     1      45.233   5.775   9.965  0.00  0.00    +0.000 C 
BRANCH  14  15
ATOM     15  C   UNL     1      45.223   4.367   9.426  0.00  0.00    +0.000 A 
ATOM     16  C   UNL     1      46.019   4.053   8.330  0.00  0.00    +0.000 A 
ATOM     17  C   UNL     1      46.042   2.740   7.856  0.00  0.00    +0.000 A 
ATOM     18  C   UNL     1      45.264   1.782   8.514  0.00  0.00    +0.000 A 
ATOM     19  C   UNL     1      44.510   2.176   9.608  0.00  0.00    +0.000 A 
ATOM     20  N   UNL     1      44.480   3.439  10.078  0.00  0.00    +0.000 NA
BRANCH  17  21
ATOM     21  C   UNL     1      46.881   2.362   6.669  0.00  0.00    +0.000 C 
ATOM     22  F   UNL     1      48.185   2.742   6.781  0.00  0.00    +0.000 F 
ATOM     23  F   UNL     1      46.904   1.018   6.456  0.00  0.00    +0.000 F 
ATOM     24  F   UNL     1      46.427   2.919   5.513  0.00  0.00    +0.000 F 
ENDBRANCH  17  21
ENDBRANCH  14  15
ENDBRANCH  13  14
ENDBRANCH   4  13
TORSDOF 7
ENDMDL
