MODEL 1
REMARK VINA RESULT:    -9.911      0.000      0.000
REMARK INTER + INTRA:         -14.278
REMARK INTER:                 -13.387
REMARK INTRA:                  -0.891
REMARK UNBOUND:                -0.891
REMARK  Name = 
REMARK  6 active torsions:
REMARK  status: ('A' for Active; 'I' for Inactive)
REMARK    1  A    between atoms: C_2  and  C_4
REMARK    2  A    between atoms: N_8  and  C_9
REMARK    3  A    between atoms: C_9  and  C_10
REMARK    4  A    between atoms: C_10  and  C_13
REMARK    5  A    between atoms: C_17  and  O_18
REMARK    6  A    between atoms: O_18  and  C_19
REMARK                            x       y       z     vdW  Elec       q    Type
REMARK                         _______ _______ _______ _____ _____    ______ ____
ROOT
ATOM      1  C   UNL     1      43.265   4.451  11.162  0.00  0.00    +0.000 C 
ENDROOT
BRANCH   1   6
ATOM      2  C   UNL     1      46.535   2.543   7.710  0.00  0.00    +0.000 A 
ATOM      3  C   UNL     1      45.677   1.881   8.583  0.00  0.00    +0.000 A 
ATOM      4  C   UNL     1      44.755   2.623   9.324  0.00  0.00    +0.000 A 
ATOM      5  C   UNL     1      44.703   4.007   9.187  0.00  0.00    +0.000 A 
ATOM      6  N   UNL     1      43.748   4.788   9.812  0.00  0.00    +0.000 N 
ATOM      7  N   UNL     1      45.547   4.659   8.363  0.00  0.00    +0.000 NA
ATOM      8  C   UNL     1      46.448   3.922   7.652  0.00  0.00    +0.000 A 
ATOM      9  H   UNL     1      43.963   5.770   9.652  0.00  0.00    +0.000 HD
BRANCH   2  11
ATOM     10  N   UNL     1      48.632   2.524   6.487  0.00  0.00    +0.000 N 
ATOM     11  C   UNL     1      47.519   1.829   6.868  0.00  0.00    +0.000 C 
ATOM     12  O   UNL     1      47.362   0.658   6.554  0.00  0.00    +0.000 OA
ATOM     13  H   UNL     1      49.350   1.994   6.003  0.00  0.00    +0.000 HD
ATOM     14  H   UNL     1      48.921   3.379   6.941  0.00  0.00    +0.000 HD
ENDBRANCH   2  11
ENDBRANCH   1   6
BRANCH   1  15
ATOM     15  C   UNL     1      43.484   5.593  12.195  0.00  0.00    +0.000 C 
ATOM     16  F   UNL     1      43.094   6.768  11.611  0.00  0.00    +0.000 F 
ATOM     17  F   UNL     1      42.622   5.412  13.240  0.00  0.00    +0.000 F 
BRANCH  15  18
ATOM     18  C   UNL     1      44.929   5.647  12.666  0.00  0.00    +0.000 A 
ATOM     19  C   UNL     1      45.722   6.771  12.396  0.00  0.00    +0.000 A 
ATOM     20  C   UNL     1      47.051   6.818  12.824  0.00  0.00    +0.000 A 
ATOM     21  C   UNL     1      47.602   5.749  13.536  0.00  0.00    +0.000 A 
ATOM     22  C   UNL     1      46.826   4.631  13.829  0.00  0.00    +0.000 A 
ATOM     23  C   UNL     1      45.497   4.581  13.392  0.00  0.00    +0.000 A 
BRANCH  22  24
ATOM     24  O   UNL     1      47.259   3.570  14.591  0.00  0.00    +0.000 OA
BRANCH  24  25
ATOM     25  C   UNL     1      47.586   3.808  15.979  0.00  0.00    +0.000 C 
ATOM     26  C   UNL     1      48.445   2.731  16.663  0.00  0.00    +0.000 C 
ATOM     27  C   UNL     1      47.418   2.830  17.786  0.00  0.00    +0.000 C 
ATOM     28  O   UNL     1      46.507   3.555  16.928  0.00  0.00    +0.000 OA
ENDBRANCH  24  25
ENDBRANCH  22  24
ENDBRANCH  15  18
ENDBRANCH   1  15
TORSDOF 6
ENDMDL
MODEL 2
REMARK VINA RESULT:    -8.805      2.143      3.587
REMARK INTER + INTRA:         -12.784
REMARK INTER:                 -11.808
REMARK INTRA:                  -0.976
REMARK UNBOUND:                -0.891
REMARK  Name = 
REMARK  6 active torsions:
REMARK  status: ('A' for Active; 'I' for Inactive)
REMARK    1  A    between atoms: C_2  and  C_4
REMARK    2  A    between atoms: N_8  and  C_9
REMARK    3  A    between atoms: C_9  and  C_10
REMARK    4  A    between atoms: C_10  and  C_13
REMARK    5  A    between atoms: C_17  and  O_18
REMARK    6  A    between atoms: O_18  and  C_19
REMARK                            x       y       z     vdW  Elec       q    Type
REMARK                         _______ _______ _______ _____ _____    ______ ____
ROOT
ATOM      1  C   UNL     1      43.222   4.422  11.119  0.00  0.00    +0.000 C 
ENDROOT
BRANCH   1   6
ATOM      2  C   UNL     1      46.491   2.480   7.685  0.00  0.00    +0.000 A 
ATOM      3  C   UNL     1      45.661   1.827   8.591  0.00  0.00    +0.000 A 
ATOM      4  C   UNL     1      44.731   2.571   9.320  0.00  0.00    +0.000 A 
ATOM      5  C   UNL     1      44.644   3.948   9.140  0.00  0.00    +0.000 A 
ATOM      6  N   UNL     1      43.679   4.726   9.753  0.00  0.00    +0.000 N 
ATOM      7  N   UNL     1      45.462   4.593   8.284  0.00  0.00    +0.000 NA
ATOM      8  C   UNL     1      46.371   3.854   7.584  0.00  0.00    +0.000 A 
ATOM      9  H   UNL     1      43.869   5.708   9.558  0.00  0.00    +0.000 HD
BRANCH   2  11
ATOM     10  N   UNL     1      48.562   2.476   6.418  0.00  0.00    +0.000 N 
ATOM     11  C   UNL     1      47.480   1.763   6.852  0.00  0.00    +0.000 C 
ATOM     12  O   UNL     1      47.355   0.574   6.593  0.00  0.00    +0.000 OA
ATOM     13  H   UNL     1      49.286   1.949   5.941  0.00  0.00    +0.000 HD
ATOM     14  H   UNL     1      48.831   3.359   6.828  0.00  0.00    +0.000 HD
ENDBRANCH   2  11
ENDBRANCH   1   6
BRANCH   1  15
ATOM     15  C   UNL     1      43.476   5.582  12.124  0.00  0.00    +0.000 C 
ATOM     16  F   UNL     1      43.040   6.743  11.544  0.00  0.00    +0.000 F 
ATOM     17  F   UNL     1      42.671   5.404  13.214  0.00  0.00    +0.000 F 
BRANCH  15  18
ATOM     18  C   UNL     1      44.942   5.663  12.520  0.00  0.00    +0.000 A 
ATOM     19  C   UNL     1      45.450   4.844  13.538  0.00  0.00    +0.000 A 
ATOM     20  C   UNL     1      46.795   4.922  13.905  0.00  0.00    +0.000 A 
ATOM     21  C   UNL     1      47.655   5.810  13.252  0.00  0.00    +0.000 A 
ATOM     22  C   UNL     1      47.174   6.621  12.226  0.00  0.00    +0.000 A 
ATOM     23  C   UNL     1      45.823   6.547  11.866  0.00  0.00    +0.000 A 
BRANCH  22  24
ATOM     24  O   UNL     1      47.963   7.463  11.476  0.00  0.00    +0.000 OA
BRANCH  24  25
ATOM     25  C   UNL     1      48.557   8.610  12.126  0.00  0.00    +0.000 C 
ATOM     26  C   UNL     1      47.574   9.601  12.772  0.00  0.00    +0.000 C 
ATOM     27  C   UNL     1      48.402  10.664  12.059  0.00  0.00    +0.000 C 
ATOM     28  O   UNL     1      49.033   9.659  11.232  0.00  0.00    +0.000 OA
ENDBRANCH  24  25
ENDBRANCH  22  24
ENDBRANCH  15  18
ENDBRANCH   1  15
TORSDOF 6
ENDMDL
MODEL 3
REMARK VINA RESULT:    -8.115      2.256      2.619
REMARK INTER + INTRA:         -11.852
REMARK INTER:                 -11.288
REMARK INTRA:                  -0.564
REMARK UNBOUND:                -0.891
REMARK  Name = 
REMARK  6 active torsions:
REMARK  status: ('A' for Active; 'I' for Inactive)
REMARK    1  A    between atoms: C_2  and  C_4
REMARK    2  A    between atoms: N_8  and  C_9
REMARK    3  A    between atoms: C_9  and  C_10
REMARK    4  A    between atoms: C_10  and  C_13
REMARK    5  A    between atoms: C_17  and  O_18
REMARK    6  A    between atoms: O_18  and  C_19
REMARK                            x       y       z     vdW  Elec       q    Type
REMARK                         _______ _______ _______ _____ _____    ______ ____
ROOT
ATOM      1  C   UNL     1      43.168   4.510  11.080  0.00  0.00    +0.000 C 
ENDROOT
BRANCH   1   6
ATOM      2  C   UNL     1      46.484   2.561   7.696  0.00  0.00    +0.000 A 
ATOM      3  C   UNL     1      45.493   1.925   8.436  0.00  0.00    +0.000 A 
ATOM      4  C   UNL     1      44.599   2.698   9.180  0.00  0.00    +0.000 A 
ATOM      5  C   UNL     1      44.706   4.085   9.177  0.00  0.00    +0.000 A 
ATOM      6  N   UNL     1      43.792   4.910   9.807  0.00  0.00    +0.000 N 
ATOM      7  N   UNL     1      45.678   4.708   8.483  0.00  0.00    +0.000 NA
ATOM      8  C   UNL     1      46.551   3.941   7.768  0.00  0.00    +0.000 A 
ATOM      9  H   UNL     1      44.124   5.872   9.760  0.00  0.00    +0.000 HD
BRANCH   2  11
ATOM     10  N   UNL     1      48.538   2.510   6.402  0.00  0.00    +0.000 N 
ATOM     11  C   UNL     1      47.452   1.819   6.858  0.00  0.00    +0.000 C 
ATOM     12  O   UNL     1      47.305   0.629   6.614  0.00  0.00    +0.000 OA
ATOM     13  H   UNL     1      49.248   1.966   5.922  0.00  0.00    +0.000 HD
ATOM     14  H   UNL     1      48.827   3.393   6.798  0.00  0.00    +0.000 HD
ENDBRANCH   2  11
ENDBRANCH   1   6
BRANCH   1  15
ATOM     15  C   UNL     1      44.130   4.623  12.297  0.00  0.00    +0.000 C 
ATOM     16  F   UNL     1      43.374   4.555  13.436  0.00  0.00    +0.000 F 
ATOM     17  F   UNL     1      44.927   3.514  12.332  0.00  0.00    +0.000 F 
BRANCH  15  18
ATOM     18  C   UNL     1      44.952   5.901  12.239  0.00  0.00    +0.000 A 
ATOM     19  C   UNL     1      44.380   7.093  11.774  0.00  0.00    +0.000 A 
ATOM     20  C   UNL     1      45.137   8.266  11.716  0.00  0.00    +0.000 A 
ATOM     21  C   UNL     1      46.471   8.267  12.132  0.00  0.00    +0.000 A 
ATOM     22  C   UNL     1      47.053   7.097  12.613  0.00  0.00    +0.000 A 
ATOM     23  C   UNL     1      46.296   5.920  12.663  0.00  0.00    +0.000 A 
BRANCH  22  24
ATOM     24  O   UNL     1      48.332   7.023  13.118  0.00  0.00    +0.000 OA
BRANCH  24  25
ATOM     25  C   UNL     1      48.510   7.087  14.551  0.00  0.00    +0.000 C 
ATOM     26  C   UNL     1      48.816   8.479  15.130  0.00  0.00    +0.000 C 
ATOM     27  C   UNL     1      49.922   7.760  15.894  0.00  0.00    +0.000 C 
ATOM     28  O   UNL     1      49.792   6.596  15.044  0.00  0.00    +0.000 OA
ENDBRANCH  24  25
ENDBRANCH  22  24
ENDBRANCH  15  18
ENDBRANCH   1  15
TORSDOF 6
ENDMDL
MODEL 4
REMARK VINA RESULT:    -7.748      3.357      7.701
REMARK INTER + INTRA:         -11.357
REMARK INTER:                 -10.571
REMARK INTRA:                  -0.786
REMARK UNBOUND:                -0.891
REMARK  Name = 
REMARK  6 active torsions:
REMARK  status: ('A' for Active; 'I' for Inactive)
REMARK    1  A    between atoms: C_2  and  C_4
REMARK    2  A    between atoms: N_8  and  C_9
REMARK    3  A    between atoms: C_9  and  C_10
REMARK    4  A    between atoms: C_10  and  C_13
REMARK    5  A    between atoms: C_17  and  O_18
REMARK    6  A    between atoms: O_18  and  C_19
REMARK                            x       y       z     vdW  Elec       q    Type
REMARK                         _______ _______ _______ _____ _____    ______ ____
ROOT
ATOM      1  C   UNL     1      45.898   6.442  13.161  0.00  0.00    +0.000 C 
ENDROOT
BRANCH   1   6
ATOM      2  C   UNL     1      48.448   3.967  16.851  0.00  0.00    +0.000 A 
ATOM      3  C   UNL     1      47.479   3.496  15.971  0.00  0.00    +0.000 A 
ATOM      4  C   UNL     1      47.040   4.325  14.936  0.00  0.00    +0.000 A 
ATOM      5  C   UNL     1      47.569   5.604  14.795  0.00  0.00    +0.000 A 
ATOM      6  N   UNL     1      47.255   6.434  13.734  0.00  0.00    +0.000 N 
ATOM      7  N   UNL     1      48.490   6.078  15.657  0.00  0.00    +0.000 NA
ATOM      8  C   UNL     1      48.903   5.261  16.669  0.00  0.00    +0.000 A 
ATOM      9  H   UNL     1      47.675   7.349  13.890  0.00  0.00    +0.000 HD
BRANCH   2  11
ATOM     10  N   UNL     1      48.349   3.222  19.160  0.00  0.00    +0.000 N 
ATOM     11  C   UNL     1      48.989   3.144  17.955  0.00  0.00    +0.000 C 
ATOM     12  O   UNL     1      49.944   2.399  17.788  0.00  0.00    +0.000 OA
ATOM     13  H   UNL     1      48.659   2.574  19.877  0.00  0.00    +0.000 HD
ATOM     14  H   UNL     1      47.419   3.605  19.258  0.00  0.00    +0.000 HD
ENDBRANCH   2  11
ENDBRANCH   1   6
BRANCH   1  15
ATOM     15  C   UNL     1      45.884   6.640  11.618  0.00  0.00    +0.000 C 
ATOM     16  F   UNL     1      45.109   7.734  11.343  0.00  0.00    +0.000 F 
ATOM     17  F   UNL     1      47.141   6.982  11.207  0.00  0.00    +0.000 F 
BRANCH  15  18
ATOM     18  C   UNL     1      45.381   5.395  10.903  0.00  0.00    +0.000 A 
ATOM     19  C   UNL     1      44.620   4.440  11.590  0.00  0.00    +0.000 A 
ATOM     20  C   UNL     1      44.163   3.295  10.935  0.00  0.00    +0.000 A 
ATOM     21  C   UNL     1      44.449   3.094   9.581  0.00  0.00    +0.000 A 
ATOM     22  C   UNL     1      45.190   4.039   8.876  0.00  0.00    +0.000 A 
ATOM     23  C   UNL     1      45.655   5.182   9.537  0.00  0.00    +0.000 A 
BRANCH  22  24
ATOM     24  O   UNL     1      45.450   3.964   7.527  0.00  0.00    +0.000 OA
BRANCH  24  25
ATOM     25  C   UNL     1      46.764   3.534   7.103  0.00  0.00    +0.000 C 
ATOM     26  C   UNL     1      46.869   3.019   5.657  0.00  0.00    +0.000 C 
ATOM     27  C   UNL     1      47.639   1.859   6.278  0.00  0.00    +0.000 C 
ATOM     28  O   UNL     1      47.186   2.230   7.602  0.00  0.00    +0.000 OA
ENDBRANCH  24  25
ENDBRANCH  22  24
ENDBRANCH  15  18
ENDBRANCH   1  15
TORSDOF 6
ENDMDL
MODEL 5
REMARK VINA RESULT:    -7.672      3.511      8.156
REMARK INTER + INTRA:         -11.254
REMARK INTER:                 -10.691
REMARK INTRA:                  -0.563
REMARK UNBOUND:                -0.891
REMARK  Name = 
REMARK  6 active torsions:
REMARK  status: ('A' for Active; 'I' for Inactive)
REMARK    1  A    between atoms: C_2  and  C_4
REMARK    2  A    between atoms: N_8  and  C_9
REMARK    3  A    between atoms: C_9  and  C_10
REMARK    4  A    between atoms: C_10  and  C_13
REMARK    5  A    between atoms: C_17  and  O_18
REMARK    6  A    between atoms: O_18  and  C_19
REMARK                            x       y       z     vdW  Elec       q    Type
REMARK                         _______ _______ _______ _____ _____    ______ ____
ROOT
ATOM      1  C   UNL     1      46.928   5.461  13.127  0.00  0.00    +0.000 C 
ENDROOT
BRANCH   1   6
ATOM      2  C   UNL     1      48.586   4.412  17.860  0.00  0.00    +0.000 A 
ATOM      3  C   UNL     1      48.872   5.497  17.038  0.00  0.00    +0.000 A 
ATOM      4  C   UNL     1      48.169   5.648  15.841  0.00  0.00    +0.000 A 
ATOM      5  C   UNL     1      47.197   4.719  15.482  0.00  0.00    +0.000 A 
ATOM      6  N   UNL     1      46.395   4.866  14.364  0.00  0.00    +0.000 N 
ATOM      7  N   UNL     1      46.931   3.651  16.259  0.00  0.00    +0.000 NA
ATOM      8  C   UNL     1      47.632   3.511  17.421  0.00  0.00    +0.000 A 
ATOM      9  H   UNL     1      45.834   4.024  14.244  0.00  0.00    +0.000 HD
BRANCH   2  11
ATOM     10  N   UNL     1      48.558   3.537  20.125  0.00  0.00    +0.000 N 
ATOM     11  C   UNL     1      49.263   4.195  19.157  0.00  0.00    +0.000 C 
ATOM     12  O   UNL     1      50.416   4.556  19.344  0.00  0.00    +0.000 OA
ATOM     13  H   UNL     1      49.068   3.298  20.969  0.00  0.00    +0.000 HD
ATOM     14  H   UNL     1      47.729   2.997  19.921  0.00  0.00    +0.000 HD
ENDBRANCH   2  11
ENDBRANCH   1   6
BRANCH   1  15
ATOM     15  C   UNL     1      45.831   6.105  12.233  0.00  0.00    +0.000 C 
ATOM     16  F   UNL     1      44.861   6.610  13.057  0.00  0.00    +0.000 F 
ATOM     17  F   UNL     1      46.362   7.193  11.600  0.00  0.00    +0.000 F 
BRANCH  15  18
ATOM     18  C   UNL     1      45.264   5.102  11.240  0.00  0.00    +0.000 A 
ATOM     19  C   UNL     1      44.293   4.174  11.643  0.00  0.00    +0.000 A 
ATOM     20  C   UNL     1      43.777   3.250  10.732  0.00  0.00    +0.000 A 
ATOM     21  C   UNL     1      44.214   3.247   9.404  0.00  0.00    +0.000 A 
ATOM     22  C   UNL     1      45.166   4.170   8.980  0.00  0.00    +0.000 A 
ATOM     23  C   UNL     1      45.689   5.091   9.896  0.00  0.00    +0.000 A 
BRANCH  22  24
ATOM     24  O   UNL     1      45.594   4.293   7.678  0.00  0.00    +0.000 OA
BRANCH  24  25
ATOM     25  C   UNL     1      46.758   3.543   7.263  0.00  0.00    +0.000 C 
ATOM     26  C   UNL     1      46.700   2.935   5.851  0.00  0.00    +0.000 C 
ATOM     27  C   UNL     1      47.195   1.665   6.533  0.00  0.00    +0.000 C 
ATOM     28  O   UNL     1      46.879   2.207   7.837  0.00  0.00    +0.000 OA
ENDBRANCH  24  25
ENDBRANCH  22  24
ENDBRANCH  15  18
ENDBRANCH   1  15
TORSDOF 6
ENDMDL
