MODEL 1
REMARK VINA RESULT:    -7.854      0.000      0.000
REMARK INTER + INTRA:         -10.098
REMARK INTER:                  -9.461
REMARK INTRA:                  -0.637
REMARK UNBOUND:                -0.637
REMARK  Name = 
REMARK  4 active torsions:
REMARK  status: ('A' for Active; 'I' for Inactive)
REMARK    1  A    between atoms: N_1  and  C_2
REMARK    2  A    between atoms: C_2  and  C_3
REMARK    3  A    between atoms: C_6  and  C_7
REMARK    4  A    between atoms: C_7  and  N_8
REMARK                            x       y       z     vdW  Elec       q    Type
REMARK                         _______ _______ _______ _____ _____    ______ ____
ROOT
ATOM      1  C   UNL     1      43.783   4.608  10.308  0.00  0.00    +0.000 C 
ENDROOT
BRANCH   1   2
ATOM      2  N   UNL     1      44.450   5.533  11.224  0.00  0.00    +0.000 N 
ATOM      3  C   UNL     1      44.554   6.889  11.002  0.00  0.00    +0.000 A 
ATOM      4  C   UNL     1      45.263   7.434  12.045  0.00  0.00    +0.000 A 
ATOM      5  C   UNL     1      45.964   6.358  12.639  0.00  0.00    +0.000 A 
ATOM      6  C   UNL     1      47.107   6.277  13.458  0.00  0.00    +0.000 A 
ATOM      7  C   UNL     1      47.552   5.027  13.901  0.00  0.00    +0.000 A 
ATOM      8  C   UNL     1      46.795   3.884  13.632  0.00  0.00    +0.000 A 
ATOM      9  C   UNL     1      45.665   3.952  12.814  0.00  0.00    +0.000 A 
ATOM     10  F   UNL     1      44.966   2.838  12.564  0.00  0.00    +0.000 F 
ATOM     11  C   UNL     1      45.320   5.181  12.243  0.00  0.00    +0.000 A 
ENDBRANCH   1   2
BRANCH   1  15
ATOM     12  C   UNL     1      46.439   2.432   7.638  0.00  0.00    +0.000 A 
ATOM     13  C   UNL     1      45.658   1.757   8.577  0.00  0.00    +0.000 A 
ATOM     14  C   UNL     1      44.807   2.453   9.444  0.00  0.00    +0.000 A 
ATOM     15  C   UNL     1      44.731   3.857   9.407  0.00  0.00    +0.000 A 
ATOM     16  C   UNL     1      45.546   4.538   8.490  0.00  0.00    +0.000 A 
ATOM     17  C   UNL     1      46.380   3.835   7.621  0.00  0.00    +0.000 A 
BRANCH  12  18
ATOM     18  C   UNL     1      47.388   1.705   6.710  0.00  0.00    +0.000 C 
BRANCH  18  19
ATOM     19  N   UNL     1      48.606   2.460   6.401  0.00  0.00    +0.000 NA
ATOM     20  H   UNL     1      48.893   2.972   7.234  0.00  0.00    +0.000 HD
ATOM     21  H   UNL     1      48.387   3.163   5.696  0.00  0.00    +0.000 HD
ENDBRANCH  18  19
ENDBRANCH  12  18
ENDBRANCH   1  15
TORSDOF 4
ENDMDL
MODEL 2
REMARK VINA RESULT:    -6.829      1.614      2.435
REMARK INTER + INTRA:          -8.863
REMARK INTER:                  -8.582
REMARK INTRA:                  -0.281
REMARK UNBOUND:                -0.637
REMARK  Name = 
REMARK  4 active torsions:
REMARK  status: ('A' for Active; 'I' for Inactive)
REMARK    1  A    between atoms: N_1  and  C_2
REMARK    2  A    between atoms: C_2  and  C_3
REMARK    3  A    between atoms: C_6  and  C_7
REMARK    4  A    between atoms: C_7  and  N_8
REMARK                            x       y       z     vdW  Elec       q    Type
REMARK                         _______ _______ _______ _____ _____    ______ ____
ROOT
ATOM      1  C   UNL     1      43.835   4.048   9.583  0.00  0.00    +0.000 C 
ENDROOT
BRANCH   1   2
ATOM      2  N   UNL     1      44.244   4.185  10.980  0.00  0.00    +0.000 N 
ATOM      3  C   UNL     1      43.548   3.641  12.039  0.00  0.00    +0.000 A 
ATOM      4  C   UNL     1      44.199   3.993  13.196  0.00  0.00    +0.000 A 
ATOM      5  C   UNL     1      45.004   5.108  12.864  0.00  0.00    +0.000 A 
ATOM      6  C   UNL     1      45.594   6.141  13.618  0.00  0.00    +0.000 A 
ATOM      7  C   UNL     1      46.363   7.114  12.973  0.00  0.00    +0.000 A 
ATOM      8  C   UNL     1      46.642   6.990  11.611  0.00  0.00    +0.000 A 
ATOM      9  C   UNL     1      46.056   5.976  10.851  0.00  0.00    +0.000 A 
ATOM     10  F   UNL     1      46.332   5.888   9.544  0.00  0.00    +0.000 F 
ATOM     11  C   UNL     1      45.158   5.101  11.473  0.00  0.00    +0.000 A 
ENDBRANCH   1   2
BRANCH   1  15
ATOM     12  C   UNL     1      46.864   2.102   7.143  0.00  0.00    +0.000 A 
ATOM     13  C   UNL     1      46.455   3.407   6.869  0.00  0.00    +0.000 A 
ATOM     14  C   UNL     1      45.475   4.036   7.646  0.00  0.00    +0.000 A 
ATOM     15  C   UNL     1      44.859   3.361   8.715  0.00  0.00    +0.000 A 
ATOM     16  C   UNL     1      45.241   2.034   8.966  0.00  0.00    +0.000 A 
ATOM     17  C   UNL     1      46.229   1.421   8.194  0.00  0.00    +0.000 A 
BRANCH  12  18
ATOM     18  C   UNL     1      47.900   1.390   6.299  0.00  0.00    +0.000 C 
BRANCH  18  19
ATOM     19  N   UNL     1      48.399   2.191   5.177  0.00  0.00    +0.000 NA
ATOM     20  H   UNL     1      48.828   1.567   4.496  0.00  0.00    +0.000 HD
ATOM     21  H   UNL     1      49.142   2.801   5.513  0.00  0.00    +0.000 HD
ENDBRANCH  18  19
ENDBRANCH  12  18
ENDBRANCH   1  15
TORSDOF 4
ENDMDL
MODEL 3
REMARK VINA RESULT:    -6.399      2.205      6.034
REMARK INTER + INTRA:          -8.345
REMARK INTER:                  -8.147
REMARK INTRA:                  -0.199
REMARK UNBOUND:                -0.637
REMARK  Name = 
REMARK  4 active torsions:
REMARK  status: ('A' for Active; 'I' for Inactive)
REMARK    1  A    between atoms: N_1  and  C_2
REMARK    2  A    between atoms: C_2  and  C_3
REMARK    3  A    between atoms: C_6  and  C_7
REMARK    4  A    between atoms: C_7  and  N_8
REMARK                            x       y       z     vdW  Elec       q    Type
REMARK                         _______ _______ _______ _____ _____    ______ ____
ROOT
ATOM      1  C   UNL     1      44.904   5.149   9.744  0.00  0.00    +0.000 C 
ENDROOT
BRANCH   1   2
ATOM      2  N   UNL     1      44.849   3.750   9.322  0.00  0.00    +0.000 N 
ATOM      3  C   UNL     1      44.161   2.770  10.005  0.00  0.00    +0.000 A 
ATOM      4  C   UNL     1      44.353   1.581   9.344  0.00  0.00    +0.000 A 
ATOM      5  C   UNL     1      45.508   1.764   8.547  0.00  0.00    +0.000 A 
ATOM      6  C   UNL     1      46.430   0.880   7.954  0.00  0.00    +0.000 A 
ATOM      7  C   UNL     1      47.487   1.392   7.195  0.00  0.00    +0.000 A 
ATOM      8  C   UNL     1      47.554   2.761   6.930  0.00  0.00    +0.000 A 
ATOM      9  C   UNL     1      46.650   3.648   7.519  0.00  0.00    +0.000 A 
ATOM     10  F   UNL     1      46.745   4.957   7.255  0.00  0.00    +0.000 F 
ATOM     11  C   UNL     1      45.694   3.144   8.407  0.00  0.00    +0.000 A 
ENDBRANCH   1   2
BRANCH   1  15
ATOM     12  C   UNL     1      47.150   5.865  13.400  0.00  0.00    +0.000 A 
ATOM     13  C   UNL     1      47.376   6.634  12.258  0.00  0.00    +0.000 A 
ATOM     14  C   UNL     1      46.663   6.403  11.077  0.00  0.00    +0.000 A 
ATOM     15  C   UNL     1      45.708   5.373  11.001  0.00  0.00    +0.000 A 
ATOM     16  C   UNL     1      45.507   4.574  12.136  0.00  0.00    +0.000 A 
ATOM     17  C   UNL     1      46.214   4.821  13.314  0.00  0.00    +0.000 A 
BRANCH  12  18
ATOM     18  C   UNL     1      47.929   6.076  14.680  0.00  0.00    +0.000 C 
BRANCH  18  19
ATOM     19  N   UNL     1      47.775   4.989  15.651  0.00  0.00    +0.000 NA
ATOM     20  H   UNL     1      47.603   4.121  15.145  0.00  0.00    +0.000 HD
ATOM     21  H   UNL     1      46.941   5.162  16.209  0.00  0.00    +0.000 HD
ENDBRANCH  18  19
ENDBRANCH  12  18
ENDBRANCH   1  15
TORSDOF 4
ENDMDL
MODEL 4
REMARK VINA RESULT:    -6.061      1.602      2.838
REMARK INTER + INTRA:          -7.938
REMARK INTER:                  -7.391
REMARK INTRA:                  -0.547
REMARK UNBOUND:                -0.637
REMARK  Name = 
REMARK  4 active torsions:
REMARK  status: ('A' for Active; 'I' for Inactive)
REMARK    1  A    between atoms: N_1  and  C_2
REMARK    2  A    between atoms: C_2  and  C_3
REMARK    3  A    between atoms: C_6  and  C_7
REMARK    4  A    between atoms: C_7  and  N_8
REMARK                            x       y       z     vdW  Elec       q    Type
REMARK                         _______ _______ _______ _____ _____    ______ ____
ROOT
ATOM      1  C   UNL     1      44.600   4.743  10.910  0.00  0.00    +0.000 C 
ENDROOT
BRANCH   1   2
ATOM      2  N   UNL     1      45.624   5.359  11.753  0.00  0.00    +0.000 N 
ATOM      3  C   UNL     1      46.376   4.665  12.676  0.00  0.00    +0.000 A 
ATOM      4  C   UNL     1      47.208   5.561  13.301  0.00  0.00    +0.000 A 
ATOM      5  C   UNL     1      46.638   6.837  13.082  0.00  0.00    +0.000 A 
ATOM      6  C   UNL     1      46.757   8.081  13.732  0.00  0.00    +0.000 A 
ATOM      7  C   UNL     1      46.049   9.185  13.247  0.00  0.00    +0.000 A 
ATOM      8  C   UNL     1      45.328   9.079  12.055  0.00  0.00    +0.000 A 
ATOM      9  C   UNL     1      45.196   7.850  11.406  0.00  0.00    +0.000 A 
ATOM     10  F   UNL     1      44.489   7.776  10.271  0.00  0.00    +0.000 F 
ATOM     11  C   UNL     1      45.774   6.716  11.988  0.00  0.00    +0.000 A 
ENDBRANCH   1   2
BRANCH   1  15
ATOM     12  C   UNL     1      46.308   2.477   7.614  0.00  0.00    +0.000 A 
ATOM     13  C   UNL     1      46.354   3.871   7.623  0.00  0.00    +0.000 A 
ATOM     14  C   UNL     1      45.799   4.606   8.678  0.00  0.00    +0.000 A 
ATOM     15  C   UNL     1      45.160   3.958   9.750  0.00  0.00    +0.000 A 
ATOM     16  C   UNL     1      45.078   2.558   9.722  0.00  0.00    +0.000 A 
ATOM     17  C   UNL     1      45.647   1.834   8.673  0.00  0.00    +0.000 A 
BRANCH  12  18
ATOM     18  C   UNL     1      46.874   1.662   6.471  0.00  0.00    +0.000 C 
BRANCH  18  19
ATOM     19  N   UNL     1      48.313   1.856   6.264  0.00  0.00    +0.000 NA
ATOM     20  H   UNL     1      48.545   2.825   6.475  0.00  0.00    +0.000 HD
ATOM     21  H   UNL     1      48.524   1.720   5.277  0.00  0.00    +0.000 HD
ENDBRANCH  18  19
ENDBRANCH  12  18
ENDBRANCH   1  15
TORSDOF 4
ENDMDL
MODEL 5
REMARK VINA RESULT:    -5.954      2.385      6.327
REMARK INTER + INTRA:          -7.809
REMARK INTER:                  -7.277
REMARK INTRA:                  -0.532
REMARK UNBOUND:                -0.637
REMARK  Name = 
REMARK  4 active torsions:
REMARK  status: ('A' for Active; 'I' for Inactive)
REMARK    1  A    between atoms: N_1  and  C_2
REMARK    2  A    between atoms: C_2  and  C_3
REMARK    3  A    between atoms: C_6  and  C_7
REMARK    4  A    between atoms: C_7  and  N_8
REMARK                            x       y       z     vdW  Elec       q    Type
REMARK                         _______ _______ _______ _____ _____    ______ ____
ROOT
ATOM      1  C   UNL     1      46.136   5.732  12.240  0.00  0.00    +0.000 C 
ENDROOT
BRANCH   1   2
ATOM      2  N   UNL     1      45.185   4.733  11.757  0.00  0.00    +0.000 N 
ATOM      3  C   UNL     1      44.466   3.897  12.584  0.00  0.00    +0.000 A 
ATOM      4  C   UNL     1      43.701   3.075  11.792  0.00  0.00    +0.000 A 
ATOM      5  C   UNL     1      44.298   3.109  10.510  0.00  0.00    +0.000 A 
ATOM      6  C   UNL     1      44.258   2.248   9.395  0.00  0.00    +0.000 A 
ATOM      7  C   UNL     1      44.972   2.581   8.240  0.00  0.00    +0.000 A 
ATOM      8  C   UNL     1      45.618   3.816   8.153  0.00  0.00    +0.000 A 
ATOM      9  C   UNL     1      45.672   4.674   9.254  0.00  0.00    +0.000 A 
ATOM     10  F   UNL     1      46.308   5.847   9.145  0.00  0.00    +0.000 F 
ATOM     11  C   UNL     1      45.092   4.260  10.458  0.00  0.00    +0.000 A 
ENDBRANCH   1   2
BRANCH   1  15
ATOM     12  C   UNL     1      44.812   9.838  11.690  0.00  0.00    +0.000 A 
ATOM     13  C   UNL     1      45.985   9.552  12.390  0.00  0.00    +0.000 A 
ATOM     14  C   UNL     1      46.412   8.232  12.577  0.00  0.00    +0.000 A 
ATOM     15  C   UNL     1      45.658   7.153  12.081  0.00  0.00    +0.000 A 
ATOM     16  C   UNL     1      44.458   7.439  11.411  0.00  0.00    +0.000 A 
ATOM     17  C   UNL     1      44.049   8.758  11.218  0.00  0.00    +0.000 A 
BRANCH  12  18
ATOM     18  C   UNL     1      44.314  11.255  11.500  0.00  0.00    +0.000 C 
BRANCH  18  19
ATOM     19  N   UNL     1      42.899  11.433  11.836  0.00  0.00    +0.000 NA
ATOM     20  H   UNL     1      42.674  12.426  11.791  0.00  0.00    +0.000 HD
ATOM     21  H   UNL     1      42.752  11.152  12.804  0.00  0.00    +0.000 HD
ENDBRANCH  18  19
ENDBRANCH  12  18
ENDBRANCH   1  15
TORSDOF 4
ENDMDL
MODEL 6
REMARK VINA RESULT:    -5.708      2.094      2.969
REMARK INTER + INTRA:          -7.513
REMARK INTER:                  -7.108
REMARK INTRA:                  -0.405
REMARK UNBOUND:                -0.637
REMARK  Name = 
REMARK  4 active torsions:
REMARK  status: ('A' for Active; 'I' for Inactive)
REMARK    1  A    between atoms: N_1  and  C_2
REMARK    2  A    between atoms: C_2  and  C_3
REMARK    3  A    between atoms: C_6  and  C_7
REMARK    4  A    between atoms: C_7  and  N_8
REMARK                            x       y       z     vdW  Elec       q    Type
REMARK                         _______ _______ _______ _____ _____    ______ ____
ROOT
ATOM      1  C   UNL     1      44.564   6.113  12.912  0.00  0.00    +0.000 C 
ENDROOT
BRANCH   1   2
ATOM      2  N   UNL     1      45.371   7.313  12.692  0.00  0.00    +0.000 N 
ATOM      3  C   UNL     1      44.896   8.453  12.080  0.00  0.00    +0.000 A 
ATOM      4  C   UNL     1      45.928   9.358  12.017  0.00  0.00    +0.000 A 
ATOM      5  C   UNL     1      47.115   8.603  12.171  0.00  0.00    +0.000 A 
ATOM      6  C   UNL     1      48.464   8.833  11.837  0.00  0.00    +0.000 A 
ATOM      7  C   UNL     1      49.425   7.864  12.143  0.00  0.00    +0.000 A 
ATOM      8  C   UNL     1      49.065   6.736  12.883  0.00  0.00    +0.000 A 
ATOM      9  C   UNL     1      47.729   6.493  13.212  0.00  0.00    +0.000 A 
ATOM     10  F   UNL     1      47.412   5.397  13.912  0.00  0.00    +0.000 F 
ATOM     11  C   UNL     1      46.752   7.387  12.761  0.00  0.00    +0.000 A 
ENDBRANCH   1   2
BRANCH   1  15
ATOM     12  C   UNL     1      44.712   3.251   9.641  0.00  0.00    +0.000 A 
ATOM     13  C   UNL     1      44.177   2.895  10.879  0.00  0.00    +0.000 A 
ATOM     14  C   UNL     1      44.134   3.809  11.938  0.00  0.00    +0.000 A 
ATOM     15  C   UNL     1      44.649   5.110  11.789  0.00  0.00    +0.000 A 
ATOM     16  C   UNL     1      45.223   5.456  10.557  0.00  0.00    +0.000 A 
ATOM     17  C   UNL     1      45.248   4.541   9.503  0.00  0.00    +0.000 A 
BRANCH  12  18
ATOM     18  C   UNL     1      44.797   2.271   8.490  0.00  0.00    +0.000 C 
BRANCH  18  19
ATOM     19  N   UNL     1      46.002   1.437   8.512  0.00  0.00    +0.000 NA
ATOM     20  H   UNL     1      45.953   0.771   7.743  0.00  0.00    +0.000 HD
ATOM     21  H   UNL     1      46.004   0.884   9.368  0.00  0.00    +0.000 HD
ENDBRANCH  18  19
ENDBRANCH  12  18
ENDBRANCH   1  15
TORSDOF 4
ENDMDL
MODEL 7
REMARK VINA RESULT:    -5.693      2.382      5.553
REMARK INTER + INTRA:          -7.495
REMARK INTER:                  -7.014
REMARK INTRA:                  -0.481
REMARK UNBOUND:                -0.637
REMARK  Name = 
REMARK  4 active torsions:
REMARK  status: ('A' for Active; 'I' for Inactive)
REMARK    1  A    between atoms: N_1  and  C_2
REMARK    2  A    between atoms: C_2  and  C_3
REMARK    3  A    between atoms: C_6  and  C_7
REMARK    4  A    between atoms: C_7  and  N_8
REMARK                            x       y       z     vdW  Elec       q    Type
REMARK                         _______ _______ _______ _____ _____    ______ ____
ROOT
ATOM      1  C   UNL     1      43.960   5.690  12.709  0.00  0.00    +0.000 C 
ENDROOT
BRANCH   1   2
ATOM      2  N   UNL     1      43.806   4.450  11.949  0.00  0.00    +0.000 N 
ATOM      3  C   UNL     1      43.417   3.252  12.509  0.00  0.00    +0.000 A 
ATOM      4  C   UNL     1      43.409   2.305  11.514  0.00  0.00    +0.000 A 
ATOM      5  C   UNL     1      44.221   2.825  10.478  0.00  0.00    +0.000 A 
ATOM      6  C   UNL     1      44.913   2.241   9.399  0.00  0.00    +0.000 A 
ATOM      7  C   UNL     1      45.637   3.055   8.522  0.00  0.00    +0.000 A 
ATOM      8  C   UNL     1      45.570   4.444   8.647  0.00  0.00    +0.000 A 
ATOM      9  C   UNL     1      44.894   5.034   9.717  0.00  0.00    +0.000 A 
ATOM     10  F   UNL     1      44.856   6.368   9.818  0.00  0.00    +0.000 F 
ATOM     11  C   UNL     1      44.309   4.206  10.682  0.00  0.00    +0.000 A 
ENDBRANCH   1   2
BRANCH   1  15
ATOM     12  C   UNL     1      48.116   6.917  13.086  0.00  0.00    +0.000 A 
ATOM     13  C   UNL     1      47.712   5.635  13.456  0.00  0.00    +0.000 A 
ATOM     14  C   UNL     1      46.375   5.236  13.344  0.00  0.00    +0.000 A 
ATOM     15  C   UNL     1      45.394   6.128  12.873  0.00  0.00    +0.000 A 
ATOM     16  C   UNL     1      45.792   7.431  12.538  0.00  0.00    +0.000 A 
ATOM     17  C   UNL     1      47.130   7.813  12.640  0.00  0.00    +0.000 A 
BRANCH  12  18
ATOM     18  C   UNL     1      49.550   7.381  13.225  0.00  0.00    +0.000 C 
BRANCH  18  19
ATOM     19  N   UNL     1      50.169   7.011  14.501  0.00  0.00    +0.000 NA
ATOM     20  H   UNL     1      51.021   7.556  14.621  0.00  0.00    +0.000 HD
ATOM     21  H   UNL     1      50.458   6.036  14.456  0.00  0.00    +0.000 HD
ENDBRANCH  18  19
ENDBRANCH  12  18
ENDBRANCH   1  15
TORSDOF 4
ENDMDL
MODEL 8
REMARK VINA RESULT:    -5.528      2.922      4.404
REMARK INTER + INTRA:          -7.296
REMARK INTER:                  -6.729
REMARK INTRA:                  -0.566
REMARK UNBOUND:                -0.637
REMARK  Name = 
REMARK  4 active torsions:
REMARK  status: ('A' for Active; 'I' for Inactive)
REMARK    1  A    between atoms: N_1  and  C_2
REMARK    2  A    between atoms: C_2  and  C_3
REMARK    3  A    between atoms: C_6  and  C_7
REMARK    4  A    between atoms: C_7  and  N_8
REMARK                            x       y       z     vdW  Elec       q    Type
REMARK                         _______ _______ _______ _____ _____    ______ ____
ROOT
ATOM      1  C   UNL     1      45.905   6.567  12.876  0.00  0.00    +0.000 C 
ENDROOT
BRANCH   1   2
ATOM      2  N   UNL     1      46.985   7.427  12.392  0.00  0.00    +0.000 N 
ATOM      3  C   UNL     1      48.322   7.117  12.515  0.00  0.00    +0.000 A 
ATOM      4  C   UNL     1      49.046   8.157  11.983  0.00  0.00    +0.000 A 
ATOM      5  C   UNL     1      48.169   9.268  11.962  0.00  0.00    +0.000 A 
ATOM      6  C   UNL     1      48.366  10.661  11.907  0.00  0.00    +0.000 A 
ATOM      7  C   UNL     1      47.259  11.515  11.889  0.00  0.00    +0.000 A 
ATOM      8  C   UNL     1      45.971  10.982  11.803  0.00  0.00    +0.000 A 
ATOM      9  C   UNL     1      45.763   9.602  11.865  0.00  0.00    +0.000 A 
ATOM     10  F   UNL     1      44.516   9.120  11.791  0.00  0.00    +0.000 F 
ATOM     11  C   UNL     1      46.867   8.763  12.046  0.00  0.00    +0.000 A 
ENDBRANCH   1   2
BRANCH   1  15
ATOM     12  C   UNL     1      44.840   3.307  10.201  0.00  0.00    +0.000 A 
ATOM     13  C   UNL     1      44.951   3.097  11.576  0.00  0.00    +0.000 A 
ATOM     14  C   UNL     1      45.301   4.141  12.440  0.00  0.00    +0.000 A 
ATOM     15  C   UNL     1      45.571   5.429  11.944  0.00  0.00    +0.000 A 
ATOM     16  C   UNL     1      45.498   5.631  10.557  0.00  0.00    +0.000 A 
ATOM     17  C   UNL     1      45.134   4.588   9.705  0.00  0.00    +0.000 A 
BRANCH  12  18
ATOM     18  C   UNL     1      44.492   2.188   9.243  0.00  0.00    +0.000 C 
BRANCH  18  19
ATOM     19  N   UNL     1      45.661   1.481   8.711  0.00  0.00    +0.000 NA
ATOM     20  H   UNL     1      46.213   1.129   9.492  0.00  0.00    +0.000 HD
ATOM     21  H   UNL     1      46.254   2.148   8.221  0.00  0.00    +0.000 HD
ENDBRANCH  18  19
ENDBRANCH  12  18
ENDBRANCH   1  15
TORSDOF 4
ENDMDL
MODEL 9
REMARK VINA RESULT:    -5.404      4.589      7.645
REMARK INTER + INTRA:          -7.147
REMARK INTER:                  -6.583
REMARK INTRA:                  -0.565
REMARK UNBOUND:                -0.637
REMARK  Name = 
REMARK  4 active torsions:
REMARK  status: ('A' for Active; 'I' for Inactive)
REMARK    1  A    between atoms: N_1  and  C_2
REMARK    2  A    between atoms: C_2  and  C_3
REMARK    3  A    between atoms: C_6  and  C_7
REMARK    4  A    between atoms: C_7  and  N_8
REMARK                            x       y       z     vdW  Elec       q    Type
REMARK                         _______ _______ _______ _____ _____    ______ ____
ROOT
ATOM      1  C   UNL     1      48.413   5.725  16.784  0.00  0.00    +0.000 C 
ENDROOT
BRANCH   1   2
ATOM      2  N   UNL     1      48.614   6.361  15.483  0.00  0.00    +0.000 N 
ATOM      3  C   UNL     1      49.319   7.532  15.303  0.00  0.00    +0.000 A 
ATOM      4  C   UNL     1      49.277   7.848  13.967  0.00  0.00    +0.000 A 
ATOM      5  C   UNL     1      48.182   7.129  13.433  0.00  0.00    +0.000 A 
ATOM      6  C   UNL     1      47.386   7.283  12.281  0.00  0.00    +0.000 A 
ATOM      7  C   UNL     1      46.358   6.370  12.025  0.00  0.00    +0.000 A 
ATOM      8  C   UNL     1      46.205   5.247  12.842  0.00  0.00    +0.000 A 
ATOM      9  C   UNL     1      46.983   5.088  13.991  0.00  0.00    +0.000 A 
ATOM     10  F   UNL     1      46.807   4.007  14.761  0.00  0.00    +0.000 F 
ATOM     11  C   UNL     1      47.899   6.090  14.327  0.00  0.00    +0.000 A 
ENDBRANCH   1   2
BRANCH   1  15
ATOM     12  C   UNL     1      51.252   2.512  17.516  0.00  0.00    +0.000 A 
ATOM     13  C   UNL     1      49.917   2.234  17.222  0.00  0.00    +0.000 A 
ATOM     14  C   UNL     1      48.997   3.264  16.993  0.00  0.00    +0.000 A 
ATOM     15  C   UNL     1      49.389   4.612  17.074  0.00  0.00    +0.000 A 
ATOM     16  C   UNL     1      50.723   4.893  17.408  0.00  0.00    +0.000 A 
ATOM     17  C   UNL     1      51.635   3.859  17.621  0.00  0.00    +0.000 A 
BRANCH  12  18
ATOM     18  C   UNL     1      52.259   1.417  17.797  0.00  0.00    +0.000 C 
BRANCH  18  19
ATOM     19  N   UNL     1      51.650   0.136  18.166  0.00  0.00    +0.000 NA
ATOM     20  H   UNL     1      52.373  -0.582  18.166  0.00  0.00    +0.000 HD
ATOM     21  H   UNL     1      50.983  -0.132  17.445  0.00  0.00    +0.000 HD
ENDBRANCH  18  19
ENDBRANCH  12  18
ENDBRANCH   1  15
TORSDOF 4
ENDMDL
