MODEL 1
REMARK VINA RESULT:    -8.284      0.000      0.000
REMARK INTER + INTRA:         -11.713
REMARK INTER:                 -10.947
REMARK INTRA:                  -0.766
REMARK UNBOUND:                -0.766
REMARK  Name = 
REMARK  7 active torsions:
REMARK  status: ('A' for Active; 'I' for Inactive)
REMARK    1  A    between atoms: C_1  and  C_2
REMARK    2  A    between atoms: C_2  and  C_3
REMARK    3  A    between atoms: C_7  and  C_8
REMARK    4  A    between atoms: C_8  and  C_9
REMARK    5  A    between atoms: C_9  and  N_10
REMARK    6  A    between atoms: C_14  and  C_15
REMARK    7  A    between atoms: C_23  and  O_24
REMARK                            x       y       z     vdW  Elec       q    Type
REMARK                         _______ _______ _______ _____ _____    ______ ____
ROOT
ATOM      1  C   UNL     1      44.893   4.280   9.542  0.00  0.00    +0.000 A 
ATOM      2  C   UNL     1      43.813   3.781  10.278  0.00  0.00    +0.000 A 
ATOM      3  C   UNL     1      43.388   4.413  11.448  0.00  0.00    +0.000 A 
ATOM      4  C   UNL     1      44.058   5.540  11.927  0.00  0.00    +0.000 A 
ATOM      5  C   UNL     1      45.147   6.063  11.223  0.00  0.00    +0.000 A 
ATOM      6  C   UNL     1      45.496   5.455  10.008  0.00  0.00    +0.000 A 
ENDROOT
BRANCH   1   8
ATOM      7  C   UNL     1      44.311   3.278   7.360  0.00  0.00    +0.000 C 
ATOM      8  C   UNL     1      45.483   3.503   8.348  0.00  0.00    +0.000 C 
ATOM      9  C   UNL     1      46.616   4.326   7.683  0.00  0.00    +0.000 C 
ATOM     10  C   UNL     1      47.296   3.584   6.532  0.00  0.00    +0.000 C 
ATOM     11  C   UNL     1      47.817   2.214   6.960  0.00  0.00    +0.000 C 
ATOM     12  C   UNL     1      46.725   1.366   7.599  0.00  0.00    +0.000 C 
ATOM     13  C   UNL     1      46.067   2.113   8.751  0.00  0.00    +0.000 C 
BRANCH  11  14
ATOM     14  O   UNL     1      48.344   1.530   5.831  0.00  0.00    +0.000 OA
ATOM     15  H   UNL     1      48.578   2.195   5.161  0.00  0.00    +0.000 HD
ENDBRANCH  11  14
ENDBRANCH   1   8
BRANCH   5  16
ATOM     16  C   UNL     1      45.983   7.192  11.808  0.00  0.00    +0.000 C 
BRANCH  16  17
ATOM     17  C   UNL     1      47.480   6.850  11.913  0.00  0.00    +0.000 C 
BRANCH  17  18
ATOM     18  N   UNL     1      48.097   7.281  13.170  0.00  0.00    +0.000 N 
ATOM     19  C   UNL     1      47.965   6.277  14.163  0.00  0.00    +0.000 A 
ATOM     20  C   UNL     1      48.489   6.490  15.444  0.00  0.00    +0.000 A 
ATOM     21  N   UNL     1      48.385   5.603  16.472  0.00  0.00    +0.000 NA
ATOM     22  C   UNL     1      47.729   4.453  16.158  0.00  0.00    +0.000 A 
ATOM     23  C   UNL     1      47.223   4.209  14.893  0.00  0.00    +0.000 A 
ATOM     24  N   UNL     1      47.340   5.109  13.881  0.00  0.00    +0.000 NA
ATOM     25  H   UNL     1      47.665   8.132  13.522  0.00  0.00    +0.000 HD
BRANCH  22  26
ATOM     26  C   UNL     1      47.532   3.440  17.232  0.00  0.00    +0.000 C 
ATOM     27  N   UNL     1      48.653   3.083  17.943  0.00  0.00    +0.000 N 
ATOM     28  O   UNL     1      46.436   2.954  17.476  0.00  0.00    +0.000 OA
ATOM     29  H   UNL     1      49.554   3.497  17.724  0.00  0.00    +0.000 HD
ATOM     30  H   UNL     1      48.573   2.402  18.682  0.00  0.00    +0.000 HD
ENDBRANCH  22  26
ENDBRANCH  17  18
ENDBRANCH  16  17
ENDBRANCH   5  16
TORSDOF 6
ENDMDL
MODEL 2
REMARK VINA RESULT:    -8.156      3.756      7.610
REMARK INTER + INTRA:         -11.545
REMARK INTER:                 -10.697
REMARK INTRA:                  -0.848
REMARK UNBOUND:                -0.766
REMARK  Name = 
REMARK  7 active torsions:
REMARK  status: ('A' for Active; 'I' for Inactive)
REMARK    1  A    between atoms: C_1  and  C_2
REMARK    2  A    between atoms: C_2  and  C_3
REMARK    3  A    between atoms: C_7  and  C_8
REMARK    4  A    between atoms: C_8  and  C_9
REMARK    5  A    between atoms: C_9  and  N_10
REMARK    6  A    between atoms: C_14  and  C_15
REMARK    7  A    between atoms: C_23  and  O_24
REMARK                            x       y       z     vdW  Elec       q    Type
REMARK                         _______ _______ _______ _____ _____    ______ ____
ROOT
ATOM      1  C   UNL     1      46.792   6.615  12.890  0.00  0.00    +0.000 A 
ATOM      2  C   UNL     1      47.465   5.561  13.515  0.00  0.00    +0.000 A 
ATOM      3  C   UNL     1      46.851   4.318  13.686  0.00  0.00    +0.000 A 
ATOM      4  C   UNL     1      45.536   4.115  13.265  0.00  0.00    +0.000 A 
ATOM      5  C   UNL     1      44.829   5.149  12.643  0.00  0.00    +0.000 A 
ATOM      6  C   UNL     1      45.501   6.358  12.412  0.00  0.00    +0.000 A 
ENDROOT
BRANCH   1   8
ATOM      7  C   UNL     1      46.208   8.986  12.506  0.00  0.00    +0.000 C 
ATOM      8  C   UNL     1      47.386   8.038  12.846  0.00  0.00    +0.000 C 
ATOM      9  C   UNL     1      48.009   8.400  14.218  0.00  0.00    +0.000 C 
ATOM     10  C   UNL     1      48.681   9.773  14.225  0.00  0.00    +0.000 C 
ATOM     11  C   UNL     1      49.724   9.908  13.118  0.00  0.00    +0.000 C 
ATOM     12  C   UNL     1      49.142   9.581  11.748  0.00  0.00    +0.000 C 
ATOM     13  C   UNL     1      48.490   8.206  11.754  0.00  0.00    +0.000 C 
BRANCH  11  14
ATOM     14  O   UNL     1      50.240  11.232  13.107  0.00  0.00    +0.000 OA
ATOM     15  H   UNL     1      49.922  11.683  13.907  0.00  0.00    +0.000 HD
ENDBRANCH  11  14
ENDBRANCH   1   8
BRANCH   5  16
ATOM     16  C   UNL     1      43.349   4.996  12.321  0.00  0.00    +0.000 C 
BRANCH  16  17
ATOM     17  C   UNL     1      43.087   4.432  10.913  0.00  0.00    +0.000 C 
BRANCH  17  18
ATOM     18  N   UNL     1      43.956   5.000   9.879  0.00  0.00    +0.000 N 
ATOM     19  C   UNL     1      44.703   3.979   9.237  0.00  0.00    +0.000 A 
ATOM     20  C   UNL     1      45.599   4.310   8.213  0.00  0.00    +0.000 A 
ATOM     21  N   UNL     1      46.383   3.409   7.560  0.00  0.00    +0.000 NA
ATOM     22  C   UNL     1      46.223   2.122   7.972  0.00  0.00    +0.000 A 
ATOM     23  C   UNL     1      45.327   1.767   8.965  0.00  0.00    +0.000 A 
ATOM     24  N   UNL     1      44.553   2.684   9.603  0.00  0.00    +0.000 NA
ATOM     25  H   UNL     1      44.611   5.670  10.273  0.00  0.00    +0.000 HD
BRANCH  22  26
ATOM     26  C   UNL     1      47.069   1.071   7.341  0.00  0.00    +0.000 C 
ATOM     27  N   UNL     1      46.782  -0.228   7.687  0.00  0.00    +0.000 N 
ATOM     28  O   UNL     1      47.966   1.342   6.555  0.00  0.00    +0.000 OA
ATOM     29  H   UNL     1      46.033  -0.432   8.343  0.00  0.00    +0.000 HD
ATOM     30  H   UNL     1      47.324  -0.978   7.287  0.00  0.00    +0.000 HD
ENDBRANCH  22  26
ENDBRANCH  17  18
ENDBRANCH  16  17
ENDBRANCH   5  16
TORSDOF 6
ENDMDL
MODEL 3
REMARK VINA RESULT:    -7.836      2.688      3.941
REMARK INTER + INTRA:         -11.122
REMARK INTER:                  -9.934
REMARK INTRA:                  -1.188
REMARK UNBOUND:                -0.766
REMARK  Name = 
REMARK  7 active torsions:
REMARK  status: ('A' for Active; 'I' for Inactive)
REMARK    1  A    between atoms: C_1  and  C_2
REMARK    2  A    between atoms: C_2  and  C_3
REMARK    3  A    between atoms: C_7  and  C_8
REMARK    4  A    between atoms: C_8  and  C_9
REMARK    5  A    between atoms: C_9  and  N_10
REMARK    6  A    between atoms: C_14  and  C_15
REMARK    7  A    between atoms: C_23  and  O_24
REMARK                            x       y       z     vdW  Elec       q    Type
REMARK                         _______ _______ _______ _____ _____    ______ ____
ROOT
ATOM      1  C   UNL     1      45.457   7.154  11.541  0.00  0.00    +0.000 A 
ATOM      2  C   UNL     1      44.554   8.212  11.401  0.00  0.00    +0.000 A 
ATOM      3  C   UNL     1      44.919   9.518  11.737  0.00  0.00    +0.000 A 
ATOM      4  C   UNL     1      46.188   9.786  12.254  0.00  0.00    +0.000 A 
ATOM      5  C   UNL     1      47.115   8.752  12.415  0.00  0.00    +0.000 A 
ATOM      6  C   UNL     1      46.746   7.467  11.990  0.00  0.00    +0.000 A 
ENDROOT
BRANCH   1   8
ATOM      7  C   UNL     1      45.497   5.289   9.920  0.00  0.00    +0.000 C 
ATOM      8  C   UNL     1      45.020   5.689  11.339  0.00  0.00    +0.000 C 
ATOM      9  C   UNL     1      45.671   4.784  12.415  0.00  0.00    +0.000 C 
ATOM     10  C   UNL     1      45.225   3.325  12.319  0.00  0.00    +0.000 C 
ATOM     11  C   UNL     1      43.705   3.185  12.358  0.00  0.00    +0.000 C 
ATOM     12  C   UNL     1      43.029   4.044  11.297  0.00  0.00    +0.000 C 
ATOM     13  C   UNL     1      43.473   5.495  11.416  0.00  0.00    +0.000 C 
BRANCH  11  14
ATOM     14  O   UNL     1      43.346   1.824  12.162  0.00  0.00    +0.000 OA
ATOM     15  H   UNL     1      44.101   1.274  12.429  0.00  0.00    +0.000 HD
ENDBRANCH  11  14
ENDBRANCH   1   8
BRANCH   5  16
ATOM     16  C   UNL     1      48.441   8.998  13.120  0.00  0.00    +0.000 C 
BRANCH  16  17
ATOM     17  C   UNL     1      49.228   7.707  13.405  0.00  0.00    +0.000 C 
BRANCH  17  18
ATOM     18  N   UNL     1      49.793   7.647  14.755  0.00  0.00    +0.000 N 
ATOM     19  C   UNL     1      49.232   6.568  15.485  0.00  0.00    +0.000 A 
ATOM     20  C   UNL     1      49.637   6.333  16.805  0.00  0.00    +0.000 A 
ATOM     21  N   UNL     1      49.135   5.344  17.596  0.00  0.00    +0.000 NA
ATOM     22  C   UNL     1      48.193   4.568  16.996  0.00  0.00    +0.000 A 
ATOM     23  C   UNL     1      47.793   4.765  15.686  0.00  0.00    +0.000 A 
ATOM     24  N   UNL     1      48.310   5.757  14.913  0.00  0.00    +0.000 NA
ATOM     25  H   UNL     1      49.612   8.505  15.271  0.00  0.00    +0.000 HD
BRANCH  22  26
ATOM     26  C   UNL     1      47.558   3.486  17.799  0.00  0.00    +0.000 C 
ATOM     27  N   UNL     1      48.189   3.152  18.974  0.00  0.00    +0.000 N 
ATOM     28  O   UNL     1      46.531   2.927  17.441  0.00  0.00    +0.000 OA
ATOM     29  H   UNL     1      49.042   3.627  19.253  0.00  0.00    +0.000 HD
ATOM     30  H   UNL     1      47.798   2.426  19.555  0.00  0.00    +0.000 HD
ENDBRANCH  22  26
ENDBRANCH  17  18
ENDBRANCH  16  17
ENDBRANCH   5  16
TORSDOF 6
ENDMDL
MODEL 4
REMARK VINA RESULT:    -7.394      2.984      4.324
REMARK INTER + INTRA:         -10.538
REMARK INTER:                  -9.405
REMARK INTRA:                  -1.133
REMARK UNBOUND:                -0.766
REMARK  Name = 
REMARK  7 active torsions:
REMARK  status: ('A' for Active; 'I' for Inactive)
REMARK    1  A    between atoms: C_1  and  C_2
REMARK    2  A    between atoms: C_2  and  C_3
REMARK    3  A    between atoms: C_7  and  C_8
REMARK    4  A    between atoms: C_8  and  C_9
REMARK    5  A    between atoms: C_9  and  N_10
REMARK    6  A    between atoms: C_14  and  C_15
REMARK    7  A    between atoms: C_23  and  O_24
REMARK                            x       y       z     vdW  Elec       q    Type
REMARK                         _______ _______ _______ _____ _____    ______ ____
ROOT
ATOM      1  C   UNL     1      45.849   6.913  12.075  0.00  0.00    +0.000 A 
ATOM      2  C   UNL     1      44.963   7.993  12.130  0.00  0.00    +0.000 A 
ATOM      3  C   UNL     1      45.435   9.306  12.193  0.00  0.00    +0.000 A 
ATOM      4  C   UNL     1      46.806   9.564  12.236  0.00  0.00    +0.000 A 
ATOM      5  C   UNL     1      47.722   8.509  12.189  0.00  0.00    +0.000 A 
ATOM      6  C   UNL     1      47.218   7.208  12.043  0.00  0.00    +0.000 A 
ENDROOT
BRANCH   1   8
ATOM      7  C   UNL     1      46.398   4.706  13.043  0.00  0.00    +0.000 C 
ATOM      8  C   UNL     1      45.353   5.456  12.178  0.00  0.00    +0.000 C 
ATOM      9  C   UNL     1      43.954   5.415  12.844  0.00  0.00    +0.000 C 
ATOM     10  C   UNL     1      43.368   4.004  12.915  0.00  0.00    +0.000 C 
ATOM     11  C   UNL     1      43.324   3.331  11.545  0.00  0.00    +0.000 C 
ATOM     12  C   UNL     1      44.688   3.332  10.868  0.00  0.00    +0.000 C 
ATOM     13  C   UNL     1      45.251   4.744  10.793  0.00  0.00    +0.000 C 
BRANCH  11  14
ATOM     14  O   UNL     1      42.869   1.992  11.687  0.00  0.00    +0.000 OA
ATOM     15  H   UNL     1      43.390   1.572  12.392  0.00  0.00    +0.000 HD
ENDBRANCH  11  14
ENDBRANCH   1   8
BRANCH   5  16
ATOM     16  C   UNL     1      49.209   8.759  12.392  0.00  0.00    +0.000 C 
BRANCH  16  17
ATOM     17  C   UNL     1      49.967   7.530  12.922  0.00  0.00    +0.000 C 
BRANCH  17  18
ATOM     18  N   UNL     1      50.671   7.769  14.184  0.00  0.00    +0.000 N 
ATOM     19  C   UNL     1      50.030   7.091  15.252  0.00  0.00    +0.000 A 
ATOM     20  C   UNL     1      50.545   7.189  16.550  0.00  0.00    +0.000 A 
ATOM     21  N   UNL     1      49.984   6.603  17.644  0.00  0.00    +0.000 NA
ATOM     22  C   UNL     1      48.861   5.881  17.381  0.00  0.00    +0.000 A 
ATOM     23  C   UNL     1      48.346   5.749  16.103  0.00  0.00    +0.000 A 
ATOM     24  N   UNL     1      48.925   6.342  15.025  0.00  0.00    +0.000 NA
ATOM     25  H   UNL     1      50.698   8.761  14.411  0.00  0.00    +0.000 HD
BRANCH  22  26
ATOM     26  C   UNL     1      48.156   5.236  18.523  0.00  0.00    +0.000 C 
ATOM     27  N   UNL     1      46.783   5.322  18.515  0.00  0.00    +0.000 N 
ATOM     28  O   UNL     1      48.757   4.656  19.417  0.00  0.00    +0.000 OA
ATOM     29  H   UNL     1      46.303   5.809  17.765  0.00  0.00    +0.000 HD
ATOM     30  H   UNL     1      46.258   4.901  19.265  0.00  0.00    +0.000 HD
ENDBRANCH  22  26
ENDBRANCH  17  18
ENDBRANCH  16  17
ENDBRANCH   5  16
TORSDOF 6
ENDMDL
MODEL 5
REMARK VINA RESULT:    -7.255      3.248      4.916
REMARK INTER + INTRA:         -10.354
REMARK INTER:                  -9.581
REMARK INTRA:                  -0.773
REMARK UNBOUND:                -0.766
REMARK  Name = 
REMARK  7 active torsions:
REMARK  status: ('A' for Active; 'I' for Inactive)
REMARK    1  A    between atoms: C_1  and  C_2
REMARK    2  A    between atoms: C_2  and  C_3
REMARK    3  A    between atoms: C_7  and  C_8
REMARK    4  A    between atoms: C_8  and  C_9
REMARK    5  A    between atoms: C_9  and  N_10
REMARK    6  A    between atoms: C_14  and  C_15
REMARK    7  A    between atoms: C_23  and  O_24
REMARK                            x       y       z     vdW  Elec       q    Type
REMARK                         _______ _______ _______ _____ _____    ______ ____
ROOT
ATOM      1  C   UNL     1      46.132   6.750  12.445  0.00  0.00    +0.000 A 
ATOM      2  C   UNL     1      45.603   8.044  12.447  0.00  0.00    +0.000 A 
ATOM      3  C   UNL     1      46.251   9.084  13.116  0.00  0.00    +0.000 A 
ATOM      4  C   UNL     1      47.426   8.842  13.829  0.00  0.00    +0.000 A 
ATOM      5  C   UNL     1      47.981   7.559  13.857  0.00  0.00    +0.000 A 
ATOM      6  C   UNL     1      47.352   6.556  13.106  0.00  0.00    +0.000 A 
ENDROOT
BRANCH   1   8
ATOM      7  C   UNL     1      45.584   5.598  10.328  0.00  0.00    +0.000 C 
ATOM      8  C   UNL     1      45.347   5.558  11.859  0.00  0.00    +0.000 C 
ATOM      9  C   UNL     1      45.865   4.229  12.463  0.00  0.00    +0.000 C 
ATOM     10  C   UNL     1      45.082   3.007  11.979  0.00  0.00    +0.000 C 
ATOM     11  C   UNL     1      43.583   3.152  12.225  0.00  0.00    +0.000 C 
ATOM     12  C   UNL     1      43.031   4.439  11.625  0.00  0.00    +0.000 C 
ATOM     13  C   UNL     1      43.812   5.646  12.127  0.00  0.00    +0.000 C 
BRANCH  11  14
ATOM     14  O   UNL     1      42.898   2.040  11.664  0.00  0.00    +0.000 OA
ATOM     15  H   UNL     1      42.622   2.281  10.764  0.00  0.00    +0.000 HD
ENDBRANCH  11  14
ENDBRANCH   1   8
BRANCH   5  16
ATOM     16  C   UNL     1      49.170   7.244  14.753  0.00  0.00    +0.000 C 
BRANCH  16  17
ATOM     17  C   UNL     1      48.782   7.023  16.225  0.00  0.00    +0.000 C 
BRANCH  17  18
ATOM     18  N   UNL     1      48.151   5.726  16.480  0.00  0.00    +0.000 N 
ATOM     19  C   UNL     1      49.116   4.771  16.891  0.00  0.00    +0.000 A 
ATOM     20  C   UNL     1      48.719   3.461  17.186  0.00  0.00    +0.000 A 
ATOM     21  N   UNL     1      49.573   2.466  17.556  0.00  0.00    +0.000 NA
ATOM     22  C   UNL     1      50.877   2.846  17.635  0.00  0.00    +0.000 A 
ATOM     23  C   UNL     1      51.291   4.140  17.372  0.00  0.00    +0.000 A 
ATOM     24  N   UNL     1      50.420   5.118  17.006  0.00  0.00    +0.000 NA
ATOM     25  H   UNL     1      47.688   5.369  15.648  0.00  0.00    +0.000 HD
BRANCH  22  26
ATOM     26  C   UNL     1      51.890   1.814  17.994  0.00  0.00    +0.000 C 
ATOM     27  N   UNL     1      51.492   0.504  17.868  0.00  0.00    +0.000 N 
ATOM     28  O   UNL     1      53.014   2.109  18.374  0.00  0.00    +0.000 OA
ATOM     29  H   UNL     1      50.554   0.280  17.551  0.00  0.00    +0.000 HD
ATOM     30  H   UNL     1      52.141  -0.233  18.096  0.00  0.00    +0.000 HD
ENDBRANCH  22  26
ENDBRANCH  17  18
ENDBRANCH  16  17
ENDBRANCH   5  16
TORSDOF 6
ENDMDL
MODEL 6
REMARK VINA RESULT:    -7.110      3.833      7.744
REMARK INTER + INTRA:         -10.162
REMARK INTER:                  -9.304
REMARK INTRA:                  -0.858
REMARK UNBOUND:                -0.766
REMARK  Name = 
REMARK  7 active torsions:
REMARK  status: ('A' for Active; 'I' for Inactive)
REMARK    1  A    between atoms: C_1  and  C_2
REMARK    2  A    between atoms: C_2  and  C_3
REMARK    3  A    between atoms: C_7  and  C_8
REMARK    4  A    between atoms: C_8  and  C_9
REMARK    5  A    between atoms: C_9  and  N_10
REMARK    6  A    between atoms: C_14  and  C_15
REMARK    7  A    between atoms: C_23  and  O_24
REMARK                            x       y       z     vdW  Elec       q    Type
REMARK                         _______ _______ _______ _____ _____    ______ ____
ROOT
ATOM      1  C   UNL     1      46.219   8.301  12.217  0.00  0.00    +0.000 A 
ATOM      2  C   UNL     1      45.400   9.206  11.535  0.00  0.00    +0.000 A 
ATOM      3  C   UNL     1      44.123   8.838  11.105  0.00  0.00    +0.000 A 
ATOM      4  C   UNL     1      43.652   7.541  11.319  0.00  0.00    +0.000 A 
ATOM      5  C   UNL     1      44.445   6.606  11.991  0.00  0.00    +0.000 A 
ATOM      6  C   UNL     1      45.688   7.032  12.482  0.00  0.00    +0.000 A 
ENDROOT
BRANCH   1   8
ATOM      7  C   UNL     1      47.893  10.117  12.154  0.00  0.00    +0.000 C 
ATOM      8  C   UNL     1      47.688   8.632  12.546  0.00  0.00    +0.000 C 
ATOM      9  C   UNL     1      47.959   8.417  14.057  0.00  0.00    +0.000 C 
ATOM     10  C   UNL     1      49.418   8.660  14.443  0.00  0.00    +0.000 C 
ATOM     11  C   UNL     1      50.381   7.819  13.607  0.00  0.00    +0.000 C 
ATOM     12  C   UNL     1      50.160   8.021  12.114  0.00  0.00    +0.000 C 
ATOM     13  C   UNL     1      48.706   7.762  11.744  0.00  0.00    +0.000 C 
BRANCH  11  14
ATOM     14  O   UNL     1      51.721   8.160  13.936  0.00  0.00    +0.000 OA
ATOM     15  H   UNL     1      51.793   9.129  13.930  0.00  0.00    +0.000 HD
ENDBRANCH  11  14
ENDBRANCH   1   8
BRANCH   5  16
ATOM     16  C   UNL     1      44.014   5.150  12.094  0.00  0.00    +0.000 C 
BRANCH  16  17
ATOM     17  C   UNL     1      43.438   4.590  10.782  0.00  0.00    +0.000 C 
BRANCH  17  18
ATOM     18  N   UNL     1      43.812   3.199  10.519  0.00  0.00    +0.000 N 
ATOM     19  C   UNL     1      44.734   3.123   9.445  0.00  0.00    +0.000 A 
ATOM     20  C   UNL     1      45.221   1.876   9.030  0.00  0.00    +0.000 A 
ATOM     21  N   UNL     1      46.083   1.698   7.991  0.00  0.00    +0.000 NA
ATOM     22  C   UNL     1      46.462   2.847   7.371  0.00  0.00    +0.000 A 
ATOM     23  C   UNL     1      46.014   4.092   7.777  0.00  0.00    +0.000 A 
ATOM     24  N   UNL     1      45.155   4.248   8.819  0.00  0.00    +0.000 NA
ATOM     25  H   UNL     1      42.999   2.636  10.278  0.00  0.00    +0.000 HD
BRANCH  22  26
ATOM     26  C   UNL     1      47.372   2.746   6.197  0.00  0.00    +0.000 C 
ATOM     27  N   UNL     1      48.659   2.338   6.459  0.00  0.00    +0.000 N 
ATOM     28  O   UNL     1      47.001   3.004   5.060  0.00  0.00    +0.000 OA
ATOM     29  H   UNL     1      48.948   2.130   7.410  0.00  0.00    +0.000 HD
ATOM     30  H   UNL     1      49.315   2.252   5.698  0.00  0.00    +0.000 HD
ENDBRANCH  22  26
ENDBRANCH  17  18
ENDBRANCH  16  17
ENDBRANCH   5  16
TORSDOF 6
ENDMDL
MODEL 7
REMARK VINA RESULT:    -7.032      2.427      3.139
REMARK INTER + INTRA:         -10.059
REMARK INTER:                  -9.308
REMARK INTRA:                  -0.752
REMARK UNBOUND:                -0.766
REMARK  Name = 
REMARK  7 active torsions:
REMARK  status: ('A' for Active; 'I' for Inactive)
REMARK    1  A    between atoms: C_1  and  C_2
REMARK    2  A    between atoms: C_2  and  C_3
REMARK    3  A    between atoms: C_7  and  C_8
REMARK    4  A    between atoms: C_8  and  C_9
REMARK    5  A    between atoms: C_9  and  N_10
REMARK    6  A    between atoms: C_14  and  C_15
REMARK    7  A    between atoms: C_23  and  O_24
REMARK                            x       y       z     vdW  Elec       q    Type
REMARK                         _______ _______ _______ _____ _____    ______ ____
ROOT
ATOM      1  C   UNL     1      44.810   3.704   9.652  0.00  0.00    +0.000 A 
ATOM      2  C   UNL     1      43.918   2.938  10.409  0.00  0.00    +0.000 A 
ATOM      3  C   UNL     1      43.463   3.384  11.651  0.00  0.00    +0.000 A 
ATOM      4  C   UNL     1      43.920   4.592  12.180  0.00  0.00    +0.000 A 
ATOM      5  C   UNL     1      44.818   5.382  11.455  0.00  0.00    +0.000 A 
ATOM      6  C   UNL     1      45.191   4.946  10.175  0.00  0.00    +0.000 A 
ENDROOT
BRANCH   1   8
ATOM      7  C   UNL     1      44.310   3.048   7.322  0.00  0.00    +0.000 C 
ATOM      8  C   UNL     1      45.454   3.153   8.363  0.00  0.00    +0.000 C 
ATOM      9  C   UNL     1      46.564   4.114   7.868  0.00  0.00    +0.000 C 
ATOM     10  C   UNL     1      47.295   3.594   6.629  0.00  0.00    +0.000 C 
ATOM     11  C   UNL     1      47.864   2.193   6.844  0.00  0.00    +0.000 C 
ATOM     12  C   UNL     1      46.795   1.213   7.310  0.00  0.00    +0.000 C 
ATOM     13  C   UNL     1      46.086   1.738   8.551  0.00  0.00    +0.000 C 
BRANCH  11  14
ATOM     14  O   UNL     1      48.440   1.722   5.633  0.00  0.00    +0.000 OA
ATOM     15  H   UNL     1      48.302   0.760   5.591  0.00  0.00    +0.000 HD
ENDBRANCH  11  14
ENDBRANCH   1   8
BRANCH   5  16
ATOM     16  C   UNL     1      45.446   6.620  12.079  0.00  0.00    +0.000 C 
BRANCH  16  17
ATOM     17  C   UNL     1      46.934   6.440  12.427  0.00  0.00    +0.000 C 
BRANCH  17  18
ATOM     18  N   UNL     1      47.191   6.298  13.861  0.00  0.00    +0.000 N 
ATOM     19  C   UNL     1      48.453   6.849  14.201  0.00  0.00    +0.000 A 
ATOM     20  C   UNL     1      48.894   6.816  15.530  0.00  0.00    +0.000 A 
ATOM     21  N   UNL     1      50.101   7.289  15.949  0.00  0.00    +0.000 NA
ATOM     22  C   UNL     1      50.867   7.826  14.962  0.00  0.00    +0.000 A 
ATOM     23  C   UNL     1      50.444   7.892  13.646  0.00  0.00    +0.000 A 
ATOM     24  N   UNL     1      49.234   7.415  13.250  0.00  0.00    +0.000 NA
ATOM     25  H   UNL     1      47.188   5.320  14.143  0.00  0.00    +0.000 HD
BRANCH  22  26
ATOM     26  C   UNL     1      52.221   8.333  15.320  0.00  0.00    +0.000 C 
ATOM     27  N   UNL     1      52.280   9.617  15.808  0.00  0.00    +0.000 N 
ATOM     28  O   UNL     1      53.228   7.648  15.194  0.00  0.00    +0.000 OA
ATOM     29  H   UNL     1      51.433  10.169  15.904  0.00  0.00    +0.000 HD
ATOM     30  H   UNL     1      53.172  10.007  16.067  0.00  0.00    +0.000 HD
ENDBRANCH  22  26
ENDBRANCH  17  18
ENDBRANCH  16  17
ENDBRANCH   5  16
TORSDOF 6
ENDMDL
MODEL 8
REMARK VINA RESULT:    -6.759      4.111      7.941
REMARK INTER + INTRA:          -9.699
REMARK INTER:                  -8.464
REMARK INTRA:                  -1.235
REMARK UNBOUND:                -0.766
REMARK  Name = 
REMARK  7 active torsions:
REMARK  status: ('A' for Active; 'I' for Inactive)
REMARK    1  A    between atoms: C_1  and  C_2
REMARK    2  A    between atoms: C_2  and  C_3
REMARK    3  A    between atoms: C_7  and  C_8
REMARK    4  A    between atoms: C_8  and  C_9
REMARK    5  A    between atoms: C_9  and  N_10
REMARK    6  A    between atoms: C_14  and  C_15
REMARK    7  A    between atoms: C_23  and  O_24
REMARK                            x       y       z     vdW  Elec       q    Type
REMARK                         _______ _______ _______ _____ _____    ______ ____
ROOT
ATOM      1  C   UNL     1      50.496   6.421  16.404  0.00  0.00    +0.000 A 
ATOM      2  C   UNL     1      51.850   6.344  16.743  0.00  0.00    +0.000 A 
ATOM      3  C   UNL     1      52.821   6.994  15.979  0.00  0.00    +0.000 A 
ATOM      4  C   UNL     1      52.459   7.709  14.835  0.00  0.00    +0.000 A 
ATOM      5  C   UNL     1      51.116   7.802  14.460  0.00  0.00    +0.000 A 
ATOM      6  C   UNL     1      50.158   7.208  15.295  0.00  0.00    +0.000 A 
ENDROOT
BRANCH   1   8
ATOM      7  C   UNL     1      49.086   6.343  18.431  0.00  0.00    +0.000 C 
ATOM      8  C   UNL     1      49.433   5.574  17.131  0.00  0.00    +0.000 C 
ATOM      9  C   UNL     1      48.178   5.409  16.237  0.00  0.00    +0.000 C 
ATOM     10  C   UNL     1      47.108   4.518  16.868  0.00  0.00    +0.000 C 
ATOM     11  C   UNL     1      47.659   3.151  17.265  0.00  0.00    +0.000 C 
ATOM     12  C   UNL     1      48.882   3.272  18.165  0.00  0.00    +0.000 C 
ATOM     13  C   UNL     1      49.943   4.150  17.517  0.00  0.00    +0.000 C 
BRANCH  11  14
ATOM     14  O   UNL     1      46.651   2.407  17.937  0.00  0.00    +0.000 OA
ATOM     15  H   UNL     1      46.136   3.026  18.481  0.00  0.00    +0.000 HD
ENDBRANCH  11  14
ENDBRANCH   1   8
BRANCH   5  16
ATOM     16  C   UNL     1      50.719   8.441  13.137  0.00  0.00    +0.000 C 
BRANCH  16  17
ATOM     17  C   UNL     1      49.705   7.606  12.336  0.00  0.00    +0.000 C 
BRANCH  17  18
ATOM     18  N   UNL     1      48.422   8.279  12.124  0.00  0.00    +0.000 N 
ATOM     19  C   UNL     1      47.344   7.400  12.397  0.00  0.00    +0.000 A 
ATOM     20  C   UNL     1      46.024   7.848  12.254  0.00  0.00    +0.000 A 
ATOM     21  N   UNL     1      44.924   7.072  12.461  0.00  0.00    +0.000 NA
ATOM     22  C   UNL     1      45.201   5.795  12.841  0.00  0.00    +0.000 A 
ATOM     23  C   UNL     1      46.495   5.335  13.011  0.00  0.00    +0.000 A 
ATOM     24  N   UNL     1      47.578   6.129  12.801  0.00  0.00    +0.000 NA
ATOM     25  H   UNL     1      48.329   8.604  11.164  0.00  0.00    +0.000 HD
BRANCH  22  26
ATOM     26  C   UNL     1      44.060   4.861  13.051  0.00  0.00    +0.000 C 
ATOM     27  N   UNL     1      42.808   5.429  13.079  0.00  0.00    +0.000 N 
ATOM     28  O   UNL     1      44.221   3.656  13.185  0.00  0.00    +0.000 OA
ATOM     29  H   UNL     1      42.695   6.432  12.966  0.00  0.00    +0.000 HD
ATOM     30  H   UNL     1      42.002   4.840  13.216  0.00  0.00    +0.000 HD
ENDBRANCH  22  26
ENDBRANCH  17  18
ENDBRANCH  16  17
ENDBRANCH   5  16
TORSDOF 6
ENDMDL
MODEL 9
REMARK VINA RESULT:    -6.685      3.811      7.914
REMARK INTER + INTRA:          -9.601
REMARK INTER:                  -8.574
REMARK INTRA:                  -1.027
REMARK UNBOUND:                -0.766
REMARK  Name = 
REMARK  7 active torsions:
REMARK  status: ('A' for Active; 'I' for Inactive)
REMARK    1  A    between atoms: C_1  and  C_2
REMARK    2  A    between atoms: C_2  and  C_3
REMARK    3  A    between atoms: C_7  and  C_8
REMARK    4  A    between atoms: C_8  and  C_9
REMARK    5  A    between atoms: C_9  and  N_10
REMARK    6  A    between atoms: C_14  and  C_15
REMARK    7  A    between atoms: C_23  and  O_24
REMARK                            x       y       z     vdW  Elec       q    Type
REMARK                         _______ _______ _______ _____ _____    ______ ____
ROOT
ATOM      1  C   UNL     1      48.901   6.359  17.248  0.00  0.00    +0.000 A 
ATOM      2  C   UNL     1      48.555   7.374  18.145  0.00  0.00    +0.000 A 
ATOM      3  C   UNL     1      48.267   8.664  17.694  0.00  0.00    +0.000 A 
ATOM      4  C   UNL     1      48.352   8.974  16.336  0.00  0.00    +0.000 A 
ATOM      5  C   UNL     1      48.702   7.987  15.410  0.00  0.00    +0.000 A 
ATOM      6  C   UNL     1      48.904   6.683  15.885  0.00  0.00    +0.000 A 
ENDROOT
BRANCH   1   8
ATOM      7  C   UNL     1      49.145   4.958  19.268  0.00  0.00    +0.000 C 
ATOM      8  C   UNL     1      49.388   4.980  17.738  0.00  0.00    +0.000 C 
ATOM      9  C   UNL     1      48.591   3.852  17.035  0.00  0.00    +0.000 C 
ATOM     10  C   UNL     1      49.071   2.452  17.423  0.00  0.00    +0.000 C 
ATOM     11  C   UNL     1      50.568   2.272  17.184  0.00  0.00    +0.000 C 
ATOM     12  C   UNL     1      51.387   3.352  17.879  0.00  0.00    +0.000 C 
ATOM     13  C   UNL     1      50.907   4.738  17.473  0.00  0.00    +0.000 C 
BRANCH  11  14
ATOM     14  O   UNL     1      50.976   0.994  17.655  0.00  0.00    +0.000 OA
ATOM     15  H   UNL     1      50.202   0.406  17.630  0.00  0.00    +0.000 HD
ENDBRANCH  11  14
ENDBRANCH   1   8
BRANCH   5  16
ATOM     16  C   UNL     1      48.952   8.341  13.951  0.00  0.00    +0.000 C 
BRANCH  16  17
ATOM     17  C   UNL     1      49.004   7.113  13.026  0.00  0.00    +0.000 C 
BRANCH  17  18
ATOM     18  N   UNL     1      48.074   7.185  11.896  0.00  0.00    +0.000 N 
ATOM     19  C   UNL     1      46.956   6.341  12.113  0.00  0.00    +0.000 A 
ATOM     20  C   UNL     1      45.943   6.262  11.148  0.00  0.00    +0.000 A 
ATOM     21  N   UNL     1      44.849   5.458  11.250  0.00  0.00    +0.000 NA
ATOM     22  C   UNL     1      44.795   4.723  12.394  0.00  0.00    +0.000 A 
ATOM     23  C   UNL     1      45.770   4.801  13.372  0.00  0.00    +0.000 A 
ATOM     24  N   UNL     1      46.854   5.613  13.251  0.00  0.00    +0.000 NA
ATOM     25  H   UNL     1      48.522   6.899  11.029  0.00  0.00    +0.000 HD
BRANCH  22  26
ATOM     26  C   UNL     1      43.653   3.784  12.574  0.00  0.00    +0.000 C 
ATOM     27  N   UNL     1      42.977   3.424  11.432  0.00  0.00    +0.000 N 
ATOM     28  O   UNL     1      43.333   3.350  13.672  0.00  0.00    +0.000 OA
ATOM     29  H   UNL     1      43.257   3.796  10.529  0.00  0.00    +0.000 HD
ATOM     30  H   UNL     1      42.197   2.789  11.499  0.00  0.00    +0.000 HD
ENDBRANCH  22  26
ENDBRANCH  17  18
ENDBRANCH  16  17
ENDBRANCH   5  16
TORSDOF 6
ENDMDL
