MODEL 1
REMARK VINA RESULT:    -6.851      0.000      0.000
REMARK INTER + INTRA:         -10.711
REMARK INTER:                  -9.254
REMARK INTRA:                  -1.457
REMARK UNBOUND:                -1.457
REMARK  Name = 
REMARK  9 active torsions:
REMARK  status: ('A' for Active; 'I' for Inactive)
REMARK    1  A    between atoms: C_1  and  C_2
REMARK    2  A    between atoms: C_2  and  C_3
REMARK    3  A    between atoms: C_2  and  C_4
REMARK    4  A    between atoms: C_2  and  C_5
REMARK    5  A    between atoms: C_9  and  C_10
REMARK    6  A    between atoms: N_16  and  C_17
REMARK    7  A    between atoms: C_17  and  C_18
REMARK    8  A    between atoms: C_21  and  O_22
REMARK    9  A    between atoms: O_22  and  C_23
REMARK                            x       y       z     vdW  Elec       q    Type
REMARK                         _______ _______ _______ _____ _____    ______ ____
ROOT
ATOM      1  C   UNL     1      44.630   4.055  11.096  0.00  0.00    +0.000 A 
ATOM      2  N   UNL     1      44.920   2.890  10.529  0.00  0.00    +0.000 NA
ATOM      3  C   UNL     1      45.582   3.160   9.386  0.00  0.00    +0.000 A 
ATOM      4  C   UNL     1      46.070   2.282   8.426  0.00  0.00    +0.000 A 
ATOM      5  C   UNL     1      46.682   2.907   7.359  0.00  0.00    +0.000 A 
ATOM      6  N   UNL     1      46.817   4.256   7.221  0.00  0.00    +0.000 NA
ATOM      7  N   UNL     1      46.339   5.096   8.155  0.00  0.00    +0.000 NA
ATOM      8  C   UNL     1      45.739   4.517   9.211  0.00  0.00    +0.000 A 
ATOM      9  N   UNL     1      45.162   5.097  10.332  0.00  0.00    +0.000 N 
ENDROOT
BRANCH   5  10
ATOM     10  C   UNL     1      47.218   2.036   6.262  0.00  0.00    +0.000 C 
ATOM     11  N   UNL     1      47.854   2.668   5.229  0.00  0.00    +0.000 N 
ATOM     12  O   UNL     1      47.095   0.818   6.276  0.00  0.00    +0.000 OA
ATOM     13  H   UNL     1      47.960   3.672   5.212  0.00  0.00    +0.000 HD
ATOM     14  H   UNL     1      48.216   2.105   4.472  0.00  0.00    +0.000 HD
ENDBRANCH   5  10
BRANCH   1  16
ATOM     15  C   UNL     1      44.711   4.568  13.543  0.00  0.00    +0.000 C 
ATOM     16  C   UNL     1      43.798   4.075  12.377  0.00  0.00    +0.000 C 
ATOM     17  C   UNL     1      43.320   2.670  12.767  0.00  0.00    +0.000 C 
ATOM     18  C   UNL     1      42.639   5.070  12.301  0.00  0.00    +0.000 C 
ENDBRANCH   1  16
BRANCH   9  19
ATOM     19  C   UNL     1      45.100   6.549  10.521  0.00  0.00    +0.000 C 
BRANCH  19  20
ATOM     20  C   UNL     1      46.119   7.062  11.521  0.00  0.00    +0.000 A 
ATOM     21  C   UNL     1      47.466   6.674  11.475  0.00  0.00    +0.000 A 
ATOM     22  C   UNL     1      48.353   6.995  12.517  0.00  0.00    +0.000 A 
ATOM     23  C   UNL     1      47.920   7.756  13.597  0.00  0.00    +0.000 A 
ATOM     24  C   UNL     1      46.614   8.252  13.581  0.00  0.00    +0.000 A 
ATOM     25  C   UNL     1      45.731   7.934  12.544  0.00  0.00    +0.000 A 
BRANCH  23  26
ATOM     26  O   UNL     1      48.622   8.116  14.705  0.00  0.00    +0.000 OA
BRANCH  26  27
ATOM     27  C   UNL     1      48.942   7.173  15.714  0.00  0.00    +0.000 C 
ATOM     28  F   UNL     1      48.212   6.042  15.628  0.00  0.00    +0.000 F 
ATOM     29  F   UNL     1      50.242   6.830  15.562  0.00  0.00    +0.000 F 
ATOM     30  F   UNL     1      48.793   7.716  16.939  0.00  0.00    +0.000 F 
ENDBRANCH  26  27
ENDBRANCH  23  26
ENDBRANCH  19  20
ENDBRANCH   9  19
TORSDOF 6
ENDMDL
MODEL 2
REMARK VINA RESULT:    -6.842      4.570      7.885
REMARK INTER + INTRA:         -10.698
REMARK INTER:                  -9.677
REMARK INTRA:                  -1.021
REMARK UNBOUND:                -1.457
REMARK  Name = 
REMARK  9 active torsions:
REMARK  status: ('A' for Active; 'I' for Inactive)
REMARK    1  A    between atoms: C_1  and  C_2
REMARK    2  A    between atoms: C_2  and  C_3
REMARK    3  A    between atoms: C_2  and  C_4
REMARK    4  A    between atoms: C_2  and  C_5
REMARK    5  A    between atoms: C_9  and  C_10
REMARK    6  A    between atoms: N_16  and  C_17
REMARK    7  A    between atoms: C_17  and  C_18
REMARK    8  A    between atoms: C_21  and  O_22
REMARK    9  A    between atoms: O_22  and  C_23
REMARK                            x       y       z     vdW  Elec       q    Type
REMARK                         _______ _______ _______ _____ _____    ______ ____
ROOT
ATOM      1  C   UNL     1      47.553   6.894  13.635  0.00  0.00    +0.000 A 
ATOM      2  N   UNL     1      48.546   6.663  14.484  0.00  0.00    +0.000 NA
ATOM      3  C   UNL     1      48.213   5.567  15.195  0.00  0.00    +0.000 A 
ATOM      4  C   UNL     1      48.906   4.943  16.224  0.00  0.00    +0.000 A 
ATOM      5  C   UNL     1      48.256   3.846  16.750  0.00  0.00    +0.000 A 
ATOM      6  N   UNL     1      47.046   3.383  16.327  0.00  0.00    +0.000 NA
ATOM      7  N   UNL     1      46.383   3.995  15.332  0.00  0.00    +0.000 NA
ATOM      8  C   UNL     1      46.993   5.068  14.795  0.00  0.00    +0.000 A 
ATOM      9  N   UNL     1      46.582   5.897  13.761  0.00  0.00    +0.000 N 
ENDROOT
BRANCH   5  10
ATOM     10  C   UNL     1      48.923   3.125  17.883  0.00  0.00    +0.000 C 
ATOM     11  N   UNL     1      48.289   3.164  19.095  0.00  0.00    +0.000 N 
ATOM     12  O   UNL     1      49.984   2.531  17.747  0.00  0.00    +0.000 OA
ATOM     13  H   UNL     1      47.413   3.652  19.215  0.00  0.00    +0.000 HD
ATOM     14  H   UNL     1      48.722   2.695  19.879  0.00  0.00    +0.000 HD
ENDBRANCH   5  10
BRANCH   1  16
ATOM     15  C   UNL     1      48.464   9.219  13.467  0.00  0.00    +0.000 C 
ATOM     16  C   UNL     1      47.606   8.134  12.743  0.00  0.00    +0.000 C 
ATOM     17  C   UNL     1      46.214   8.749  12.542  0.00  0.00    +0.000 C 
ATOM     18  C   UNL     1      48.307   7.863  11.412  0.00  0.00    +0.000 C 
ENDBRANCH   1  16
BRANCH   9  19
ATOM     19  C   UNL     1      45.302   5.716  13.070  0.00  0.00    +0.000 C 
BRANCH  19  20
ATOM     20  C   UNL     1      45.449   5.062  11.710  0.00  0.00    +0.000 A 
ATOM     21  C   UNL     1      45.744   5.804  10.556  0.00  0.00    +0.000 A 
ATOM     22  C   UNL     1      45.682   5.222   9.279  0.00  0.00    +0.000 A 
ATOM     23  C   UNL     1      45.375   3.873   9.137  0.00  0.00    +0.000 A 
ATOM     24  C   UNL     1      45.208   3.104  10.291  0.00  0.00    +0.000 A 
ATOM     25  C   UNL     1      45.271   3.682  11.563  0.00  0.00    +0.000 A 
BRANCH  23  26
ATOM     26  O   UNL     1      45.226   3.163   7.986  0.00  0.00    +0.000 OA
BRANCH  26  27
ATOM     27  C   UNL     1      46.349   2.698   7.257  0.00  0.00    +0.000 C 
ATOM     28  F   UNL     1      47.458   3.434   7.468  0.00  0.00    +0.000 F 
ATOM     29  F   UNL     1      46.614   1.436   7.669  0.00  0.00    +0.000 F 
ATOM     30  F   UNL     1      46.077   2.657   5.937  0.00  0.00    +0.000 F 
ENDBRANCH  26  27
ENDBRANCH  23  26
ENDBRANCH  19  20
ENDBRANCH   9  19
TORSDOF 6
ENDMDL
MODEL 3
REMARK VINA RESULT:    -6.318      4.760      7.896
REMARK INTER + INTRA:          -9.990
REMARK INTER:                  -8.835
REMARK INTRA:                  -1.155
REMARK UNBOUND:                -1.457
REMARK  Name = 
REMARK  9 active torsions:
REMARK  status: ('A' for Active; 'I' for Inactive)
REMARK    1  A    between atoms: C_1  and  C_2
REMARK    2  A    between atoms: C_2  and  C_3
REMARK    3  A    between atoms: C_2  and  C_4
REMARK    4  A    between atoms: C_2  and  C_5
REMARK    5  A    between atoms: C_9  and  C_10
REMARK    6  A    between atoms: N_16  and  C_17
REMARK    7  A    between atoms: C_17  and  C_18
REMARK    8  A    between atoms: C_21  and  O_22
REMARK    9  A    between atoms: O_22  and  C_23
REMARK                            x       y       z     vdW  Elec       q    Type
REMARK                         _______ _______ _______ _____ _____    ______ ____
ROOT
ATOM      1  C   UNL     1      49.501   8.405  15.086  0.00  0.00    +0.000 A 
ATOM      2  N   UNL     1      49.419   7.876  16.300  0.00  0.00    +0.000 NA
ATOM      3  C   UNL     1      48.832   6.669  16.168  0.00  0.00    +0.000 A 
ATOM      4  C   UNL     1      48.496   5.744  17.148  0.00  0.00    +0.000 A 
ATOM      5  C   UNL     1      47.879   4.612  16.658  0.00  0.00    +0.000 A 
ATOM      6  N   UNL     1      47.605   4.383  15.344  0.00  0.00    +0.000 NA
ATOM      7  N   UNL     1      47.933   5.286  14.404  0.00  0.00    +0.000 NA
ATOM      8  C   UNL     1      48.540   6.400  14.849  0.00  0.00    +0.000 A 
ATOM      9  N   UNL     1      49.007   7.500  14.143  0.00  0.00    +0.000 N 
ENDROOT
BRANCH   5  10
ATOM     10  C   UNL     1      47.460   3.569  17.651  0.00  0.00    +0.000 C 
ATOM     11  N   UNL     1      48.223   3.452  18.780  0.00  0.00    +0.000 N 
ATOM     12  O   UNL     1      46.488   2.847  17.471  0.00  0.00    +0.000 OA
ATOM     13  H   UNL     1      49.026   4.044  18.936  0.00  0.00    +0.000 HD
ATOM     14  H   UNL     1      47.969   2.750  19.462  0.00  0.00    +0.000 HD
ENDBRANCH   5  10
BRANCH   1  16
ATOM     15  C   UNL     1      50.417  10.367  16.339  0.00  0.00    +0.000 C 
ATOM     16  C   UNL     1      50.051   9.821  14.924  0.00  0.00    +0.000 C 
ATOM     17  C   UNL     1      48.996  10.778  14.351  0.00  0.00    +0.000 C 
ATOM     18  C   UNL     1      51.347   9.851  14.113  0.00  0.00    +0.000 C 
ENDBRANCH   1  16
BRANCH   9  19
ATOM     19  C   UNL     1      48.865   7.616  12.688  0.00  0.00    +0.000 C 
BRANCH  19  20
ATOM     20  C   UNL     1      47.427   7.503  12.220  0.00  0.00    +0.000 A 
ATOM     21  C   UNL     1      46.414   8.333  12.722  0.00  0.00    +0.000 A 
ATOM     22  C   UNL     1      45.061   8.090  12.432  0.00  0.00    +0.000 A 
ATOM     23  C   UNL     1      44.701   7.042  11.592  0.00  0.00    +0.000 A 
ATOM     24  C   UNL     1      45.716   6.295  10.988  0.00  0.00    +0.000 A 
ATOM     25  C   UNL     1      47.063   6.537  11.275  0.00  0.00    +0.000 A 
BRANCH  23  26
ATOM     26  O   UNL     1      43.450   6.636  11.245  0.00  0.00    +0.000 OA
BRANCH  26  27
ATOM     27  C   UNL     1      42.843   5.511  11.857  0.00  0.00    +0.000 C 
ATOM     28  F   UNL     1      43.227   5.337  13.138  0.00  0.00    +0.000 F 
ATOM     29  F   UNL     1      41.505   5.713  11.858  0.00  0.00    +0.000 F 
ATOM     30  F   UNL     1      43.096   4.390  11.152  0.00  0.00    +0.000 F 
ENDBRANCH  26  27
ENDBRANCH  23  26
ENDBRANCH  19  20
ENDBRANCH   9  19
TORSDOF 6
ENDMDL
MODEL 4
REMARK VINA RESULT:    -5.946      4.236      6.061
REMARK INTER + INTRA:          -9.488
REMARK INTER:                  -8.123
REMARK INTRA:                  -1.365
REMARK UNBOUND:                -1.457
REMARK  Name = 
REMARK  9 active torsions:
REMARK  status: ('A' for Active; 'I' for Inactive)
REMARK    1  A    between atoms: C_1  and  C_2
REMARK    2  A    between atoms: C_2  and  C_3
REMARK    3  A    between atoms: C_2  and  C_4
REMARK    4  A    between atoms: C_2  and  C_5
REMARK    5  A    between atoms: C_9  and  C_10
REMARK    6  A    between atoms: N_16  and  C_17
REMARK    7  A    between atoms: C_17  and  C_18
REMARK    8  A    between atoms: C_21  and  O_22
REMARK    9  A    between atoms: O_22  and  C_23
REMARK                            x       y       z     vdW  Elec       q    Type
REMARK                         _______ _______ _______ _____ _____    ______ ____
ROOT
ATOM      1  C   UNL     1      48.082   6.727  14.248  0.00  0.00    +0.000 A 
ATOM      2  N   UNL     1      47.591   5.500  14.373  0.00  0.00    +0.000 NA
ATOM      3  C   UNL     1      46.774   5.292  13.321  0.00  0.00    +0.000 A 
ATOM      4  C   UNL     1      46.002   4.179  13.016  0.00  0.00    +0.000 A 
ATOM      5  C   UNL     1      45.257   4.315  11.863  0.00  0.00    +0.000 A 
ATOM      6  N   UNL     1      45.251   5.422  11.068  0.00  0.00    +0.000 NA
ATOM      7  N   UNL     1      46.000   6.495  11.374  0.00  0.00    +0.000 NA
ATOM      8  C   UNL     1      46.741   6.392  12.492  0.00  0.00    +0.000 A 
ATOM      9  N   UNL     1      47.615   7.304  13.065  0.00  0.00    +0.000 N 
ENDROOT
BRANCH   5  10
ATOM     10  C   UNL     1      44.375   3.168  11.470  0.00  0.00    +0.000 C 
ATOM     11  N   UNL     1      43.851   2.419  12.487  0.00  0.00    +0.000 N 
ATOM     12  O   UNL     1      44.131   2.901  10.301  0.00  0.00    +0.000 OA
ATOM     13  H   UNL     1      44.047   2.633  13.454  0.00  0.00    +0.000 HD
ATOM     14  H   UNL     1      43.260   1.633  12.250  0.00  0.00    +0.000 HD
ENDBRANCH   5  10
BRANCH   1  16
ATOM     15  C   UNL     1      48.978   6.280  16.542  0.00  0.00    +0.000 C 
ATOM     16  C   UNL     1      48.986   7.285  15.348  0.00  0.00    +0.000 C 
ATOM     17  C   UNL     1      48.454   8.615  15.899  0.00  0.00    +0.000 C 
ATOM     18  C   UNL     1      50.444   7.395  14.900  0.00  0.00    +0.000 C 
ENDBRANCH   1  16
BRANCH   9  19
ATOM     19  C   UNL     1      47.851   8.633  12.491  0.00  0.00    +0.000 C 
BRANCH  19  20
ATOM     20  C   UNL     1      49.182   8.743  11.774  0.00  0.00    +0.000 A 
ATOM     21  C   UNL     1      49.891   7.612  11.344  0.00  0.00    +0.000 A 
ATOM     22  C   UNL     1      51.207   7.715  10.862  0.00  0.00    +0.000 A 
ATOM     23  C   UNL     1      51.818   8.959  10.751  0.00  0.00    +0.000 A 
ATOM     24  C   UNL     1      51.068  10.098  11.057  0.00  0.00    +0.000 A 
ATOM     25  C   UNL     1      49.758   9.997  11.535  0.00  0.00    +0.000 A 
BRANCH  23  26
ATOM     26  O   UNL     1      53.089   9.237  10.355  0.00  0.00    +0.000 OA
BRANCH  26  27
ATOM     27  C   UNL     1      53.532   8.943   9.041  0.00  0.00    +0.000 C 
ATOM     28  F   UNL     1      52.582   9.145   8.107  0.00  0.00    +0.000 F 
ATOM     29  F   UNL     1      54.563   9.773   8.758  0.00  0.00    +0.000 F 
ATOM     30  F   UNL     1      53.983   7.675   8.963  0.00  0.00    +0.000 F 
ENDBRANCH  26  27
ENDBRANCH  23  26
ENDBRANCH  19  20
ENDBRANCH   9  19
TORSDOF 6
ENDMDL
MODEL 5
REMARK VINA RESULT:    -5.892      4.273      6.218
REMARK INTER + INTRA:          -9.416
REMARK INTER:                  -8.044
REMARK INTRA:                  -1.372
REMARK UNBOUND:                -1.457
REMARK  Name = 
REMARK  9 active torsions:
REMARK  status: ('A' for Active; 'I' for Inactive)
REMARK    1  A    between atoms: C_1  and  C_2
REMARK    2  A    between atoms: C_2  and  C_3
REMARK    3  A    between atoms: C_2  and  C_4
REMARK    4  A    between atoms: C_2  and  C_5
REMARK    5  A    between atoms: C_9  and  C_10
REMARK    6  A    between atoms: N_16  and  C_17
REMARK    7  A    between atoms: C_17  and  C_18
REMARK    8  A    between atoms: C_21  and  O_22
REMARK    9  A    between atoms: O_22  and  C_23
REMARK                            x       y       z     vdW  Elec       q    Type
REMARK                         _______ _______ _______ _____ _____    ______ ____
ROOT
ATOM      1  C   UNL     1      47.588   8.624  12.763  0.00  0.00    +0.000 A 
ATOM      2  N   UNL     1      46.342   8.352  12.393  0.00  0.00    +0.000 NA
ATOM      3  C   UNL     1      46.070   7.098  12.807  0.00  0.00    +0.000 A 
ATOM      4  C   UNL     1      44.914   6.348  12.636  0.00  0.00    +0.000 A 
ATOM      5  C   UNL     1      44.988   5.079  13.173  0.00  0.00    +0.000 A 
ATOM      6  N   UNL     1      46.074   4.571  13.820  0.00  0.00    +0.000 NA
ATOM      7  N   UNL     1      47.188   5.305  13.978  0.00  0.00    +0.000 NA
ATOM      8  C   UNL     1      47.147   6.549  13.468  0.00  0.00    +0.000 A 
ATOM      9  N   UNL     1      48.114   7.545  13.477  0.00  0.00    +0.000 N 
ENDROOT
BRANCH   5  10
ATOM     10  C   UNL     1      43.791   4.190  13.012  0.00  0.00    +0.000 C 
ATOM     11  N   UNL     1      44.035   2.880  12.705  0.00  0.00    +0.000 N 
ATOM     12  O   UNL     1      42.647   4.604  13.141  0.00  0.00    +0.000 OA
ATOM     13  H   UNL     1      44.977   2.530  12.597  0.00  0.00    +0.000 HD
ATOM     14  H   UNL     1      43.246   2.260  12.581  0.00  0.00    +0.000 HD
ENDBRANCH   5  10
BRANCH   1  16
ATOM     15  C   UNL     1      47.125  10.803  11.623  0.00  0.00    +0.000 C 
ATOM     16  C   UNL     1      48.214   9.956  12.354  0.00  0.00    +0.000 C 
ATOM     17  C   UNL     1      49.357   9.762  11.349  0.00  0.00    +0.000 C 
ATOM     18  C   UNL     1      48.652  10.786  13.562  0.00  0.00    +0.000 C 
ENDBRANCH   1  16
BRANCH   9  19
ATOM     19  C   UNL     1      49.438   7.348  14.075  0.00  0.00    +0.000 C 
BRANCH  19  20
ATOM     20  C   UNL     1      49.405   7.303  15.590  0.00  0.00    +0.000 A 
ATOM     21  C   UNL     1      50.038   6.285  16.319  0.00  0.00    +0.000 A 
ATOM     22  C   UNL     1      49.835   6.143  17.702  0.00  0.00    +0.000 A 
ATOM     23  C   UNL     1      49.038   7.051  18.390  0.00  0.00    +0.000 A 
ATOM     24  C   UNL     1      48.512   8.140  17.690  0.00  0.00    +0.000 A 
ATOM     25  C   UNL     1      48.714   8.282  16.314  0.00  0.00    +0.000 A 
BRANCH  23  26
ATOM     26  O   UNL     1      48.697   7.038  19.707  0.00  0.00    +0.000 OA
BRANCH  26  27
ATOM     27  C   UNL     1      47.648   6.217  20.189  0.00  0.00    +0.000 C 
ATOM     28  F   UNL     1      46.820   5.792  19.214  0.00  0.00    +0.000 F 
ATOM     29  F   UNL     1      48.207   5.121  20.754  0.00  0.00    +0.000 F 
ATOM     30  F   UNL     1      46.937   6.859  21.139  0.00  0.00    +0.000 F 
ENDBRANCH  26  27
ENDBRANCH  23  26
ENDBRANCH  19  20
ENDBRANCH   9  19
TORSDOF 6
ENDMDL
MODEL 6
REMARK VINA RESULT:    -5.842      5.200      8.047
REMARK INTER + INTRA:          -9.347
REMARK INTER:                  -8.017
REMARK INTRA:                  -1.330
REMARK UNBOUND:                -1.457
REMARK  Name = 
REMARK  9 active torsions:
REMARK  status: ('A' for Active; 'I' for Inactive)
REMARK    1  A    between atoms: C_1  and  C_2
REMARK    2  A    between atoms: C_2  and  C_3
REMARK    3  A    between atoms: C_2  and  C_4
REMARK    4  A    between atoms: C_2  and  C_5
REMARK    5  A    between atoms: C_9  and  C_10
REMARK    6  A    between atoms: N_16  and  C_17
REMARK    7  A    between atoms: C_17  and  C_18
REMARK    8  A    between atoms: C_21  and  O_22
REMARK    9  A    between atoms: O_22  and  C_23
REMARK                            x       y       z     vdW  Elec       q    Type
REMARK                         _______ _______ _______ _____ _____    ______ ____
ROOT
ATOM      1  C   UNL     1      49.575   6.664  15.935  0.00  0.00    +0.000 A 
ATOM      2  N   UNL     1      49.024   6.877  14.747  0.00  0.00    +0.000 NA
ATOM      3  C   UNL     1      48.089   5.924  14.566  0.00  0.00    +0.000 A 
ATOM      4  C   UNL     1      47.263   5.699  13.472  0.00  0.00    +0.000 A 
ATOM      5  C   UNL     1      46.431   4.608  13.616  0.00  0.00    +0.000 A 
ATOM      6  N   UNL     1      46.391   3.800  14.712  0.00  0.00    +0.000 NA
ATOM      7  N   UNL     1      47.196   4.025  15.764  0.00  0.00    +0.000 NA
ATOM      8  C   UNL     1      48.018   5.084  15.657  0.00  0.00    +0.000 A 
ATOM      9  N   UNL     1      48.947   5.583  16.559  0.00  0.00    +0.000 N 
ENDROOT
BRANCH   5  10
ATOM     10  C   UNL     1      45.521   4.277  12.471  0.00  0.00    +0.000 C 
ATOM     11  N   UNL     1      45.014   3.008  12.435  0.00  0.00    +0.000 N 
ATOM     12  O   UNL     1      45.241   5.092  11.602  0.00  0.00    +0.000 OA
ATOM     13  H   UNL     1      45.240   2.330  13.148  0.00  0.00    +0.000 HD
ATOM     14  H   UNL     1      44.405   2.755  11.668  0.00  0.00    +0.000 HD
ENDBRANCH   5  10
BRANCH   1  16
ATOM     15  C   UNL     1      50.717   8.855  15.542  0.00  0.00    +0.000 C 
ATOM     16  C   UNL     1      50.740   7.543  16.388  0.00  0.00    +0.000 C 
ATOM     17  C   UNL     1      52.095   6.876  16.114  0.00  0.00    +0.000 C 
ATOM     18  C   UNL     1      50.604   7.981  17.846  0.00  0.00    +0.000 C 
ENDBRANCH   1  16
BRANCH   9  19
ATOM     19  C   UNL     1      49.198   4.949  17.858  0.00  0.00    +0.000 C 
BRANCH  19  20
ATOM     20  C   UNL     1      50.336   3.948  17.819  0.00  0.00    +0.000 A 
ATOM     21  C   UNL     1      50.205   2.696  17.201  0.00  0.00    +0.000 A 
ATOM     22  C   UNL     1      51.191   1.705  17.343  0.00  0.00    +0.000 A 
ATOM     23  C   UNL     1      52.352   1.969  18.062  0.00  0.00    +0.000 A 
ATOM     24  C   UNL     1      52.543   3.257  18.568  0.00  0.00    +0.000 A 
ATOM     25  C   UNL     1      51.562   4.244  18.427  0.00  0.00    +0.000 A 
BRANCH  23  26
ATOM     26  O   UNL     1      53.378   1.120  18.338  0.00  0.00    +0.000 OA
BRANCH  26  27
ATOM     27  C   UNL     1      54.330   0.768  17.349  0.00  0.00    +0.000 C 
ATOM     28  F   UNL     1      53.851  -0.112  16.447  0.00  0.00    +0.000 F 
ATOM     29  F   UNL     1      54.666   1.895  16.679  0.00  0.00    +0.000 F 
ATOM     30  F   UNL     1      55.447   0.271  17.917  0.00  0.00    +0.000 F 
ENDBRANCH  26  27
ENDBRANCH  23  26
ENDBRANCH  19  20
ENDBRANCH   9  19
TORSDOF 6
ENDMDL
MODEL 7
REMARK VINA RESULT:    -5.565      4.415      6.182
REMARK INTER + INTRA:          -8.973
REMARK INTER:                  -7.738
REMARK INTRA:                  -1.235
REMARK UNBOUND:                -1.457
REMARK  Name = 
REMARK  9 active torsions:
REMARK  status: ('A' for Active; 'I' for Inactive)
REMARK    1  A    between atoms: C_1  and  C_2
REMARK    2  A    between atoms: C_2  and  C_3
REMARK    3  A    between atoms: C_2  and  C_4
REMARK    4  A    between atoms: C_2  and  C_5
REMARK    5  A    between atoms: C_9  and  C_10
REMARK    6  A    between atoms: N_16  and  C_17
REMARK    7  A    between atoms: C_17  and  C_18
REMARK    8  A    between atoms: C_21  and  O_22
REMARK    9  A    between atoms: O_22  and  C_23
REMARK                            x       y       z     vdW  Elec       q    Type
REMARK                         _______ _______ _______ _____ _____    ______ ____
ROOT
ATOM      1  C   UNL     1      45.799   4.989  12.701  0.00  0.00    +0.000 A 
ATOM      2  N   UNL     1      46.062   3.813  13.257  0.00  0.00    +0.000 NA
ATOM      3  C   UNL     1      46.922   4.038  14.270  0.00  0.00    +0.000 A 
ATOM      4  C   UNL     1      47.519   3.128  15.134  0.00  0.00    +0.000 A 
ATOM      5  C   UNL     1      48.376   3.706  16.048  0.00  0.00    +0.000 A 
ATOM      6  N   UNL     1      48.640   5.040  16.130  0.00  0.00    +0.000 NA
ATOM      7  N   UNL     1      48.060   5.911  15.287  0.00  0.00    +0.000 NA
ATOM      8  C   UNL     1      47.215   5.379  14.385  0.00  0.00    +0.000 A 
ATOM      9  N   UNL     1      46.461   6.001  13.401  0.00  0.00    +0.000 N 
ENDROOT
BRANCH   5  10
ATOM     10  C   UNL     1      49.082   2.793  17.006  0.00  0.00    +0.000 C 
ATOM     11  N   UNL     1      48.932   3.064  18.338  0.00  0.00    +0.000 N 
ATOM     12  O   UNL     1      49.767   1.852  16.628  0.00  0.00    +0.000 OA
ATOM     13  H   UNL     1      48.368   3.839  18.657  0.00  0.00    +0.000 HD
ATOM     14  H   UNL     1      49.405   2.470  19.005  0.00  0.00    +0.000 HD
ENDBRANCH   5  10
BRANCH   1  16
ATOM     15  C   UNL     1      44.460   3.591  11.115  0.00  0.00    +0.000 C 
ATOM     16  C   UNL     1      44.909   5.046  11.459  0.00  0.00    +0.000 C 
ATOM     17  C   UNL     1      45.675   5.563  10.235  0.00  0.00    +0.000 C 
ATOM     18  C   UNL     1      43.623   5.836  11.703  0.00  0.00    +0.000 C 
ENDBRANCH   1  16
BRANCH   9  19
ATOM     19  C   UNL     1      46.506   7.449  13.174  0.00  0.00    +0.000 C 
BRANCH  19  20
ATOM     20  C   UNL     1      47.859   7.931  12.687  0.00  0.00    +0.000 A 
ATOM     21  C   UNL     1      48.540   7.300  11.636  0.00  0.00    +0.000 A 
ATOM     22  C   UNL     1      49.871   7.628  11.327  0.00  0.00    +0.000 A 
ATOM     23  C   UNL     1      50.527   8.633  12.030  0.00  0.00    +0.000 A 
ATOM     24  C   UNL     1      49.808   9.351  12.990  0.00  0.00    +0.000 A 
ATOM     25  C   UNL     1      48.484   9.025  13.298  0.00  0.00    +0.000 A 
BRANCH  23  26
ATOM     26  O   UNL     1      51.816   9.044  11.898  0.00  0.00    +0.000 OA
BRANCH  26  27
ATOM     27  C   UNL     1      52.293   9.597  10.684  0.00  0.00    +0.000 C 
ATOM     28  F   UNL     1      51.380  10.369  10.061  0.00  0.00    +0.000 F 
ATOM     29  F   UNL     1      53.357  10.381  10.976  0.00  0.00    +0.000 F 
ATOM     30  F   UNL     1      52.709   8.624   9.847  0.00  0.00    +0.000 F 
ENDBRANCH  26  27
ENDBRANCH  23  26
ENDBRANCH  19  20
ENDBRANCH   9  19
TORSDOF 6
ENDMDL
MODEL 8
REMARK VINA RESULT:    -5.078      4.728      6.887
REMARK INTER + INTRA:          -8.316
REMARK INTER:                  -6.851
REMARK INTRA:                  -1.465
REMARK UNBOUND:                -1.457
REMARK  Name = 
REMARK  9 active torsions:
REMARK  status: ('A' for Active; 'I' for Inactive)
REMARK    1  A    between atoms: C_1  and  C_2
REMARK    2  A    between atoms: C_2  and  C_3
REMARK    3  A    between atoms: C_2  and  C_4
REMARK    4  A    between atoms: C_2  and  C_5
REMARK    5  A    between atoms: C_9  and  C_10
REMARK    6  A    between atoms: N_16  and  C_17
REMARK    7  A    between atoms: C_17  and  C_18
REMARK    8  A    between atoms: C_21  and  O_22
REMARK    9  A    between atoms: O_22  and  C_23
REMARK                            x       y       z     vdW  Elec       q    Type
REMARK                         _______ _______ _______ _____ _____    ______ ____
ROOT
ATOM      1  C   UNL     1      47.442   9.030  12.501  0.00  0.00    +0.000 A 
ATOM      2  N   UNL     1      46.262   8.513  12.180  0.00  0.00    +0.000 NA
ATOM      3  C   UNL     1      46.295   7.209  12.521  0.00  0.00    +0.000 A 
ATOM      4  C   UNL     1      45.320   6.234  12.359  0.00  0.00    +0.000 A 
ATOM      5  C   UNL     1      45.701   4.985  12.804  0.00  0.00    +0.000 A 
ATOM      6  N   UNL     1      46.911   4.692  13.356  0.00  0.00    +0.000 NA
ATOM      7  N   UNL     1      47.849   5.643  13.506  0.00  0.00    +0.000 NA
ATOM      8  C   UNL     1      47.507   6.874  13.085  0.00  0.00    +0.000 A 
ATOM      9  N   UNL     1      48.234   8.055  13.112  0.00  0.00    +0.000 N 
ENDROOT
BRANCH   5  10
ATOM     10  C   UNL     1      44.716   3.865  12.645  0.00  0.00    +0.000 C 
ATOM     11  N   UNL     1      44.963   2.965  11.645  0.00  0.00    +0.000 N 
ATOM     12  O   UNL     1      43.732   3.752  13.365  0.00  0.00    +0.000 OA
ATOM     13  H   UNL     1      45.773   3.051  11.048  0.00  0.00    +0.000 HD
ATOM     14  H   UNL     1      44.309   2.205  11.510  0.00  0.00    +0.000 HD
ENDBRANCH   5  10
BRANCH   1  16
ATOM     15  C   UNL     1      46.384  11.197  11.831  0.00  0.00    +0.000 C 
ATOM     16  C   UNL     1      47.737  10.489  12.153  0.00  0.00    +0.000 C 
ATOM     17  C   UNL     1      48.598  10.607  10.888  0.00  0.00    +0.000 C 
ATOM     18  C   UNL     1      48.344  11.255  13.329  0.00  0.00    +0.000 C 
ENDBRANCH   1  16
BRANCH   9  19
ATOM     19  C   UNL     1      49.607   8.121  13.624  0.00  0.00    +0.000 C 
BRANCH  19  20
ATOM     20  C   UNL     1      50.641   8.298  12.530  0.00  0.00    +0.000 A 
ATOM     21  C   UNL     1      50.610   7.544  11.348  0.00  0.00    +0.000 A 
ATOM     22  C   UNL     1      51.678   7.574  10.435  0.00  0.00    +0.000 A 
ATOM     23  C   UNL     1      52.773   8.400  10.663  0.00  0.00    +0.000 A 
ATOM     24  C   UNL     1      52.747   9.247  11.774  0.00  0.00    +0.000 A 
ATOM     25  C   UNL     1      51.684   9.219  12.682  0.00  0.00    +0.000 A 
BRANCH  23  26
ATOM     26  O   UNL     1      53.905   8.517   9.918  0.00  0.00    +0.000 OA
BRANCH  26  27
ATOM     27  C   UNL     1      53.859   8.966   8.575  0.00  0.00    +0.000 C 
ATOM     28  F   UNL     1      53.528   7.991   7.705  0.00  0.00    +0.000 F 
ATOM     29  F   UNL     1      52.909   9.926   8.491  0.00  0.00    +0.000 F 
ATOM     30  F   UNL     1      55.038   9.514   8.214  0.00  0.00    +0.000 F 
ENDBRANCH  26  27
ENDBRANCH  23  26
ENDBRANCH  19  20
ENDBRANCH   9  19
TORSDOF 6
ENDMDL
MODEL 9
REMARK VINA RESULT:    -4.952      4.245      6.076
REMARK INTER + INTRA:          -8.145
REMARK INTER:                  -6.895
REMARK INTRA:                  -1.250
REMARK UNBOUND:                -1.457
REMARK  Name = 
REMARK  9 active torsions:
REMARK  status: ('A' for Active; 'I' for Inactive)
REMARK    1  A    between atoms: C_1  and  C_2
REMARK    2  A    between atoms: C_2  and  C_3
REMARK    3  A    between atoms: C_2  and  C_4
REMARK    4  A    between atoms: C_2  and  C_5
REMARK    5  A    between atoms: C_9  and  C_10
REMARK    6  A    between atoms: N_16  and  C_17
REMARK    7  A    between atoms: C_17  and  C_18
REMARK    8  A    between atoms: C_21  and  O_22
REMARK    9  A    between atoms: O_22  and  C_23
REMARK                            x       y       z     vdW  Elec       q    Type
REMARK                         _______ _______ _______ _____ _____    ______ ____
ROOT
ATOM      1  C   UNL     1      47.461   8.507  12.689  0.00  0.00    +0.000 A 
ATOM      2  N   UNL     1      46.162   8.283  12.532  0.00  0.00    +0.000 NA
ATOM      3  C   UNL     1      45.950   6.980  12.803  0.00  0.00    +0.000 A 
ATOM      4  C   UNL     1      44.767   6.253  12.751  0.00  0.00    +0.000 A 
ATOM      5  C   UNL     1      44.917   4.919  13.072  0.00  0.00    +0.000 A 
ATOM      6  N   UNL     1      46.097   4.330  13.414  0.00  0.00    +0.000 NA
ATOM      7  N   UNL     1      47.236   5.042  13.459  0.00  0.00    +0.000 NA
ATOM      8  C   UNL     1      47.122   6.347  13.155  0.00  0.00    +0.000 A 
ATOM      9  N   UNL     1      48.093   7.339  13.122  0.00  0.00    +0.000 N 
ENDROOT
BRANCH   5  10
ATOM     10  C   UNL     1      43.693   4.054  13.018  0.00  0.00    +0.000 C 
ATOM     11  N   UNL     1      43.879   2.749  12.654  0.00  0.00    +0.000 N 
ATOM     12  O   UNL     1      42.577   4.483  13.279  0.00  0.00    +0.000 OA
ATOM     13  H   UNL     1      44.797   2.388  12.438  0.00  0.00    +0.000 HD
ATOM     14  H   UNL     1      43.069   2.145  12.600  0.00  0.00    +0.000 HD
ENDBRANCH   5  10
BRANCH   1  16
ATOM     15  C   UNL     1      49.189   9.717  11.343  0.00  0.00    +0.000 C 
ATOM     16  C   UNL     1      48.024   9.891  12.366  0.00  0.00    +0.000 C 
ATOM     17  C   UNL     1      48.635  10.559  13.606  0.00  0.00    +0.000 C 
ATOM     18  C   UNL     1      46.995  10.791  11.683  0.00  0.00    +0.000 C 
ENDBRANCH   1  16
BRANCH   9  19
ATOM     19  C   UNL     1      49.504   7.067  13.416  0.00  0.00    +0.000 C 
BRANCH  19  20
ATOM     20  C   UNL     1      49.903   7.458  14.825  0.00  0.00    +0.000 A 
ATOM     21  C   UNL     1      51.111   8.115  15.101  0.00  0.00    +0.000 A 
ATOM     22  C   UNL     1      51.560   8.294  16.420  0.00  0.00    +0.000 A 
ATOM     23  C   UNL     1      50.781   7.865  17.490  0.00  0.00    +0.000 A 
ATOM     24  C   UNL     1      49.520   7.328  17.222  0.00  0.00    +0.000 A 
ATOM     25  C   UNL     1      49.072   7.150  15.909  0.00  0.00    +0.000 A 
BRANCH  23  26
ATOM     26  O   UNL     1      51.079   7.914  18.816  0.00  0.00    +0.000 OA
BRANCH  26  27
ATOM     27  C   UNL     1      51.817   6.880  19.445  0.00  0.00    +0.000 C 
ATOM     28  F   UNL     1      52.092   5.851  18.618  0.00  0.00    +0.000 F 
ATOM     29  F   UNL     1      52.998   7.403  19.849  0.00  0.00    +0.000 F 
ATOM     30  F   UNL     1      51.168   6.424  20.535  0.00  0.00    +0.000 F 
ENDBRANCH  26  27
ENDBRANCH  23  26
ENDBRANCH  19  20
ENDBRANCH   9  19
TORSDOF 6
ENDMDL
