MODEL 1
REMARK VINA RESULT:    -8.785      0.000      0.000
REMARK INTER + INTRA:         -11.854
REMARK INTER:                 -11.353
REMARK INTRA:                  -0.501
REMARK UNBOUND:                -0.501
REMARK  Name = 
REMARK  5 active torsions:
REMARK  status: ('A' for Active; 'I' for Inactive)
REMARK    1  A    between atoms: C_2  and  C_4
REMARK    2  A    between atoms: C_7  and  O_8
REMARK    3  A    between atoms: O_8  and  C_9
REMARK    4  A    between atoms: C_9  and  C_10
REMARK    5  A    between atoms: C_15  and  C_16
REMARK                            x       y       z     vdW  Elec       q    Type
REMARK                         _______ _______ _______ _____ _____    ______ ____
ROOT
ATOM      1  C   UNL     1      44.846   4.624  11.932  0.00  0.00    +0.000 A 
ATOM      2  C   UNL     1      45.489   3.774  12.832  0.00  0.00    +0.000 A 
ATOM      3  C   UNL     1      46.624   4.213  13.501  0.00  0.00    +0.000 A 
ATOM      4  F   UNL     1      47.236   3.393  14.366  0.00  0.00    +0.000 F 
ATOM      5  C   UNL     1      47.138   5.491  13.296  0.00  0.00    +0.000 A 
ATOM      6  C   UNL     1      46.530   6.377  12.391  0.00  0.00    +0.000 A 
ATOM      7  C   UNL     1      45.382   5.911  11.713  0.00  0.00    +0.000 A 
ENDROOT
BRANCH   6   8
ATOM      8  C   UNL     1      47.068   7.739  12.168  0.00  0.00    +0.000 A 
ATOM      9  C   UNL     1      46.285   8.890  12.335  0.00  0.00    +0.000 A 
ATOM     10  N   UNL     1      46.709  10.167  12.146  0.00  0.00    +0.000 NA
ATOM     11  C   UNL     1      47.999  10.322  11.778  0.00  0.00    +0.000 A 
ATOM     12  C   UNL     1      48.864   9.262  11.592  0.00  0.00    +0.000 A 
ATOM     13  F   UNL     1      50.136   9.474  11.233  0.00  0.00    +0.000 F 
ATOM     14  C   UNL     1      48.399   7.966  11.783  0.00  0.00    +0.000 A 
ENDBRANCH   6   8
BRANCH   1  15
ATOM     15  C   UNL     1      43.597   4.181  11.199  0.00  0.00    +0.000 C 
BRANCH  15  16
ATOM     16  O   UNL     1      43.720   4.602   9.840  0.00  0.00    +0.000 OA
BRANCH  16  20
ATOM     17  C   UNL     1      46.380   2.306   7.806  0.00  0.00    +0.000 A 
ATOM     18  C   UNL     1      46.309   3.671   7.559  0.00  0.00    +0.000 A 
ATOM     19  N   UNL     1      45.438   4.492   8.207  0.00  0.00    +0.000 NA
ATOM     20  C   UNL     1      44.645   3.881   9.117  0.00  0.00    +0.000 A 
ATOM     21  C   UNL     1      44.719   2.513   9.366  0.00  0.00    +0.000 A 
ATOM     22  N   UNL     1      45.579   1.685   8.720  0.00  0.00    +0.000 NA
BRANCH  17  24
ATOM     23  N   UNL     1      48.462   2.102   6.585  0.00  0.00    +0.000 N 
ATOM     24  C   UNL     1      47.350   1.460   7.058  0.00  0.00    +0.000 C 
ATOM     25  O   UNL     1      47.169   0.262   6.880  0.00  0.00    +0.000 OA
ATOM     26  H   UNL     1      49.162   1.581   6.075  0.00  0.00    +0.000 HD
ATOM     27  H   UNL     1      48.590   3.093   6.757  0.00  0.00    +0.000 HD
ENDBRANCH  17  24
ENDBRANCH  16  20
ENDBRANCH  15  16
ENDBRANCH   1  15
TORSDOF 5
ENDMDL
MODEL 2
REMARK VINA RESULT:    -8.744      2.192      3.934
REMARK INTER + INTRA:         -11.800
REMARK INTER:                 -11.150
REMARK INTRA:                  -0.650
REMARK UNBOUND:                -0.501
REMARK  Name = 
REMARK  5 active torsions:
REMARK  status: ('A' for Active; 'I' for Inactive)
REMARK    1  A    between atoms: C_2  and  C_4
REMARK    2  A    between atoms: C_7  and  O_8
REMARK    3  A    between atoms: O_8  and  C_9
REMARK    4  A    between atoms: C_9  and  C_10
REMARK    5  A    between atoms: C_15  and  C_16
REMARK                            x       y       z     vdW  Elec       q    Type
REMARK                         _______ _______ _______ _____ _____    ______ ____
ROOT
ATOM      1  C   UNL     1      44.800   5.159  11.992  0.00  0.00    +0.000 A 
ATOM      2  C   UNL     1      44.937   6.451  11.480  0.00  0.00    +0.000 A 
ATOM      3  C   UNL     1      45.846   7.326  12.059  0.00  0.00    +0.000 A 
ATOM      4  F   UNL     1      45.974   8.564  11.562  0.00  0.00    +0.000 F 
ATOM      5  C   UNL     1      46.631   6.944  13.144  0.00  0.00    +0.000 A 
ATOM      6  C   UNL     1      46.519   5.658  13.698  0.00  0.00    +0.000 A 
ATOM      7  C   UNL     1      45.584   4.784  13.103  0.00  0.00    +0.000 A 
ENDROOT
BRANCH   6   8
ATOM      8  C   UNL     1      47.352   5.243  14.851  0.00  0.00    +0.000 A 
ATOM      9  C   UNL     1      48.435   6.008  15.307  0.00  0.00    +0.000 A 
ATOM     10  N   UNL     1      49.241   5.689  16.353  0.00  0.00    +0.000 NA
ATOM     11  C   UNL     1      48.954   4.540  17.003  0.00  0.00    +0.000 A 
ATOM     12  C   UNL     1      47.908   3.713  16.648  0.00  0.00    +0.000 A 
ATOM     13  F   UNL     1      47.664   2.589  17.333  0.00  0.00    +0.000 F 
ATOM     14  C   UNL     1      47.105   4.060  15.567  0.00  0.00    +0.000 A 
ENDBRANCH   6   8
BRANCH   1  15
ATOM     15  C   UNL     1      43.830   4.175  11.372  0.00  0.00    +0.000 C 
BRANCH  15  16
ATOM     16  O   UNL     1      43.720   4.493   9.983  0.00  0.00    +0.000 OA
BRANCH  16  20
ATOM     17  C   UNL     1      46.426   2.463   7.740  0.00  0.00    +0.000 A 
ATOM     18  C   UNL     1      46.303   3.839   7.601  0.00  0.00    +0.000 A 
ATOM     19  N   UNL     1      45.414   4.575   8.324  0.00  0.00    +0.000 NA
ATOM     20  C   UNL     1      44.658   3.866   9.193  0.00  0.00    +0.000 A 
ATOM     21  C   UNL     1      44.785   2.486   9.334  0.00  0.00    +0.000 A 
ATOM     22  N   UNL     1      45.664   1.744   8.613  0.00  0.00    +0.000 NA
BRANCH  17  24
ATOM     23  N   UNL     1      48.494   2.432   6.478  0.00  0.00    +0.000 N 
ATOM     24  C   UNL     1      47.414   1.714   6.915  0.00  0.00    +0.000 C 
ATOM     25  O   UNL     1      47.274   0.528   6.647  0.00  0.00    +0.000 OA
ATOM     26  H   UNL     1      49.203   1.979   5.919  0.00  0.00    +0.000 HD
ATOM     27  H   UNL     1      48.589   3.412   6.724  0.00  0.00    +0.000 HD
ENDBRANCH  17  24
ENDBRANCH  16  20
ENDBRANCH  15  16
ENDBRANCH   1  15
TORSDOF 5
ENDMDL
MODEL 3
REMARK VINA RESULT:    -8.480      2.349      2.765
REMARK INTER + INTRA:         -11.459
REMARK INTER:                 -10.662
REMARK INTRA:                  -0.797
REMARK UNBOUND:                -0.501
REMARK  Name = 
REMARK  5 active torsions:
REMARK  status: ('A' for Active; 'I' for Inactive)
REMARK    1  A    between atoms: C_2  and  C_4
REMARK    2  A    between atoms: C_7  and  O_8
REMARK    3  A    between atoms: O_8  and  C_9
REMARK    4  A    between atoms: C_9  and  C_10
REMARK    5  A    between atoms: C_15  and  C_16
REMARK                            x       y       z     vdW  Elec       q    Type
REMARK                         _______ _______ _______ _____ _____    ______ ____
ROOT
ATOM      1  C   UNL     1      44.671   5.090  11.857  0.00  0.00    +0.000 A 
ATOM      2  C   UNL     1      45.906   4.903  12.481  0.00  0.00    +0.000 A 
ATOM      3  C   UNL     1      46.690   6.005  12.797  0.00  0.00    +0.000 A 
ATOM      4  F   UNL     1      47.873   5.820  13.397  0.00  0.00    +0.000 F 
ATOM      5  C   UNL     1      46.270   7.301  12.506  0.00  0.00    +0.000 A 
ATOM      6  C   UNL     1      45.040   7.535  11.869  0.00  0.00    +0.000 A 
ATOM      7  C   UNL     1      44.260   6.404  11.547  0.00  0.00    +0.000 A 
ENDROOT
BRANCH   6   8
ATOM      8  C   UNL     1      44.584   8.910  11.558  0.00  0.00    +0.000 A 
ATOM      9  C   UNL     1      45.204  10.045  12.101  0.00  0.00    +0.000 A 
ATOM     10  N   UNL     1      44.840  11.333  11.863  0.00  0.00    +0.000 NA
ATOM     11  C   UNL     1      43.800  11.516  11.021  0.00  0.00    +0.000 A 
ATOM     12  C   UNL     1      43.121  10.474  10.422  0.00  0.00    +0.000 A 
ATOM     13  F   UNL     1      42.099  10.714   9.590  0.00  0.00    +0.000 F 
ATOM     14  C   UNL     1      43.509   9.166  10.693  0.00  0.00    +0.000 A 
ENDBRANCH   6   8
BRANCH   1  15
ATOM     15  C   UNL     1      43.786   3.910  11.516  0.00  0.00    +0.000 C 
BRANCH  15  16
ATOM     16  O   UNL     1      43.467   3.996  10.126  0.00  0.00    +0.000 OA
BRANCH  16  20
ATOM     17  C   UNL     1      46.362   2.397   7.771  0.00  0.00    +0.000 A 
ATOM     18  C   UNL     1      46.025   3.739   7.643  0.00  0.00    +0.000 A 
ATOM     19  N   UNL     1      45.063   4.332   8.403  0.00  0.00    +0.000 NA
ATOM     20  C   UNL     1      44.458   3.517   9.298  0.00  0.00    +0.000 A 
ATOM     21  C   UNL     1      44.799   2.173   9.427  0.00  0.00    +0.000 A 
ATOM     22  N   UNL     1      45.752   1.572   8.670  0.00  0.00    +0.000 NA
BRANCH  17  24
ATOM     23  N   UNL     1      48.401   2.665   6.492  0.00  0.00    +0.000 N 
ATOM     24  C   UNL     1      47.419   1.807   6.905  0.00  0.00    +0.000 C 
ATOM     25  O   UNL     1      47.414   0.625   6.585  0.00  0.00    +0.000 OA
ATOM     26  H   UNL     1      49.152   2.323   5.908  0.00  0.00    +0.000 HD
ATOM     27  H   UNL     1      48.385   3.637   6.781  0.00  0.00    +0.000 HD
ENDBRANCH  17  24
ENDBRANCH  16  20
ENDBRANCH  15  16
ENDBRANCH   1  15
TORSDOF 5
ENDMDL
MODEL 4
REMARK VINA RESULT:    -8.244      4.039      7.209
REMARK INTER + INTRA:         -11.154
REMARK INTER:                 -10.941
REMARK INTRA:                  -0.213
REMARK UNBOUND:                -0.501
REMARK  Name = 
REMARK  5 active torsions:
REMARK  status: ('A' for Active; 'I' for Inactive)
REMARK    1  A    between atoms: C_2  and  C_4
REMARK    2  A    between atoms: C_7  and  O_8
REMARK    3  A    between atoms: O_8  and  C_9
REMARK    4  A    between atoms: C_9  and  C_10
REMARK    5  A    between atoms: C_15  and  C_16
REMARK                            x       y       z     vdW  Elec       q    Type
REMARK                         _______ _______ _______ _____ _____    ______ ____
ROOT
ATOM      1  C   UNL     1      45.307   6.283  11.588  0.00  0.00    +0.000 A 
ATOM      2  C   UNL     1      43.941   6.278  11.879  0.00  0.00    +0.000 A 
ATOM      3  C   UNL     1      43.101   5.391  11.219  0.00  0.00    +0.000 A 
ATOM      4  F   UNL     1      41.793   5.389  11.504  0.00  0.00    +0.000 F 
ATOM      5  C   UNL     1      43.591   4.499  10.267  0.00  0.00    +0.000 A 
ATOM      6  C   UNL     1      44.956   4.477   9.935  0.00  0.00    +0.000 A 
ATOM      7  C   UNL     1      45.794   5.391  10.609  0.00  0.00    +0.000 A 
ENDROOT
BRANCH   6   8
ATOM      8  C   UNL     1      45.487   3.530   8.926  0.00  0.00    +0.000 A 
ATOM      9  C   UNL     1      45.542   2.147   9.153  0.00  0.00    +0.000 A 
ATOM     10  N   UNL     1      46.016   1.222   8.278  0.00  0.00    +0.000 NA
ATOM     11  C   UNL     1      46.457   1.691   7.091  0.00  0.00    +0.000 A 
ATOM     12  C   UNL     1      46.443   3.030   6.755  0.00  0.00    +0.000 A 
ATOM     13  F   UNL     1      46.887   3.439   5.560  0.00  0.00    +0.000 F 
ATOM     14  C   UNL     1      45.962   3.955   7.675  0.00  0.00    +0.000 A 
ENDBRANCH   6   8
BRANCH   1  15
ATOM     15  C   UNL     1      46.251   7.226  12.303  0.00  0.00    +0.000 C 
BRANCH  15  16
ATOM     16  O   UNL     1      47.474   6.523  12.532  0.00  0.00    +0.000 OA
BRANCH  16  20
ATOM     17  C   UNL     1      47.469   4.429  16.010  0.00  0.00    +0.000 A 
ATOM     18  C   UNL     1      48.234   5.583  15.895  0.00  0.00    +0.000 A 
ATOM     19  N   UNL     1      48.277   6.327  14.756  0.00  0.00    +0.000 NA
ATOM     20  C   UNL     1      47.516   5.861  13.739  0.00  0.00    +0.000 A 
ATOM     21  C   UNL     1      46.748   4.705  13.857  0.00  0.00    +0.000 A 
ATOM     22  N   UNL     1      46.703   3.954  14.986  0.00  0.00    +0.000 NA
BRANCH  17  24
ATOM     23  N   UNL     1      48.533   3.876  18.115  0.00  0.00    +0.000 N 
ATOM     24  C   UNL     1      47.470   3.656  17.282  0.00  0.00    +0.000 C 
ATOM     25  O   UNL     1      46.572   2.874  17.570  0.00  0.00    +0.000 OA
ATOM     26  H   UNL     1      48.587   3.387  18.998  0.00  0.00    +0.000 HD
ATOM     27  H   UNL     1      49.256   4.538  17.855  0.00  0.00    +0.000 HD
ENDBRANCH  17  24
ENDBRANCH  16  20
ENDBRANCH  15  16
ENDBRANCH   1  15
TORSDOF 5
ENDMDL
MODEL 5
REMARK VINA RESULT:    -8.002      4.916      8.128
REMARK INTER + INTRA:         -10.841
REMARK INTER:                 -10.329
REMARK INTRA:                  -0.512
REMARK UNBOUND:                -0.501
REMARK  Name = 
REMARK  5 active torsions:
REMARK  status: ('A' for Active; 'I' for Inactive)
REMARK    1  A    between atoms: C_2  and  C_4
REMARK    2  A    between atoms: C_7  and  O_8
REMARK    3  A    between atoms: O_8  and  C_9
REMARK    4  A    between atoms: C_9  and  C_10
REMARK    5  A    between atoms: C_15  and  C_16
REMARK                            x       y       z     vdW  Elec       q    Type
REMARK                         _______ _______ _______ _____ _____    ______ ____
ROOT
ATOM      1  C   UNL     1      45.204   5.117  12.796  0.00  0.00    +0.000 A 
ATOM      2  C   UNL     1      43.857   5.485  12.838  0.00  0.00    +0.000 A 
ATOM      3  C   UNL     1      43.045   5.246  11.737  0.00  0.00    +0.000 A 
ATOM      4  F   UNL     1      41.754   5.599  11.784  0.00  0.00    +0.000 F 
ATOM      5  C   UNL     1      43.544   4.643  10.585  0.00  0.00    +0.000 A 
ATOM      6  C   UNL     1      44.894   4.267  10.495  0.00  0.00    +0.000 A 
ATOM      7  C   UNL     1      45.708   4.524  11.619  0.00  0.00    +0.000 A 
ENDROOT
BRANCH   6   8
ATOM      8  C   UNL     1      45.433   3.623   9.274  0.00  0.00    +0.000 A 
ATOM      9  C   UNL     1      45.820   4.361   8.146  0.00  0.00    +0.000 A 
ATOM     10  N   UNL     1      46.318   3.840   6.994  0.00  0.00    +0.000 NA
ATOM     11  C   UNL     1      46.457   2.497   6.955  0.00  0.00    +0.000 A 
ATOM     12  C   UNL     1      46.118   1.672   8.008  0.00  0.00    +0.000 A 
ATOM     13  F   UNL     1      46.283   0.346   7.917  0.00  0.00    +0.000 F 
ATOM     14  C   UNL     1      45.600   2.232   9.171  0.00  0.00    +0.000 A 
ENDBRANCH   6   8
BRANCH   1  15
ATOM     15  C   UNL     1      46.110   5.348  13.987  0.00  0.00    +0.000 C 
BRANCH  15  16
ATOM     16  O   UNL     1      46.403   4.073  14.561  0.00  0.00    +0.000 OA
BRANCH  16  20
ATOM     17  C   UNL     1      48.435   4.454  18.055  0.00  0.00    +0.000 A 
ATOM     18  C   UNL     1      47.487   3.449  17.909  0.00  0.00    +0.000 A 
ATOM     19  N   UNL     1      46.773   3.271  16.763  0.00  0.00    +0.000 NA
ATOM     20  C   UNL     1      47.057   4.146  15.771  0.00  0.00    +0.000 A 
ATOM     21  C   UNL     1      48.010   5.151  15.918  0.00  0.00    +0.000 A 
ATOM     22  N   UNL     1      48.722   5.340  17.058  0.00  0.00    +0.000 NA
BRANCH  17  24
ATOM     23  N   UNL     1      48.641   3.951  20.416  0.00  0.00    +0.000 N 
ATOM     24  C   UNL     1      49.178   4.599  19.337  0.00  0.00    +0.000 C 
ATOM     25  O   UNL     1      50.209   5.255  19.423  0.00  0.00    +0.000 OA
ATOM     26  H   UNL     1      49.102   4.005  21.313  0.00  0.00    +0.000 HD
ATOM     27  H   UNL     1      47.791   3.407  20.313  0.00  0.00    +0.000 HD
ENDBRANCH  17  24
ENDBRANCH  16  20
ENDBRANCH  15  16
ENDBRANCH   1  15
TORSDOF 5
ENDMDL
MODEL 6
REMARK VINA RESULT:    -7.750      2.189      2.823
REMARK INTER + INTRA:         -10.516
REMARK INTER:                  -9.843
REMARK INTRA:                  -0.673
REMARK UNBOUND:                -0.501
REMARK  Name = 
REMARK  5 active torsions:
REMARK  status: ('A' for Active; 'I' for Inactive)
REMARK    1  A    between atoms: C_2  and  C_4
REMARK    2  A    between atoms: C_7  and  O_8
REMARK    3  A    between atoms: O_8  and  C_9
REMARK    4  A    between atoms: C_9  and  C_10
REMARK    5  A    between atoms: C_15  and  C_16
REMARK                            x       y       z     vdW  Elec       q    Type
REMARK                         _______ _______ _______ _____ _____    ______ ____
ROOT
ATOM      1  C   UNL     1      44.704   6.258  11.398  0.00  0.00    +0.000 A 
ATOM      2  C   UNL     1      43.996   7.440  11.171  0.00  0.00    +0.000 A 
ATOM      3  C   UNL     1      44.595   8.662  11.445  0.00  0.00    +0.000 A 
ATOM      4  F   UNL     1      43.912   9.793  11.224  0.00  0.00    +0.000 F 
ATOM      5  C   UNL     1      45.895   8.739  11.941  0.00  0.00    +0.000 A 
ATOM      6  C   UNL     1      46.640   7.575  12.194  0.00  0.00    +0.000 A 
ATOM      7  C   UNL     1      46.013   6.341  11.919  0.00  0.00    +0.000 A 
ENDROOT
BRANCH   6   8
ATOM      8  C   UNL     1      48.024   7.647  12.719  0.00  0.00    +0.000 A 
ATOM      9  C   UNL     1      48.405   7.015  13.912  0.00  0.00    +0.000 A 
ATOM     10  N   UNL     1      49.651   7.039  14.454  0.00  0.00    +0.000 NA
ATOM     11  C   UNL     1      50.590   7.725  13.767  0.00  0.00    +0.000 A 
ATOM     12  C   UNL     1      50.331   8.378  12.579  0.00  0.00    +0.000 A 
ATOM     13  F   UNL     1      51.303   9.037  11.936  0.00  0.00    +0.000 F 
ATOM     14  C   UNL     1      49.044   8.344  12.053  0.00  0.00    +0.000 A 
ENDBRANCH   6   8
BRANCH   1  15
ATOM     15  C   UNL     1      44.085   4.910  11.093  0.00  0.00    +0.000 C 
BRANCH  15  16
ATOM     16  O   UNL     1      43.878   4.838   9.681  0.00  0.00    +0.000 OA
BRANCH  16  20
ATOM     17  C   UNL     1      46.298   2.110   7.898  0.00  0.00    +0.000 A 
ATOM     18  C   UNL     1      46.381   3.450   7.542  0.00  0.00    +0.000 A 
ATOM     19  N   UNL     1      45.597   4.411   8.103  0.00  0.00    +0.000 NA
ATOM     20  C   UNL     1      44.728   3.965   9.040  0.00  0.00    +0.000 A 
ATOM     21  C   UNL     1      44.648   2.622   9.398  0.00  0.00    +0.000 A 
ATOM     22  N   UNL     1      45.421   1.656   8.840  0.00  0.00    +0.000 NA
BRANCH  17  24
ATOM     23  N   UNL     1      46.897  -0.205   7.512  0.00  0.00    +0.000 N 
ATOM     24  C   UNL     1      47.180   1.106   7.242  0.00  0.00    +0.000 C 
ATOM     25  O   UNL     1      48.100   1.431   6.502  0.00  0.00    +0.000 OA
ATOM     26  H   UNL     1      47.455  -0.935   7.091  0.00  0.00    +0.000 HD
ATOM     27  H   UNL     1      46.122  -0.445   8.121  0.00  0.00    +0.000 HD
ENDBRANCH  17  24
ENDBRANCH  16  20
ENDBRANCH  15  16
ENDBRANCH   1  15
TORSDOF 5
ENDMDL
MODEL 7
REMARK VINA RESULT:    -7.746      1.795      2.258
REMARK INTER + INTRA:         -10.510
REMARK INTER:                  -9.823
REMARK INTRA:                  -0.687
REMARK UNBOUND:                -0.501
REMARK  Name = 
REMARK  5 active torsions:
REMARK  status: ('A' for Active; 'I' for Inactive)
REMARK    1  A    between atoms: C_2  and  C_4
REMARK    2  A    between atoms: C_7  and  O_8
REMARK    3  A    between atoms: O_8  and  C_9
REMARK    4  A    between atoms: C_9  and  C_10
REMARK    5  A    between atoms: C_15  and  C_16
REMARK                            x       y       z     vdW  Elec       q    Type
REMARK                         _______ _______ _______ _____ _____    ______ ____
ROOT
ATOM      1  C   UNL     1      45.890   5.843  11.973  0.00  0.00    +0.000 A 
ATOM      2  C   UNL     1      45.683   5.067  13.115  0.00  0.00    +0.000 A 
ATOM      3  C   UNL     1      46.649   5.040  14.112  0.00  0.00    +0.000 A 
ATOM      4  F   UNL     1      46.444   4.295  15.206  0.00  0.00    +0.000 F 
ATOM      5  C   UNL     1      47.827   5.775  14.001  0.00  0.00    +0.000 A 
ATOM      6  C   UNL     1      48.082   6.561  12.865  0.00  0.00    +0.000 A 
ATOM      7  C   UNL     1      47.094   6.570  11.857  0.00  0.00    +0.000 A 
ENDROOT
BRANCH   6   8
ATOM      8  C   UNL     1      49.331   7.348  12.739  0.00  0.00    +0.000 A 
ATOM      9  C   UNL     1      50.028   7.830  13.856  0.00  0.00    +0.000 A 
ATOM     10  N   UNL     1      51.175   8.559  13.818  0.00  0.00    +0.000 NA
ATOM     11  C   UNL     1      51.677   8.820  12.591  0.00  0.00    +0.000 A 
ATOM     12  C   UNL     1      51.081   8.390  11.423  0.00  0.00    +0.000 A 
ATOM     13  F   UNL     1      51.627   8.673  10.234  0.00  0.00    +0.000 F 
ATOM     14  C   UNL     1      49.902   7.655  11.494  0.00  0.00    +0.000 A 
ENDBRANCH   6   8
BRANCH   1  15
ATOM     15  C   UNL     1      44.848   5.907  10.876  0.00  0.00    +0.000 C 
BRANCH  15  16
ATOM     16  O   UNL     1      44.381   4.576  10.646  0.00  0.00    +0.000 OA
BRANCH  16  20
ATOM     17  C   UNL     1      46.377   2.839   7.567  0.00  0.00    +0.000 A 
ATOM     18  C   UNL     1      45.784   2.049   8.544  0.00  0.00    +0.000 A 
ATOM     19  N   UNL     1      45.103   2.573   9.600  0.00  0.00    +0.000 NA
ATOM     20  C   UNL     1      45.041   3.924   9.629  0.00  0.00    +0.000 A 
ATOM     21  C   UNL     1      45.633   4.714   8.647  0.00  0.00    +0.000 A 
ATOM     22  N   UNL     1      46.320   4.202   7.594  0.00  0.00    +0.000 NA
BRANCH  17  24
ATOM     23  N   UNL     1      47.339   3.001   5.350  0.00  0.00    +0.000 N 
ATOM     24  C   UNL     1      47.114   2.205   6.440  0.00  0.00    +0.000 C 
ATOM     25  O   UNL     1      47.502   1.044   6.485  0.00  0.00    +0.000 OA
ATOM     26  H   UNL     1      47.841   2.631   4.555  0.00  0.00    +0.000 HD
ATOM     27  H   UNL     1      47.015   3.962   5.345  0.00  0.00    +0.000 HD
ENDBRANCH  17  24
ENDBRANCH  16  20
ENDBRANCH  15  16
ENDBRANCH   1  15
TORSDOF 5
ENDMDL
MODEL 8
REMARK VINA RESULT:    -7.189      4.956      8.218
REMARK INTER + INTRA:          -9.791
REMARK INTER:                  -9.164
REMARK INTRA:                  -0.627
REMARK UNBOUND:                -0.501
REMARK  Name = 
REMARK  5 active torsions:
REMARK  status: ('A' for Active; 'I' for Inactive)
REMARK    1  A    between atoms: C_2  and  C_4
REMARK    2  A    between atoms: C_7  and  O_8
REMARK    3  A    between atoms: O_8  and  C_9
REMARK    4  A    between atoms: C_9  and  C_10
REMARK    5  A    between atoms: C_15  and  C_16
REMARK                            x       y       z     vdW  Elec       q    Type
REMARK                         _______ _______ _______ _____ _____    ______ ____
ROOT
ATOM      1  C   UNL     1      47.187   7.356  13.153  0.00  0.00    +0.000 A 
ATOM      2  C   UNL     1      46.411   8.517  13.126  0.00  0.00    +0.000 A 
ATOM      3  C   UNL     1      45.294   8.577  12.303  0.00  0.00    +0.000 A 
ATOM      4  F   UNL     1      44.552   9.692  12.283  0.00  0.00    +0.000 F 
ATOM      5  C   UNL     1      44.926   7.501  11.499  0.00  0.00    +0.000 A 
ATOM      6  C   UNL     1      45.683   6.318  11.486  0.00  0.00    +0.000 A 
ATOM      7  C   UNL     1      46.820   6.276  12.322  0.00  0.00    +0.000 A 
ENDROOT
BRANCH   6   8
ATOM      8  C   UNL     1      45.298   5.167  10.636  0.00  0.00    +0.000 A 
ATOM      9  C   UNL     1      44.516   4.108  11.119  0.00  0.00    +0.000 A 
ATOM     10  N   UNL     1      44.127   3.022  10.401  0.00  0.00    +0.000 NA
ATOM     11  C   UNL     1      44.527   2.982   9.111  0.00  0.00    +0.000 A 
ATOM     12  C   UNL     1      45.292   3.972   8.527  0.00  0.00    +0.000 A 
ATOM     13  F   UNL     1      45.655   3.883   7.242  0.00  0.00    +0.000 F 
ATOM     14  C   UNL     1      45.684   5.066   9.290  0.00  0.00    +0.000 A 
ENDBRANCH   6   8
BRANCH   1  15
ATOM     15  C   UNL     1      48.400   7.253  14.053  0.00  0.00    +0.000 C 
BRANCH  15  16
ATOM     16  O   UNL     1      48.558   5.878  14.410  0.00  0.00    +0.000 OA
BRANCH  16  20
ATOM     17  C   UNL     1      48.231   5.357  18.423  0.00  0.00    +0.000 A 
ATOM     18  C   UNL     1      47.860   4.336  17.558  0.00  0.00    +0.000 A 
ATOM     19  N   UNL     1      47.945   4.451  16.204  0.00  0.00    +0.000 NA
ATOM     20  C   UNL     1      48.423   5.636  15.759  0.00  0.00    +0.000 A 
ATOM     21  C   UNL     1      48.798   6.658  16.628  0.00  0.00    +0.000 A 
ATOM     22  N   UNL     1      48.710   6.555  17.979  0.00  0.00    +0.000 NA
BRANCH  17  24
ATOM     23  N   UNL     1      48.525   3.962  20.382  0.00  0.00    +0.000 N 
ATOM     24  C   UNL     1      48.107   5.171  19.895  0.00  0.00    +0.000 C 
ATOM     25  O   UNL     1      47.665   6.047  20.628  0.00  0.00    +0.000 OA
ATOM     26  H   UNL     1      48.473   3.778  21.374  0.00  0.00    +0.000 HD
ATOM     27  H   UNL     1      48.897   3.260  19.752  0.00  0.00    +0.000 HD
ENDBRANCH  17  24
ENDBRANCH  16  20
ENDBRANCH  15  16
ENDBRANCH   1  15
TORSDOF 5
ENDMDL
MODEL 9
REMARK VINA RESULT:    -7.179      5.528      7.890
REMARK INTER + INTRA:          -9.778
REMARK INTER:                  -9.118
REMARK INTRA:                  -0.660
REMARK UNBOUND:                -0.501
REMARK  Name = 
REMARK  5 active torsions:
REMARK  status: ('A' for Active; 'I' for Inactive)
REMARK    1  A    between atoms: C_2  and  C_4
REMARK    2  A    between atoms: C_7  and  O_8
REMARK    3  A    between atoms: O_8  and  C_9
REMARK    4  A    between atoms: C_9  and  C_10
REMARK    5  A    between atoms: C_15  and  C_16
REMARK                            x       y       z     vdW  Elec       q    Type
REMARK                         _______ _______ _______ _____ _____    ______ ____
ROOT
ATOM      1  C   UNL     1      48.396   6.634  14.480  0.00  0.00    +0.000 A 
ATOM      2  C   UNL     1      49.014   7.506  13.581  0.00  0.00    +0.000 A 
ATOM      3  C   UNL     1      48.540   7.600  12.280  0.00  0.00    +0.000 A 
ATOM      4  F   UNL     1      49.135   8.439  11.422  0.00  0.00    +0.000 F 
ATOM      5  C   UNL     1      47.453   6.843  11.847  0.00  0.00    +0.000 A 
ATOM      6  C   UNL     1      46.808   5.946  12.714  0.00  0.00    +0.000 A 
ATOM      7  C   UNL     1      47.308   5.856  14.031  0.00  0.00    +0.000 A 
ENDROOT
BRANCH   6   8
ATOM      8  C   UNL     1      45.650   5.139  12.263  0.00  0.00    +0.000 A 
ATOM      9  C   UNL     1      44.864   4.394  13.154  0.00  0.00    +0.000 A 
ATOM     10  N   UNL     1      43.792   3.632  12.813  0.00  0.00    +0.000 NA
ATOM     11  C   UNL     1      43.464   3.610  11.503  0.00  0.00    +0.000 A 
ATOM     12  C   UNL     1      44.161   4.310  10.539  0.00  0.00    +0.000 A 
ATOM     13  F   UNL     1      43.787   4.258   9.254  0.00  0.00    +0.000 F 
ATOM     14  C   UNL     1      45.260   5.074  10.916  0.00  0.00    +0.000 A 
ENDBRANCH   6   8
BRANCH   1  15
ATOM     15  C   UNL     1      48.879   6.521  15.911  0.00  0.00    +0.000 C 
BRANCH  15  16
ATOM     16  O   UNL     1      48.267   5.364  16.484  0.00  0.00    +0.000 OA
BRANCH  16  20
ATOM     17  C   UNL     1      51.015   2.517  17.393  0.00  0.00    +0.000 A 
ATOM     18  C   UNL     1      49.788   2.151  16.855  0.00  0.00    +0.000 A 
ATOM     19  N   UNL     1      48.826   3.059  16.530  0.00  0.00    +0.000 NA
ATOM     20  C   UNL     1      49.154   4.350  16.768  0.00  0.00    +0.000 A 
ATOM     21  C   UNL     1      50.386   4.715  17.305  0.00  0.00    +0.000 A 
ATOM     22  N   UNL     1      51.348   3.817  17.637  0.00  0.00    +0.000 NA
BRANCH  17  24
ATOM     23  N   UNL     1      51.521   0.268  18.136  0.00  0.00    +0.000 N 
ATOM     24  C   UNL     1      52.023   1.475  17.733  0.00  0.00    +0.000 C 
ATOM     25  O   UNL     1      53.227   1.682  17.652  0.00  0.00    +0.000 OA
ATOM     26  H   UNL     1      52.154  -0.483  18.373  0.00  0.00    +0.000 HD
ATOM     27  H   UNL     1      50.518   0.122  18.183  0.00  0.00    +0.000 HD
ENDBRANCH  17  24
ENDBRANCH  16  20
ENDBRANCH  15  16
ENDBRANCH   1  15
TORSDOF 5
ENDMDL
