MODEL 1
REMARK VINA RESULT:    -8.039      0.000      0.000
REMARK INTER + INTRA:         -11.680
REMARK INTER:                 -11.094
REMARK INTRA:                  -0.586
REMARK UNBOUND:                -0.586
REMARK  Name = 
REMARK  7 active torsions:
REMARK  status: ('A' for Active; 'I' for Inactive)
REMARK    1  A    between atoms: C_2  and  C_4
REMARK    2  A    between atoms: C_7  and  O_8
REMARK    3  A    between atoms: O_8  and  C_9
REMARK    4  A    between atoms: C_9  and  C_10
REMARK    5  A    between atoms: C_10  and  C_11
REMARK    6  A    between atoms: CA_14  and  C_15
REMARK    7  A    between atoms: C_15  and  OXT_17
REMARK                            x       y       z     vdW  Elec       q    Type
REMARK                         _______ _______ _______ _____ _____    ______ ____
ROOT
ATOM      1  O   UNL     1      43.521   4.864   9.511  0.00  0.00    +0.000 OA
ENDROOT
BRANCH   1   5
ATOM      2  C   UNL     1      46.197   2.109   8.000  0.00  0.00    +0.000 A 
ATOM      3  C   UNL     1      45.292   1.718   8.987  0.00  0.00    +0.000 A 
ATOM      4  C   UNL     1      44.394   2.659   9.503  0.00  0.00    +0.000 A 
ATOM      5  C   UNL     1      44.431   3.952   9.005  0.00  0.00    +0.000 A 
ATOM      6  N   UNL     1      45.302   4.358   8.054  0.00  0.00    +0.000 NA
ATOM      7  C   UNL     1      46.172   3.433   7.583  0.00  0.00    +0.000 A 
BRANCH   2   9
ATOM      8  N   UNL     1      47.006  -0.100   7.556  0.00  0.00    +0.000 NA
ATOM      9  C   UNL     1      47.173   1.170   7.392  0.00  0.00    +0.000 C 
ATOM     10  N   UNL     1      48.246   1.638   6.691  0.00  0.00    +0.000 N 
ATOM     11  H   UNL     1      47.731  -0.620   7.057  0.00  0.00    +0.000 HD
ATOM     12  H   UNL     1      49.015   0.987   6.587  0.00  0.00    +0.000 HD
ATOM     13  H   UNL     1      48.577   2.562   6.950  0.00  0.00    +0.000 HD
ENDBRANCH   2   9
ENDBRANCH   1   5
BRANCH   1  14
ATOM     14  C   UNL     1      43.770   5.151  10.896  0.00  0.00    +0.000 C 
BRANCH  14  15
ATOM     15  C   UNL     1      45.084   5.919  11.044  0.00  0.00    +0.000 C 
BRANCH  15  16
ATOM     16  C   UNL     1      45.818   5.529  12.303  0.00  0.00    +0.000 A 
ATOM     17  C   UNL     1      46.877   6.303  12.789  0.00  0.00    +0.000 A 
ATOM     18  C   UNL     1      47.512   5.945  13.976  0.00  0.00    +0.000 A 
ATOM     19  CA  UNL     1      47.056   4.819  14.644  0.00  0.00    +0.000 A 
ATOM     20  N   UNL     1      46.024   4.035  14.214  0.00  0.00    +0.000 NA
ATOM     21  C   UNL     1      45.434   4.417  13.055  0.00  0.00    +0.000 A 
BRANCH  19  22
ATOM     22  C   UNL     1      47.696   4.399  15.926  0.00  0.00    +0.000 C 
ATOM     23  O   UNL     1      48.306   3.358  16.096  0.00  0.00    +0.000 OA
BRANCH  22  24
ATOM     24  OXT UNL     1      47.503   5.338  16.885  0.00  0.00    +0.000 OA
ATOM     25  HXT UNL     1      47.728   4.939  17.760  0.00  0.00    +0.000 HD
ENDBRANCH  22  24
ENDBRANCH  19  22
ENDBRANCH  15  16
ENDBRANCH  14  15
ENDBRANCH   1  14
TORSDOF 7
ENDMDL
MODEL 2
REMARK VINA RESULT:    -7.975      2.663      6.752
REMARK INTER + INTRA:         -11.591
REMARK INTER:                 -11.051
REMARK INTRA:                  -0.540
REMARK UNBOUND:                -0.586
REMARK  Name = 
REMARK  7 active torsions:
REMARK  status: ('A' for Active; 'I' for Inactive)
REMARK    1  A    between atoms: C_2  and  C_4
REMARK    2  A    between atoms: C_7  and  O_8
REMARK    3  A    between atoms: O_8  and  C_9
REMARK    4  A    between atoms: C_9  and  C_10
REMARK    5  A    between atoms: C_10  and  C_11
REMARK    6  A    between atoms: CA_14  and  C_15
REMARK    7  A    between atoms: C_15  and  OXT_17
REMARK                            x       y       z     vdW  Elec       q    Type
REMARK                         _______ _______ _______ _____ _____    ______ ____
ROOT
ATOM      1  O   UNL     1      43.256   4.787  12.467  0.00  0.00    +0.000 OA
ENDROOT
BRANCH   1   5
ATOM      2  C   UNL     1      47.043   6.140  13.396  0.00  0.00    +0.000 A 
ATOM      3  C   UNL     1      46.118   7.019  12.831  0.00  0.00    +0.000 A 
ATOM      4  C   UNL     1      44.839   6.552  12.509  0.00  0.00    +0.000 A 
ATOM      5  C   UNL     1      44.533   5.226  12.772  0.00  0.00    +0.000 A 
ATOM      6  N   UNL     1      45.413   4.353  13.312  0.00  0.00    +0.000 NA
ATOM      7  C   UNL     1      46.649   4.825  13.599  0.00  0.00    +0.000 A 
BRANCH   2   9
ATOM      8  N   UNL     1      49.320   6.654  12.863  0.00  0.00    +0.000 NA
ATOM      9  C   UNL     1      48.414   6.560  13.778  0.00  0.00    +0.000 C 
ATOM     10  N   UNL     1      48.725   6.819  15.082  0.00  0.00    +0.000 N 
ATOM     11  H   UNL     1      50.199   6.982  13.266  0.00  0.00    +0.000 HD
ATOM     12  H   UNL     1      49.711   6.783  15.309  0.00  0.00    +0.000 HD
ATOM     13  H   UNL     1      48.168   6.331  15.776  0.00  0.00    +0.000 HD
ENDBRANCH   2   9
ENDBRANCH   1   5
BRANCH   1  14
ATOM     14  C   UNL     1      43.262   3.845  11.383  0.00  0.00    +0.000 C 
BRANCH  14  15
ATOM     15  C   UNL     1      43.702   4.536  10.090  0.00  0.00    +0.000 C 
BRANCH  15  16
ATOM     16  C   UNL     1      44.631   3.665   9.282  0.00  0.00    +0.000 A 
ATOM     17  C   UNL     1      45.477   4.217   8.315  0.00  0.00    +0.000 A 
ATOM     18  C   UNL     1      46.356   3.398   7.611  0.00  0.00    +0.000 A 
ATOM     19  CA  UNL     1      46.360   2.044   7.906  0.00  0.00    +0.000 A 
ATOM     20  N   UNL     1      45.559   1.458   8.844  0.00  0.00    +0.000 NA
ATOM     21  C   UNL     1      44.719   2.290   9.507  0.00  0.00    +0.000 A 
BRANCH  19  22
ATOM     22  C   UNL     1      47.291   1.124   7.187  0.00  0.00    +0.000 C 
ATOM     23  O   UNL     1      48.048   1.454   6.291  0.00  0.00    +0.000 OA
BRANCH  22  24
ATOM     24  OXT UNL     1      47.178  -0.140   7.666  0.00  0.00    +0.000 OA
ATOM     25  HXT UNL     1      46.218  -0.356   7.746  0.00  0.00    +0.000 HD
ENDBRANCH  22  24
ENDBRANCH  19  22
ENDBRANCH  15  16
ENDBRANCH  14  15
ENDBRANCH   1  14
TORSDOF 7
ENDMDL
MODEL 3
REMARK VINA RESULT:    -7.934      2.039      2.567
REMARK INTER + INTRA:         -11.534
REMARK INTER:                 -10.705
REMARK INTRA:                  -0.829
REMARK UNBOUND:                -0.586
REMARK  Name = 
REMARK  7 active torsions:
REMARK  status: ('A' for Active; 'I' for Inactive)
REMARK    1  A    between atoms: C_2  and  C_4
REMARK    2  A    between atoms: C_7  and  O_8
REMARK    3  A    between atoms: O_8  and  C_9
REMARK    4  A    between atoms: C_9  and  C_10
REMARK    5  A    between atoms: C_10  and  C_11
REMARK    6  A    between atoms: CA_14  and  C_15
REMARK    7  A    between atoms: C_15  and  OXT_17
REMARK                            x       y       z     vdW  Elec       q    Type
REMARK                         _______ _______ _______ _____ _____    ______ ____
ROOT
ATOM      1  O   UNL     1      43.513   3.559  10.488  0.00  0.00    +0.000 OA
ENDROOT
BRANCH   1   5
ATOM      2  C   UNL     1      46.333   2.733   7.589  0.00  0.00    +0.000 A 
ATOM      3  C   UNL     1      45.893   4.045   7.766  0.00  0.00    +0.000 A 
ATOM      4  C   UNL     1      44.929   4.318   8.743  0.00  0.00    +0.000 A 
ATOM      5  C   UNL     1      44.450   3.268   9.511  0.00  0.00    +0.000 A 
ATOM      6  N   UNL     1      44.855   1.987   9.356  0.00  0.00    +0.000 NA
ATOM      7  C   UNL     1      45.775   1.748   8.392  0.00  0.00    +0.000 A 
BRANCH   2   9
ATOM      8  N   UNL     1      48.209   1.432   6.869  0.00  0.00    +0.000 NA
ATOM      9  C   UNL     1      47.361   2.363   6.584  0.00  0.00    +0.000 C 
ATOM     10  N   UNL     1      47.428   3.013   5.386  0.00  0.00    +0.000 N 
ATOM     11  H   UNL     1      48.831   1.265   6.075  0.00  0.00    +0.000 HD
ATOM     12  H   UNL     1      48.315   2.941   4.902  0.00  0.00    +0.000 HD
ATOM     13  H   UNL     1      47.079   3.966   5.378  0.00  0.00    +0.000 HD
ENDBRANCH   2   9
ENDBRANCH   1   5
BRANCH   1  14
ATOM     14  C   UNL     1      43.917   3.068  11.776  0.00  0.00    +0.000 C 
BRANCH  14  15
ATOM     15  C   UNL     1      43.978   4.220  12.781  0.00  0.00    +0.000 C 
BRANCH  15  16
ATOM     16  C   UNL     1      45.309   4.929  12.734  0.00  0.00    +0.000 A 
ATOM     17  C   UNL     1      45.505   6.039  11.906  0.00  0.00    +0.000 A 
ATOM     18  C   UNL     1      46.730   6.702  11.912  0.00  0.00    +0.000 A 
ATOM     19  CA  UNL     1      47.721   6.230  12.758  0.00  0.00    +0.000 A 
ATOM     20  N   UNL     1      47.577   5.156  13.588  0.00  0.00    +0.000 NA
ATOM     21  C   UNL     1      46.370   4.539  13.552  0.00  0.00    +0.000 A 
BRANCH  19  22
ATOM     22  C   UNL     1      49.049   6.912  12.809  0.00  0.00    +0.000 C 
ATOM     23  O   UNL     1      49.544   7.549  11.897  0.00  0.00    +0.000 OA
BRANCH  22  24
ATOM     24  OXT UNL     1      49.636   6.723  14.017  0.00  0.00    +0.000 OA
ATOM     25  HXT UNL     1      50.609   6.630  13.878  0.00  0.00    +0.000 HD
ENDBRANCH  22  24
ENDBRANCH  19  22
ENDBRANCH  15  16
ENDBRANCH  14  15
ENDBRANCH   1  14
TORSDOF 7
ENDMDL
MODEL 4
REMARK VINA RESULT:    -7.314      2.571      7.218
REMARK INTER + INTRA:         -10.679
REMARK INTER:                 -10.174
REMARK INTRA:                  -0.505
REMARK UNBOUND:                -0.586
REMARK  Name = 
REMARK  7 active torsions:
REMARK  status: ('A' for Active; 'I' for Inactive)
REMARK    1  A    between atoms: C_2  and  C_4
REMARK    2  A    between atoms: C_7  and  O_8
REMARK    3  A    between atoms: O_8  and  C_9
REMARK    4  A    between atoms: C_9  and  C_10
REMARK    5  A    between atoms: C_10  and  C_11
REMARK    6  A    between atoms: CA_14  and  C_15
REMARK    7  A    between atoms: C_15  and  OXT_17
REMARK                            x       y       z     vdW  Elec       q    Type
REMARK                         _______ _______ _______ _____ _____    ______ ____
ROOT
ATOM      1  O   UNL     1      45.457   5.646  11.513  0.00  0.00    +0.000 OA
ENDROOT
BRANCH   1   5
ATOM      2  C   UNL     1      47.613   5.210  15.005  0.00  0.00    +0.000 A 
ATOM      3  C   UNL     1      47.915   6.260  14.136  0.00  0.00    +0.000 A 
ATOM      4  C   UNL     1      47.188   6.396  12.949  0.00  0.00    +0.000 A 
ATOM      5  C   UNL     1      46.180   5.482  12.681  0.00  0.00    +0.000 A 
ATOM      6  N   UNL     1      45.872   4.454  13.503  0.00  0.00    +0.000 NA
ATOM      7  C   UNL     1      46.602   4.333  14.637  0.00  0.00    +0.000 A 
BRANCH   2   9
ATOM      8  N   UNL     1      49.486   5.550  16.457  0.00  0.00    +0.000 NA
ATOM      9  C   UNL     1      48.328   5.004  16.289  0.00  0.00    +0.000 C 
ATOM     10  N   UNL     1      47.785   4.227  17.271  0.00  0.00    +0.000 N 
ATOM     11  H   UNL     1      49.840   5.349  17.395  0.00  0.00    +0.000 HD
ATOM     12  H   UNL     1      48.440   3.875  17.959  0.00  0.00    +0.000 HD
ATOM     13  H   UNL     1      47.150   3.499  16.961  0.00  0.00    +0.000 HD
ENDBRANCH   2   9
ENDBRANCH   1   5
BRANCH   1  14
ATOM     14  C   UNL     1      44.304   4.790  11.476  0.00  0.00    +0.000 C 
BRANCH  14  15
ATOM     15  C   UNL     1      43.813   4.632  10.036  0.00  0.00    +0.000 C 
BRANCH  15  16
ATOM     16  C   UNL     1      44.699   3.701   9.246  0.00  0.00    +0.000 A 
ATOM     17  C   UNL     1      45.616   4.196   8.314  0.00  0.00    +0.000 A 
ATOM     18  C   UNL     1      46.451   3.319   7.626  0.00  0.00    +0.000 A 
ATOM     19  CA  UNL     1      46.341   1.966   7.903  0.00  0.00    +0.000 A 
ATOM     20  N   UNL     1      45.467   1.433   8.807  0.00  0.00    +0.000 NA
ATOM     21  C   UNL     1      44.672   2.320   9.454  0.00  0.00    +0.000 A 
BRANCH  19  22
ATOM     22  C   UNL     1      47.221   0.984   7.200  0.00  0.00    +0.000 C 
ATOM     23  O   UNL     1      48.005   1.260   6.310  0.00  0.00    +0.000 OA
BRANCH  22  24
ATOM     24  OXT UNL     1      47.027  -0.266   7.689  0.00  0.00    +0.000 OA
ATOM     25  HXT UNL     1      47.716  -0.859   7.305  0.00  0.00    +0.000 HD
ENDBRANCH  22  24
ENDBRANCH  19  22
ENDBRANCH  15  16
ENDBRANCH  14  15
ENDBRANCH   1  14
TORSDOF 7
ENDMDL
MODEL 5
REMARK VINA RESULT:    -7.147      2.941      6.833
REMARK INTER + INTRA:         -10.449
REMARK INTER:                  -9.912
REMARK INTRA:                  -0.537
REMARK UNBOUND:                -0.586
REMARK  Name = 
REMARK  7 active torsions:
REMARK  status: ('A' for Active; 'I' for Inactive)
REMARK    1  A    between atoms: C_2  and  C_4
REMARK    2  A    between atoms: C_7  and  O_8
REMARK    3  A    between atoms: O_8  and  C_9
REMARK    4  A    between atoms: C_9  and  C_10
REMARK    5  A    between atoms: C_10  and  C_11
REMARK    6  A    between atoms: CA_14  and  C_15
REMARK    7  A    between atoms: C_15  and  OXT_17
REMARK                            x       y       z     vdW  Elec       q    Type
REMARK                         _______ _______ _______ _____ _____    ______ ____
ROOT
ATOM      1  O   UNL     1      44.085   4.722  12.810  0.00  0.00    +0.000 OA
ENDROOT
BRANCH   1   5
ATOM      2  C   UNL     1      47.724   6.668  12.719  0.00  0.00    +0.000 A 
ATOM      3  C   UNL     1      47.490   5.692  13.689  0.00  0.00    +0.000 A 
ATOM      4  C   UNL     1      46.251   5.043  13.721  0.00  0.00    +0.000 A 
ATOM      5  C   UNL     1      45.297   5.390  12.776  0.00  0.00    +0.000 A 
ATOM      6  N   UNL     1      45.497   6.336  11.831  0.00  0.00    +0.000 NA
ATOM      7  C   UNL     1      46.698   6.961  11.832  0.00  0.00    +0.000 A 
BRANCH   2   9
ATOM      8  N   UNL     1      49.931   7.180  13.494  0.00  0.00    +0.000 NA
ATOM      9  C   UNL     1      49.015   7.393  12.609  0.00  0.00    +0.000 C 
ATOM     10  N   UNL     1      49.225   8.292  11.604  0.00  0.00    +0.000 N 
ATOM     11  H   UNL     1      50.770   7.720  13.273  0.00  0.00    +0.000 HD
ATOM     12  H   UNL     1      49.966   8.962  11.768  0.00  0.00    +0.000 HD
ATOM     13  H   UNL     1      48.396   8.743  11.231  0.00  0.00    +0.000 HD
ENDBRANCH   2   9
ENDBRANCH   1   5
BRANCH   1  14
ATOM     14  C   UNL     1      44.095   3.561  11.965  0.00  0.00    +0.000 C 
BRANCH  14  15
ATOM     15  C   UNL     1      43.639   3.935  10.554  0.00  0.00    +0.000 C 
BRANCH  15  16
ATOM     16  C   UNL     1      44.634   3.490   9.511  0.00  0.00    +0.000 A 
ATOM     17  C   UNL     1      44.976   2.141   9.371  0.00  0.00    +0.000 A 
ATOM     18  C   UNL     1      45.867   1.750   8.373  0.00  0.00    +0.000 A 
ATOM     19  CA  UNL     1      46.382   2.732   7.541  0.00  0.00    +0.000 A 
ATOM     20  N   UNL     1      46.076   4.059   7.635  0.00  0.00    +0.000 NA
ATOM     21  C   UNL     1      45.207   4.397   8.618  0.00  0.00    +0.000 A 
BRANCH  19  22
ATOM     22  C   UNL     1      47.333   2.363   6.450  0.00  0.00    +0.000 C 
ATOM     23  O   UNL     1      47.276   2.772   5.304  0.00  0.00    +0.000 OA
BRANCH  22  24
ATOM     24  OXT UNL     1      48.275   1.503   6.909  0.00  0.00    +0.000 OA
ATOM     25  HXT UNL     1      47.860   0.922   7.590  0.00  0.00    +0.000 HD
ENDBRANCH  22  24
ENDBRANCH  19  22
ENDBRANCH  15  16
ENDBRANCH  14  15
ENDBRANCH   1  14
TORSDOF 7
ENDMDL
MODEL 6
REMARK VINA RESULT:    -6.687      3.856      6.361
REMARK INTER + INTRA:          -9.813
REMARK INTER:                  -9.414
REMARK INTRA:                  -0.399
REMARK UNBOUND:                -0.586
REMARK  Name = 
REMARK  7 active torsions:
REMARK  status: ('A' for Active; 'I' for Inactive)
REMARK    1  A    between atoms: C_2  and  C_4
REMARK    2  A    between atoms: C_7  and  O_8
REMARK    3  A    between atoms: O_8  and  C_9
REMARK    4  A    between atoms: C_9  and  C_10
REMARK    5  A    between atoms: C_10  and  C_11
REMARK    6  A    between atoms: CA_14  and  C_15
REMARK    7  A    between atoms: C_15  and  OXT_17
REMARK                            x       y       z     vdW  Elec       q    Type
REMARK                         _______ _______ _______ _____ _____    ______ ____
ROOT
ATOM      1  O   UNL     1      47.671   4.824  14.721  0.00  0.00    +0.000 OA
ENDROOT
BRANCH   1   5
ATOM      2  C   UNL     1      44.468   5.439  12.191  0.00  0.00    +0.000 A 
ATOM      3  C   UNL     1      45.417   6.449  12.357  0.00  0.00    +0.000 A 
ATOM      4  C   UNL     1      46.495   6.239  13.224  0.00  0.00    +0.000 A 
ATOM      5  C   UNL     1      46.586   5.023  13.884  0.00  0.00    +0.000 A 
ATOM      6  N   UNL     1      45.677   4.032  13.745  0.00  0.00    +0.000 NA
ATOM      7  C   UNL     1      44.634   4.267  12.914  0.00  0.00    +0.000 A 
BRANCH   2   9
ATOM      8  N   UNL     1      43.402   5.151  10.067  0.00  0.00    +0.000 NA
ATOM      9  C   UNL     1      43.304   5.579  11.281  0.00  0.00    +0.000 C 
ATOM     10  N   UNL     1      42.153   6.174  11.710  0.00  0.00    +0.000 N 
ATOM     11  H   UNL     1      42.518   5.283   9.572  0.00  0.00    +0.000 HD
ATOM     12  H   UNL     1      41.542   6.517  10.978  0.00  0.00    +0.000 HD
ATOM     13  H   UNL     1      42.256   6.856  12.454  0.00  0.00    +0.000 HD
ENDBRANCH   2   9
ENDBRANCH   1   5
BRANCH   1  14
ATOM     14  C   UNL     1      47.268   4.315  16.002  0.00  0.00    +0.000 C 
BRANCH  14  15
ATOM     15  C   UNL     1      48.255   4.767  17.079  0.00  0.00    +0.000 C 
BRANCH  15  16
ATOM     16  C   UNL     1      49.410   3.807  17.215  0.00  0.00    +0.000 A 
ATOM     17  C   UNL     1      50.636   4.225  17.742  0.00  0.00    +0.000 A 
ATOM     18  C   UNL     1      51.675   3.310  17.895  0.00  0.00    +0.000 A 
ATOM     19  CA  UNL     1      51.445   1.996  17.518  0.00  0.00    +0.000 A 
ATOM     20  N   UNL     1      50.266   1.538  17.004  0.00  0.00    +0.000 NA
ATOM     21  C   UNL     1      49.281   2.460  16.871  0.00  0.00    +0.000 A 
BRANCH  19  22
ATOM     22  C   UNL     1      52.523   0.974  17.672  0.00  0.00    +0.000 C 
ATOM     23  O   UNL     1      53.658   1.083  17.242  0.00  0.00    +0.000 OA
BRANCH  22  24
ATOM     24  OXT UNL     1      52.065  -0.102  18.358  0.00  0.00    +0.000 OA
ATOM     25  HXT UNL     1      51.104  -0.211  18.159  0.00  0.00    +0.000 HD
ENDBRANCH  22  24
ENDBRANCH  19  22
ENDBRANCH  15  16
ENDBRANCH  14  15
ENDBRANCH   1  14
TORSDOF 7
ENDMDL
MODEL 7
REMARK VINA RESULT:    -6.685      2.712      3.788
REMARK INTER + INTRA:          -9.811
REMARK INTER:                  -9.201
REMARK INTRA:                  -0.610
REMARK UNBOUND:                -0.586
REMARK  Name = 
REMARK  7 active torsions:
REMARK  status: ('A' for Active; 'I' for Inactive)
REMARK    1  A    between atoms: C_2  and  C_4
REMARK    2  A    between atoms: C_7  and  O_8
REMARK    3  A    between atoms: O_8  and  C_9
REMARK    4  A    between atoms: C_9  and  C_10
REMARK    5  A    between atoms: C_10  and  C_11
REMARK    6  A    between atoms: CA_14  and  C_15
REMARK    7  A    between atoms: C_15  and  OXT_17
REMARK                            x       y       z     vdW  Elec       q    Type
REMARK                         _______ _______ _______ _____ _____    ______ ____
ROOT
ATOM      1  O   UNL     1      45.654   8.006  11.985  0.00  0.00    +0.000 OA
ENDROOT
BRANCH   1   5
ATOM      2  C   UNL     1      44.377   4.188  11.078  0.00  0.00    +0.000 A 
ATOM      3  C   UNL     1      45.384   4.777  10.311  0.00  0.00    +0.000 A 
ATOM      4  C   UNL     1      45.805   6.075  10.617  0.00  0.00    +0.000 A 
ATOM      5  C   UNL     1      45.209   6.731  11.683  0.00  0.00    +0.000 A 
ATOM      6  N   UNL     1      44.228   6.185  12.437  0.00  0.00    +0.000 NA
ATOM      7  C   UNL     1      43.827   4.934  12.110  0.00  0.00    +0.000 A 
BRANCH   2   9
ATOM      8  N   UNL     1      43.059   2.277  11.666  0.00  0.00    +0.000 NA
ATOM      9  C   UNL     1      43.884   2.810  10.827  0.00  0.00    +0.000 C 
ATOM     10  N   UNL     1      44.314   2.104   9.742  0.00  0.00    +0.000 N 
ATOM     11  H   UNL     1      42.782   1.346  11.348  0.00  0.00    +0.000 HD
ATOM     12  H   UNL     1      44.199   1.099   9.803  0.00  0.00    +0.000 HD
ATOM     13  H   UNL     1      45.233   2.349   9.388  0.00  0.00    +0.000 HD
ENDBRANCH   2   9
ENDBRANCH   1   5
BRANCH   1  14
ATOM     14  C   UNL     1      46.376   8.039  13.226  0.00  0.00    +0.000 C 
BRANCH  14  15
ATOM     15  C   UNL     1      47.629   7.167  13.126  0.00  0.00    +0.000 C 
BRANCH  15  16
ATOM     16  C   UNL     1      47.705   6.171  14.256  0.00  0.00    +0.000 A 
ATOM     17  C   UNL     1      48.460   6.439  15.403  0.00  0.00    +0.000 A 
ATOM     18  C   UNL     1      48.482   5.521  16.451  0.00  0.00    +0.000 A 
ATOM     19  CA  UNL     1      47.736   4.361  16.314  0.00  0.00    +0.000 A 
ATOM     20  N   UNL     1      46.979   4.057  15.219  0.00  0.00    +0.000 NA
ATOM     21  C   UNL     1      46.985   4.975  14.223  0.00  0.00    +0.000 A 
BRANCH  19  22
ATOM     22  C   UNL     1      47.717   3.350  17.414  0.00  0.00    +0.000 C 
ATOM     23  O   UNL     1      48.695   2.974  18.036  0.00  0.00    +0.000 OA
BRANCH  22  24
ATOM     24  OXT UNL     1      46.455   2.901  17.627  0.00  0.00    +0.000 OA
ATOM     25  HXT UNL     1      46.494   2.167  18.286  0.00  0.00    +0.000 HD
ENDBRANCH  22  24
ENDBRANCH  19  22
ENDBRANCH  15  16
ENDBRANCH  14  15
ENDBRANCH   1  14
TORSDOF 7
ENDMDL
MODEL 8
REMARK VINA RESULT:    -6.464      3.934      7.437
REMARK INTER + INTRA:          -9.506
REMARK INTER:                  -8.915
REMARK INTRA:                  -0.591
REMARK UNBOUND:                -0.586
REMARK  Name = 
REMARK  7 active torsions:
REMARK  status: ('A' for Active; 'I' for Inactive)
REMARK    1  A    between atoms: C_2  and  C_4
REMARK    2  A    between atoms: C_7  and  O_8
REMARK    3  A    between atoms: O_8  and  C_9
REMARK    4  A    between atoms: C_9  and  C_10
REMARK    5  A    between atoms: C_10  and  C_11
REMARK    6  A    between atoms: CA_14  and  C_15
REMARK    7  A    between atoms: C_15  and  OXT_17
REMARK                            x       y       z     vdW  Elec       q    Type
REMARK                         _______ _______ _______ _____ _____    ______ ____
ROOT
ATOM      1  O   UNL     1      48.877   7.446  14.200  0.00  0.00    +0.000 OA
ENDROOT
BRANCH   1   5
ATOM      2  C   UNL     1      48.053   4.553  17.026  0.00  0.00    +0.000 A 
ATOM      3  C   UNL     1      48.860   5.639  17.369  0.00  0.00    +0.000 A 
ATOM      4  C   UNL     1      49.144   6.611  16.404  0.00  0.00    +0.000 A 
ATOM      5  C   UNL     1      48.603   6.463  15.136  0.00  0.00    +0.000 A 
ATOM      6  N   UNL     1      47.824   5.418  14.777  0.00  0.00    +0.000 NA
ATOM      7  C   UNL     1      47.578   4.482  15.724  0.00  0.00    +0.000 A 
BRANCH   2   9
ATOM      8  N   UNL     1      46.677   2.730  17.746  0.00  0.00    +0.000 NA
ATOM      9  C   UNL     1      47.694   3.487  17.995  0.00  0.00    +0.000 C 
ATOM     10  N   UNL     1      48.409   3.322  19.145  0.00  0.00    +0.000 N 
ATOM     11  H   UNL     1      46.572   2.026  18.479  0.00  0.00    +0.000 HD
ATOM     12  H   UNL     1      47.934   2.816  19.883  0.00  0.00    +0.000 HD
ATOM     13  H   UNL     1      48.869   4.152  19.504  0.00  0.00    +0.000 HD
ENDBRANCH   2   9
ENDBRANCH   1   5
BRANCH   1  14
ATOM     14  C   UNL     1      48.796   6.941  12.858  0.00  0.00    +0.000 C 
BRANCH  14  15
ATOM     15  C   UNL     1      47.757   7.732  12.062  0.00  0.00    +0.000 C 
BRANCH  15  16
ATOM     16  C   UNL     1      46.493   6.937  11.852  0.00  0.00    +0.000 A 
ATOM     17  C   UNL     1      46.333   6.123  10.726  0.00  0.00    +0.000 A 
ATOM     18  C   UNL     1      45.173   5.366  10.574  0.00  0.00    +0.000 A 
ATOM     19  CA  UNL     1      44.210   5.447  11.567  0.00  0.00    +0.000 A 
ATOM     20  N   UNL     1      44.321   6.222  12.686  0.00  0.00    +0.000 NA
ATOM     21  C   UNL     1      45.464   6.942  12.795  0.00  0.00    +0.000 A 
BRANCH  19  22
ATOM     22  C   UNL     1      42.953   4.648  11.457  0.00  0.00    +0.000 C 
ATOM     23  O   UNL     1      42.902   3.439  11.321  0.00  0.00    +0.000 OA
BRANCH  22  24
ATOM     24  OXT UNL     1      41.866   5.456  11.528  0.00  0.00    +0.000 OA
ATOM     25  HXT UNL     1      41.220   5.168  10.839  0.00  0.00    +0.000 HD
ENDBRANCH  22  24
ENDBRANCH  19  22
ENDBRANCH  15  16
ENDBRANCH  14  15
ENDBRANCH   1  14
TORSDOF 7
ENDMDL
MODEL 9
REMARK VINA RESULT:    -5.861      3.724      7.765
REMARK INTER + INTRA:          -8.674
REMARK INTER:                  -8.038
REMARK INTRA:                  -0.636
REMARK UNBOUND:                -0.586
REMARK  Name = 
REMARK  7 active torsions:
REMARK  status: ('A' for Active; 'I' for Inactive)
REMARK    1  A    between atoms: C_2  and  C_4
REMARK    2  A    between atoms: C_7  and  O_8
REMARK    3  A    between atoms: O_8  and  C_9
REMARK    4  A    between atoms: C_9  and  C_10
REMARK    5  A    between atoms: C_10  and  C_11
REMARK    6  A    between atoms: CA_14  and  C_15
REMARK    7  A    between atoms: C_15  and  OXT_17
REMARK                            x       y       z     vdW  Elec       q    Type
REMARK                         _______ _______ _______ _____ _____    ______ ____
ROOT
ATOM      1  O   UNL     1      47.755   5.404  16.274  0.00  0.00    +0.000 OA
ENDROOT
BRANCH   1   5
ATOM      2  C   UNL     1      50.707   2.758  17.419  0.00  0.00    +0.000 A 
ATOM      3  C   UNL     1      49.455   2.270  17.042  0.00  0.00    +0.000 A 
ATOM      4  C   UNL     1      48.455   3.173  16.665  0.00  0.00    +0.000 A 
ATOM      5  C   UNL     1      48.750   4.528  16.671  0.00  0.00    +0.000 A 
ATOM      6  N   UNL     1      49.952   5.026  17.038  0.00  0.00    +0.000 NA
ATOM      7  C   UNL     1      50.897   4.132  17.416  0.00  0.00    +0.000 A 
BRANCH   2   9
ATOM      8  N   UNL     1      52.700   2.299  18.665  0.00  0.00    +0.000 NA
ATOM      9  C   UNL     1      51.825   1.867  17.820  0.00  0.00    +0.000 C 
ATOM     10  N   UNL     1      51.944   0.617  17.286  0.00  0.00    +0.000 N 
ATOM     11  H   UNL     1      53.386   1.570  18.870  0.00  0.00    +0.000 HD
ATOM     12  H   UNL     1      52.867   0.203  17.349  0.00  0.00    +0.000 HD
ATOM     13  H   UNL     1      51.545   0.489  16.361  0.00  0.00    +0.000 HD
ENDBRANCH   2   9
ENDBRANCH   1   5
BRANCH   1  14
ATOM     14  C   UNL     1      48.257   6.407  15.376  0.00  0.00    +0.000 C 
BRANCH  14  15
ATOM     15  C   UNL     1      48.307   5.856  13.950  0.00  0.00    +0.000 C 
BRANCH  15  16
ATOM     16  C   UNL     1      46.943   5.430  13.469  0.00  0.00    +0.000 A 
ATOM     17  C   UNL     1      46.021   6.368  12.992  0.00  0.00    +0.000 A 
ATOM     18  C   UNL     1      44.783   5.945  12.516  0.00  0.00    +0.000 A 
ATOM     19  CA  UNL     1      44.511   4.587  12.528  0.00  0.00    +0.000 A 
ATOM     20  N   UNL     1      45.378   3.632  12.977  0.00  0.00    +0.000 NA
ATOM     21  C   UNL     1      46.571   4.085  13.433  0.00  0.00    +0.000 A 
BRANCH  19  22
ATOM     22  C   UNL     1      43.201   4.081  12.018  0.00  0.00    +0.000 C 
ATOM     23  O   UNL     1      43.037   3.022  11.439  0.00  0.00    +0.000 OA
BRANCH  22  24
ATOM     24  OXT UNL     1      42.211   4.968  12.285  0.00  0.00    +0.000 OA
ATOM     25  HXT UNL     1      41.891   5.343  11.430  0.00  0.00    +0.000 HD
ENDBRANCH  22  24
ENDBRANCH  19  22
ENDBRANCH  15  16
ENDBRANCH  14  15
ENDBRANCH   1  14
TORSDOF 7
ENDMDL
