MODEL 1
REMARK VINA RESULT:    -7.801      0.000      0.000
REMARK INTER + INTRA:         -10.991
REMARK INTER:                 -10.309
REMARK INTRA:                  -0.682
REMARK UNBOUND:                -0.682
REMARK  Name = 
REMARK  6 active torsions:
REMARK  status: ('A' for Active; 'I' for Inactive)
REMARK    1  A    between atoms: C_2  and  C_5
REMARK    2  A    between atoms: N_3  and  O_4
REMARK    3  A    between atoms: C_9  and  N_10
REMARK    4  A    between atoms: N_10  and  C_11
REMARK    5  A    between atoms: C_11  and  C_12
REMARK    6  A    between atoms: C_12  and  C_13
REMARK                            x       y       z     vdW  Elec       q    Type
REMARK                         _______ _______ _______ _____ _____    ______ ____
ROOT
ATOM      1  C   UNL     1      46.364   2.724   7.835  0.00  0.00    +0.000 A 
ATOM      2  C   UNL     1      46.350   4.097   7.652  0.00  0.00    +0.000 A 
ATOM      3  N   UNL     1      45.665   4.943   8.460  0.00  0.00    +0.000 NA
ATOM      4  C   UNL     1      44.974   4.375   9.479  0.00  0.00    +0.000 A 
ATOM      5  C   UNL     1      44.938   3.011   9.779  0.00  0.00    +0.000 A 
ATOM      6  C   UNL     1      45.650   2.181   8.914  0.00  0.00    +0.000 A 
ENDROOT
BRANCH   1   8
ATOM      7  O   UNL     1      47.104   0.645   6.990  0.00  0.00    +0.000 OA
ATOM      8  C   UNL     1      47.131   1.864   6.906  0.00  0.00    +0.000 C 
ATOM      9  N   UNL     1      47.878   2.530   5.957  0.00  0.00    +0.000 N 
ATOM     10  H   UNL     1      48.219   3.476   6.097  0.00  0.00    +0.000 HD
BRANCH   9  11
ATOM     11  O   UNL     1      48.653   1.706   5.108  0.00  0.00    +0.000 OA
ATOM     12  H   UNL     1      48.022   1.504   4.383  0.00  0.00    +0.000 HD
ENDBRANCH   9  11
ENDBRANCH   1   8
BRANCH   5  13
ATOM     13  N   UNL     1      44.101   2.526  10.799  0.00  0.00    +0.000 N 
ATOM     14  H   UNL     1      43.680   1.633  10.548  0.00  0.00    +0.000 HD
BRANCH  13  15
ATOM     15  C   UNL     1      43.129   3.446  11.405  0.00  0.00    +0.000 C 
BRANCH  15  16
ATOM     16  C   UNL     1      43.456   3.666  12.889  0.00  0.00    +0.000 C 
BRANCH  16  17
ATOM     17  C   UNL     1      44.720   4.471  13.077  0.00  0.00    +0.000 A 
ATOM     18  C   UNL     1      44.716   5.848  12.868  0.00  0.00    +0.000 A 
ATOM     19  C   UNL     1      45.902   6.558  13.044  0.00  0.00    +0.000 A 
ATOM     20  C   UNL     1      47.058   5.878  13.406  0.00  0.00    +0.000 A 
ATOM     21  C   UNL     1      46.982   4.508  13.569  0.00  0.00    +0.000 A 
ATOM     22  N   UNL     1      45.846   3.795  13.405  0.00  0.00    +0.000 NA
ENDBRANCH  16  17
ENDBRANCH  15  16
ENDBRANCH  13  15
ENDBRANCH   5  13
TORSDOF 6
ENDMDL
MODEL 2
REMARK VINA RESULT:    -7.580      3.340      6.365
REMARK INTER + INTRA:         -10.698
REMARK INTER:                 -10.218
REMARK INTRA:                  -0.480
REMARK UNBOUND:                -0.682
REMARK  Name = 
REMARK  6 active torsions:
REMARK  status: ('A' for Active; 'I' for Inactive)
REMARK    1  A    between atoms: C_2  and  C_5
REMARK    2  A    between atoms: N_3  and  O_4
REMARK    3  A    between atoms: C_9  and  N_10
REMARK    4  A    between atoms: N_10  and  C_11
REMARK    5  A    between atoms: C_11  and  C_12
REMARK    6  A    between atoms: C_12  and  C_13
REMARK                            x       y       z     vdW  Elec       q    Type
REMARK                         _______ _______ _______ _____ _____    ______ ____
ROOT
ATOM      1  C   UNL     1      46.439   4.771  13.253  0.00  0.00    +0.000 A 
ATOM      2  C   UNL     1      47.190   5.873  12.878  0.00  0.00    +0.000 A 
ATOM      3  N   UNL     1      46.880   6.651  11.813  0.00  0.00    +0.000 NA
ATOM      4  C   UNL     1      45.776   6.296  11.109  0.00  0.00    +0.000 A 
ATOM      5  C   UNL     1      44.928   5.227  11.408  0.00  0.00    +0.000 A 
ATOM      6  C   UNL     1      45.294   4.451  12.507  0.00  0.00    +0.000 A 
ENDROOT
BRANCH   1   8
ATOM      7  O   UNL     1      47.520   2.954  14.306  0.00  0.00    +0.000 OA
ATOM      8  C   UNL     1      46.845   3.966  14.426  0.00  0.00    +0.000 C 
ATOM      9  N   UNL     1      46.403   4.427  15.649  0.00  0.00    +0.000 N 
ATOM     10  H   UNL     1      45.568   4.995  15.747  0.00  0.00    +0.000 HD
BRANCH   9  11
ATOM     11  O   UNL     1      46.748   3.624  16.760  0.00  0.00    +0.000 OA
ATOM     12  H   UNL     1      47.461   4.150  17.183  0.00  0.00    +0.000 HD
ENDBRANCH   9  11
ENDBRANCH   1   8
BRANCH   5  13
ATOM     13  N   UNL     1      43.871   4.891  10.545  0.00  0.00    +0.000 N 
ATOM     14  H   UNL     1      43.141   4.371  11.027  0.00  0.00    +0.000 HD
BRANCH  13  15
ATOM     15  C   UNL     1      44.195   4.307   9.235  0.00  0.00    +0.000 C 
BRANCH  15  16
ATOM     16  C   UNL     1      44.590   2.831   9.392  0.00  0.00    +0.000 C 
BRANCH  16  17
ATOM     17  C   UNL     1      45.660   2.425   8.409  0.00  0.00    +0.000 A 
ATOM     18  C   UNL     1      46.195   3.357   7.523  0.00  0.00    +0.000 A 
ATOM     19  C   UNL     1      47.177   2.946   6.625  0.00  0.00    +0.000 A 
ATOM     20  C   UNL     1      47.586   1.618   6.622  0.00  0.00    +0.000 A 
ATOM     21  C   UNL     1      46.987   0.750   7.515  0.00  0.00    +0.000 A 
ATOM     22  N   UNL     1      46.033   1.123   8.396  0.00  0.00    +0.000 NA
ENDBRANCH  16  17
ENDBRANCH  15  16
ENDBRANCH  13  15
ENDBRANCH   5  13
TORSDOF 6
ENDMDL
MODEL 3
REMARK VINA RESULT:    -7.360      1.461      2.098
REMARK INTER + INTRA:         -10.408
REMARK INTER:                  -9.729
REMARK INTRA:                  -0.679
REMARK UNBOUND:                -0.682
REMARK  Name = 
REMARK  6 active torsions:
REMARK  status: ('A' for Active; 'I' for Inactive)
REMARK    1  A    between atoms: C_2  and  C_5
REMARK    2  A    between atoms: N_3  and  O_4
REMARK    3  A    between atoms: C_9  and  N_10
REMARK    4  A    between atoms: N_10  and  C_11
REMARK    5  A    between atoms: C_11  and  C_12
REMARK    6  A    between atoms: C_12  and  C_13
REMARK                            x       y       z     vdW  Elec       q    Type
REMARK                         _______ _______ _______ _____ _____    ______ ____
ROOT
ATOM      1  C   UNL     1      45.924   2.946   7.964  0.00  0.00    +0.000 A 
ATOM      2  C   UNL     1      45.421   1.764   8.483  0.00  0.00    +0.000 A 
ATOM      3  N   UNL     1      44.570   1.722   9.537  0.00  0.00    +0.000 NA
ATOM      4  C   UNL     1      44.223   2.916  10.078  0.00  0.00    +0.000 A 
ATOM      5  C   UNL     1      44.641   4.169   9.624  0.00  0.00    +0.000 A 
ATOM      6  C   UNL     1      45.524   4.160   8.544  0.00  0.00    +0.000 A 
ENDROOT
BRANCH   1   8
ATOM      7  O   UNL     1      46.778   3.718   5.901  0.00  0.00    +0.000 OA
ATOM      8  C   UNL     1      46.856   2.911   6.816  0.00  0.00    +0.000 C 
ATOM      9  N   UNL     1      47.801   1.906   6.845  0.00  0.00    +0.000 N 
ATOM     10  H   UNL     1      47.656   1.036   7.347  0.00  0.00    +0.000 HD
BRANCH   9  11
ATOM     11  O   UNL     1      48.652   1.842   5.718  0.00  0.00    +0.000 OA
ATOM     12  H   UNL     1      49.231   2.624   5.851  0.00  0.00    +0.000 HD
ENDBRANCH   9  11
ENDBRANCH   1   8
BRANCH   5  13
ATOM     13  N   UNL     1      44.299   5.335  10.330  0.00  0.00    +0.000 N 
ATOM     14  H   UNL     1      45.085   5.692  10.871  0.00  0.00    +0.000 HD
BRANCH  13  15
ATOM     15  C   UNL     1      43.047   5.347  11.099  0.00  0.00    +0.000 C 
BRANCH  15  16
ATOM     16  C   UNL     1      43.345   5.362  12.606  0.00  0.00    +0.000 C 
BRANCH  16  17
ATOM     17  C   UNL     1      44.797   5.658  12.891  0.00  0.00    +0.000 A 
ATOM     18  C   UNL     1      45.626   4.674  13.424  0.00  0.00    +0.000 A 
ATOM     19  C   UNL     1      46.961   4.984  13.680  0.00  0.00    +0.000 A 
ATOM     20  C   UNL     1      47.426   6.266  13.416  0.00  0.00    +0.000 A 
ATOM     21  C   UNL     1      46.533   7.192  12.912  0.00  0.00    +0.000 A 
ATOM     22  N   UNL     1      45.235   6.917  12.654  0.00  0.00    +0.000 NA
ENDBRANCH  16  17
ENDBRANCH  15  16
ENDBRANCH  13  15
ENDBRANCH   5  13
TORSDOF 6
ENDMDL
MODEL 4
REMARK VINA RESULT:    -6.808      3.648      6.702
REMARK INTER + INTRA:          -9.679
REMARK INTER:                  -9.175
REMARK INTRA:                  -0.504
REMARK UNBOUND:                -0.682
REMARK  Name = 
REMARK  6 active torsions:
REMARK  status: ('A' for Active; 'I' for Inactive)
REMARK    1  A    between atoms: C_2  and  C_5
REMARK    2  A    between atoms: N_3  and  O_4
REMARK    3  A    between atoms: C_9  and  N_10
REMARK    4  A    between atoms: N_10  and  C_11
REMARK    5  A    between atoms: C_11  and  C_12
REMARK    6  A    between atoms: C_12  and  C_13
REMARK                            x       y       z     vdW  Elec       q    Type
REMARK                         _______ _______ _______ _____ _____    ______ ____
ROOT
ATOM      1  C   UNL     1      46.543   5.713  13.176  0.00  0.00    +0.000 A 
ATOM      2  C   UNL     1      47.028   4.575  13.801  0.00  0.00    +0.000 A 
ATOM      3  N   UNL     1      46.556   3.331  13.543  0.00  0.00    +0.000 NA
ATOM      4  C   UNL     1      45.563   3.243  12.624  0.00  0.00    +0.000 A 
ATOM      5  C   UNL     1      45.016   4.313  11.910  0.00  0.00    +0.000 A 
ATOM      6  C   UNL     1      45.528   5.573  12.218  0.00  0.00    +0.000 A 
ENDROOT
BRANCH   1   8
ATOM      7  O   UNL     1      48.257   7.165  13.906  0.00  0.00    +0.000 OA
ATOM      8  C   UNL     1      47.106   7.038  13.517  0.00  0.00    +0.000 C 
ATOM      9  N   UNL     1      46.243   8.106  13.377  0.00  0.00    +0.000 N 
ATOM     10  H   UNL     1      45.235   8.004  13.438  0.00  0.00    +0.000 HD
BRANCH   9  11
ATOM     11  O   UNL     1      46.768   9.362  13.757  0.00  0.00    +0.000 OA
ATOM     12  H   UNL     1      46.038   9.974  13.516  0.00  0.00    +0.000 HD
ENDBRANCH   9  11
ENDBRANCH   1   8
BRANCH   5  13
ATOM     13  N   UNL     1      43.916   4.115  11.058  0.00  0.00    +0.000 N 
ATOM     14  H   UNL     1      43.075   3.870  11.579  0.00  0.00    +0.000 HD
BRANCH  13  15
ATOM     15  C   UNL     1      44.095   3.273   9.867  0.00  0.00    +0.000 C 
BRANCH  15  16
ATOM     16  C   UNL     1      44.779   4.071   8.747  0.00  0.00    +0.000 C 
BRANCH  16  17
ATOM     17  C   UNL     1      45.713   3.212   7.930  0.00  0.00    +0.000 A 
ATOM     18  C   UNL     1      46.029   1.921   8.345  0.00  0.00    +0.000 A 
ATOM     19  C   UNL     1      46.899   1.158   7.569  0.00  0.00    +0.000 A 
ATOM     20  C   UNL     1      47.441   1.706   6.413  0.00  0.00    +0.000 A 
ATOM     21  C   UNL     1      47.096   3.003   6.084  0.00  0.00    +0.000 A 
ATOM     22  N   UNL     1      46.255   3.764   6.818  0.00  0.00    +0.000 NA
ENDBRANCH  16  17
ENDBRANCH  15  16
ENDBRANCH  13  15
ENDBRANCH   5  13
TORSDOF 6
ENDMDL
MODEL 5
REMARK VINA RESULT:    -6.530      3.817      6.354
REMARK INTER + INTRA:          -9.312
REMARK INTER:                  -9.223
REMARK INTRA:                  -0.089
REMARK UNBOUND:                -0.682
REMARK  Name = 
REMARK  6 active torsions:
REMARK  status: ('A' for Active; 'I' for Inactive)
REMARK    1  A    between atoms: C_2  and  C_5
REMARK    2  A    between atoms: N_3  and  O_4
REMARK    3  A    between atoms: C_9  and  N_10
REMARK    4  A    between atoms: N_10  and  C_11
REMARK    5  A    between atoms: C_11  and  C_12
REMARK    6  A    between atoms: C_12  and  C_13
REMARK                            x       y       z     vdW  Elec       q    Type
REMARK                         _______ _______ _______ _____ _____    ______ ____
ROOT
ATOM      1  C   UNL     1      46.047   6.870  12.909  0.00  0.00    +0.000 A 
ATOM      2  C   UNL     1      47.259   6.307  13.273  0.00  0.00    +0.000 A 
ATOM      3  N   UNL     1      47.423   4.979  13.490  0.00  0.00    +0.000 NA
ATOM      4  C   UNL     1      46.321   4.203  13.332  0.00  0.00    +0.000 A 
ATOM      5  C   UNL     1      45.058   4.652  12.940  0.00  0.00    +0.000 A 
ATOM      6  C   UNL     1      44.938   6.027  12.739  0.00  0.00    +0.000 A 
ENDROOT
BRANCH   1   8
ATOM      7  O   UNL     1      46.940   9.037  12.616  0.00  0.00    +0.000 OA
ATOM      8  C   UNL     1      45.946   8.330  12.697  0.00  0.00    +0.000 C 
ATOM      9  N   UNL     1      44.664   8.833  12.610  0.00  0.00    +0.000 N 
ATOM     10  H   UNL     1      43.868   8.375  13.041  0.00  0.00    +0.000 HD
BRANCH   9  11
ATOM     11  O   UNL     1      44.573  10.237  12.463  0.00  0.00    +0.000 OA
ATOM     12  H   UNL     1      43.604  10.389  12.519  0.00  0.00    +0.000 HD
ENDBRANCH   9  11
ENDBRANCH   1   8
BRANCH   5  13
ATOM     13  N   UNL     1      43.963   3.771  12.911  0.00  0.00    +0.000 N 
ATOM     14  H   UNL     1      44.094   2.987  13.549  0.00  0.00    +0.000 HD
BRANCH  13  15
ATOM     15  C   UNL     1      43.443   3.342  11.605  0.00  0.00    +0.000 C 
BRANCH  15  16
ATOM     16  C   UNL     1      43.881   4.324  10.508  0.00  0.00    +0.000 C 
BRANCH  16  17
ATOM     17  C   UNL     1      44.783   3.668   9.490  0.00  0.00    +0.000 A 
ATOM     18  C   UNL     1      45.439   4.436   8.532  0.00  0.00    +0.000 A 
ATOM     19  C   UNL     1      46.259   3.797   7.604  0.00  0.00    +0.000 A 
ATOM     20  C   UNL     1      46.389   2.415   7.646  0.00  0.00    +0.000 A 
ATOM     21  C   UNL     1      45.684   1.724   8.612  0.00  0.00    +0.000 A 
ATOM     22  N   UNL     1      44.882   2.318   9.523  0.00  0.00    +0.000 NA
ENDBRANCH  16  17
ENDBRANCH  15  16
ENDBRANCH  13  15
ENDBRANCH   5  13
TORSDOF 6
ENDMDL
MODEL 6
REMARK VINA RESULT:    -6.210      4.253      7.295
REMARK INTER + INTRA:          -8.889
REMARK INTER:                  -8.256
REMARK INTRA:                  -0.633
REMARK UNBOUND:                -0.682
REMARK  Name = 
REMARK  6 active torsions:
REMARK  status: ('A' for Active; 'I' for Inactive)
REMARK    1  A    between atoms: C_2  and  C_5
REMARK    2  A    between atoms: N_3  and  O_4
REMARK    3  A    between atoms: C_9  and  N_10
REMARK    4  A    between atoms: N_10  and  C_11
REMARK    5  A    between atoms: C_11  and  C_12
REMARK    6  A    between atoms: C_12  and  C_13
REMARK                            x       y       z     vdW  Elec       q    Type
REMARK                         _______ _______ _______ _____ _____    ______ ____
ROOT
ATOM      1  C   UNL     1      47.475   4.584  15.810  0.00  0.00    +0.000 A 
ATOM      2  C   UNL     1      48.366   5.643  15.750  0.00  0.00    +0.000 A 
ATOM      3  N   UNL     1      48.496   6.439  14.661  0.00  0.00    +0.000 NA
ATOM      4  C   UNL     1      47.698   6.148  13.603  0.00  0.00    +0.000 A 
ATOM      5  C   UNL     1      46.745   5.128  13.559  0.00  0.00    +0.000 A 
ATOM      6  C   UNL     1      46.656   4.330  14.699  0.00  0.00    +0.000 A 
ENDROOT
BRANCH   1   8
ATOM      7  O   UNL     1      46.397   3.106  17.304  0.00  0.00    +0.000 OA
ATOM      8  C   UNL     1      47.396   3.755  17.033  0.00  0.00    +0.000 C 
ATOM      9  N   UNL     1      48.514   3.776  17.841  0.00  0.00    +0.000 N 
ATOM     10  H   UNL     1      49.161   4.558  17.855  0.00  0.00    +0.000 HD
BRANCH   9  11
ATOM     11  O   UNL     1      48.412   3.026  19.035  0.00  0.00    +0.000 OA
ATOM     12  H   UNL     1      49.272   2.553  19.058  0.00  0.00    +0.000 HD
ENDBRANCH   9  11
ENDBRANCH   1   8
BRANCH   5  13
ATOM     13  N   UNL     1      46.048   4.853  12.369  0.00  0.00    +0.000 N 
ATOM     14  H   UNL     1      46.656   4.911  11.554  0.00  0.00    +0.000 HD
BRANCH  13  15
ATOM     15  C   UNL     1      44.755   5.516  12.145  0.00  0.00    +0.000 C 
BRANCH  15  16
ATOM     16  C   UNL     1      43.821   4.605  11.336  0.00  0.00    +0.000 C 
BRANCH  16  17
ATOM     17  C   UNL     1      44.526   3.977  10.158  0.00  0.00    +0.000 A 
ATOM     18  C   UNL     1      44.467   2.600   9.954  0.00  0.00    +0.000 A 
ATOM     19  C   UNL     1      45.135   2.053   8.859  0.00  0.00    +0.000 A 
ATOM     20  C   UNL     1      45.853   2.887   8.011  0.00  0.00    +0.000 A 
ATOM     21  C   UNL     1      45.881   4.239   8.298  0.00  0.00    +0.000 A 
ATOM     22  N   UNL     1      45.244   4.794   9.352  0.00  0.00    +0.000 NA
ENDBRANCH  16  17
ENDBRANCH  15  16
ENDBRANCH  13  15
ENDBRANCH   5  13
TORSDOF 6
ENDMDL
MODEL 7
REMARK VINA RESULT:    -5.989      3.899      5.989
REMARK INTER + INTRA:          -8.596
REMARK INTER:                  -8.226
REMARK INTRA:                  -0.371
REMARK UNBOUND:                -0.682
REMARK  Name = 
REMARK  6 active torsions:
REMARK  status: ('A' for Active; 'I' for Inactive)
REMARK    1  A    between atoms: C_2  and  C_5
REMARK    2  A    between atoms: N_3  and  O_4
REMARK    3  A    between atoms: C_9  and  N_10
REMARK    4  A    between atoms: N_10  and  C_11
REMARK    5  A    between atoms: C_11  and  C_12
REMARK    6  A    between atoms: C_12  and  C_13
REMARK                            x       y       z     vdW  Elec       q    Type
REMARK                         _______ _______ _______ _____ _____    ______ ____
ROOT
ATOM      1  C   UNL     1      44.761   4.593  12.024  0.00  0.00    +0.000 A 
ATOM      2  C   UNL     1      44.456   5.885  11.627  0.00  0.00    +0.000 A 
ATOM      3  N   UNL     1      45.080   6.979  12.128  0.00  0.00    +0.000 NA
ATOM      4  C   UNL     1      46.039   6.751  13.060  0.00  0.00    +0.000 A 
ATOM      5  C   UNL     1      46.452   5.496  13.514  0.00  0.00    +0.000 A 
ATOM      6  C   UNL     1      45.773   4.403  12.976  0.00  0.00    +0.000 A 
ENDROOT
BRANCH   1   8
ATOM      7  O   UNL     1      43.707   3.433  10.256  0.00  0.00    +0.000 OA
ATOM      8  C   UNL     1      44.030   3.449  11.435  0.00  0.00    +0.000 C 
ATOM      9  N   UNL     1      43.733   2.420  12.304  0.00  0.00    +0.000 N 
ATOM     10  H   UNL     1      43.637   2.562  13.304  0.00  0.00    +0.000 HD
BRANCH   9  11
ATOM     11  O   UNL     1      42.987   1.355  11.750  0.00  0.00    +0.000 OA
ATOM     12  H   UNL     1      43.687   0.703  11.528  0.00  0.00    +0.000 HD
ENDBRANCH   9  11
ENDBRANCH   1   8
BRANCH   5  13
ATOM     13  N   UNL     1      47.384   5.386  14.560  0.00  0.00    +0.000 N 
ATOM     14  H   UNL     1      48.342   5.408  14.216  0.00  0.00    +0.000 HD
BRANCH  13  15
ATOM     15  C   UNL     1      47.182   4.338  15.571  0.00  0.00    +0.000 C 
BRANCH  15  16
ATOM     16  C   UNL     1      47.840   4.743  16.898  0.00  0.00    +0.000 C 
BRANCH  16  17
ATOM     17  C   UNL     1      49.108   3.967  17.161  0.00  0.00    +0.000 A 
ATOM     18  C   UNL     1      50.196   4.580  17.777  0.00  0.00    +0.000 A 
ATOM     19  C   UNL     1      51.352   3.835  17.998  0.00  0.00    +0.000 A 
ATOM     20  C   UNL     1      51.399   2.509  17.586  0.00  0.00    +0.000 A 
ATOM     21  C   UNL     1      50.285   1.982  16.960  0.00  0.00    +0.000 A 
ATOM     22  N   UNL     1      49.153   2.683  16.733  0.00  0.00    +0.000 NA
ENDBRANCH  16  17
ENDBRANCH  15  16
ENDBRANCH  13  15
ENDBRANCH   5  13
TORSDOF 6
ENDMDL
MODEL 8
REMARK VINA RESULT:    -5.812      4.117      7.022
REMARK INTER + INTRA:          -8.363
REMARK INTER:                  -7.748
REMARK INTRA:                  -0.615
REMARK UNBOUND:                -0.682
REMARK  Name = 
REMARK  6 active torsions:
REMARK  status: ('A' for Active; 'I' for Inactive)
REMARK    1  A    between atoms: C_2  and  C_5
REMARK    2  A    between atoms: N_3  and  O_4
REMARK    3  A    between atoms: C_9  and  N_10
REMARK    4  A    between atoms: N_10  and  C_11
REMARK    5  A    between atoms: C_11  and  C_12
REMARK    6  A    between atoms: C_12  and  C_13
REMARK                            x       y       z     vdW  Elec       q    Type
REMARK                         _______ _______ _______ _____ _____    ______ ____
ROOT
ATOM      1  C   UNL     1      47.841   5.244  15.279  0.00  0.00    +0.000 A 
ATOM      2  C   UNL     1      48.666   6.122  15.963  0.00  0.00    +0.000 A 
ATOM      3  N   UNL     1      48.996   7.348  15.489  0.00  0.00    +0.000 NA
ATOM      4  C   UNL     1      48.474   7.688  14.284  0.00  0.00    +0.000 A 
ATOM      5  C   UNL     1      47.610   6.901  13.519  0.00  0.00    +0.000 A 
ATOM      6  C   UNL     1      47.308   5.645  14.045  0.00  0.00    +0.000 A 
ENDROOT
BRANCH   1   8
ATOM      7  O   UNL     1      47.804   2.882  15.272  0.00  0.00    +0.000 OA
ATOM      8  C   UNL     1      47.532   3.918  15.859  0.00  0.00    +0.000 C 
ATOM      9  N   UNL     1      46.912   3.937  17.092  0.00  0.00    +0.000 N 
ATOM     10  H   UNL     1      46.349   4.720  17.406  0.00  0.00    +0.000 HD
BRANCH   9  11
ATOM     11  O   UNL     1      46.568   2.670  17.616  0.00  0.00    +0.000 OA
ATOM     12  H   UNL     1      45.757   2.448  17.109  0.00  0.00    +0.000 HD
ENDBRANCH   9  11
ENDBRANCH   1   8
BRANCH   5  13
ATOM     13  N   UNL     1      47.215   7.315  12.235  0.00  0.00    +0.000 N 
ATOM     14  H   UNL     1      47.533   8.260  12.030  0.00  0.00    +0.000 HD
BRANCH  13  15
ATOM     15  C   UNL     1      45.820   7.098  11.828  0.00  0.00    +0.000 C 
BRANCH  15  16
ATOM     16  C   UNL     1      45.750   6.076  10.684  0.00  0.00    +0.000 C 
BRANCH  16  17
ATOM     17  C   UNL     1      44.912   4.875  11.050  0.00  0.00    +0.000 A 
ATOM     18  C   UNL     1      44.819   3.789  10.182  0.00  0.00    +0.000 A 
ATOM     19  C   UNL     1      44.031   2.700  10.550  0.00  0.00    +0.000 A 
ATOM     20  C   UNL     1      43.348   2.729  11.759  0.00  0.00    +0.000 A 
ATOM     21  C   UNL     1      43.473   3.854  12.551  0.00  0.00    +0.000 A 
ATOM     22  N   UNL     1      44.230   4.923  12.219  0.00  0.00    +0.000 NA
ENDBRANCH  16  17
ENDBRANCH  15  16
ENDBRANCH  13  15
ENDBRANCH   5  13
TORSDOF 6
ENDMDL
MODEL 9
REMARK VINA RESULT:    -5.714      4.118      5.896
REMARK INTER + INTRA:          -8.232
REMARK INTER:                  -7.706
REMARK INTRA:                  -0.526
REMARK UNBOUND:                -0.682
REMARK  Name = 
REMARK  6 active torsions:
REMARK  status: ('A' for Active; 'I' for Inactive)
REMARK    1  A    between atoms: C_2  and  C_5
REMARK    2  A    between atoms: N_3  and  O_4
REMARK    3  A    between atoms: C_9  and  N_10
REMARK    4  A    between atoms: N_10  and  C_11
REMARK    5  A    between atoms: C_11  and  C_12
REMARK    6  A    between atoms: C_12  and  C_13
REMARK                            x       y       z     vdW  Elec       q    Type
REMARK                         _______ _______ _______ _____ _____    ______ ____
ROOT
ATOM      1  C   UNL     1      44.852   5.166  12.262  0.00  0.00    +0.000 A 
ATOM      2  C   UNL     1      44.173   6.062  11.453  0.00  0.00    +0.000 A 
ATOM      3  N   UNL     1      44.463   7.385  11.408  0.00  0.00    +0.000 NA
ATOM      4  C   UNL     1      45.472   7.807  12.210  0.00  0.00    +0.000 A 
ATOM      5  C   UNL     1      46.245   6.995  13.043  0.00  0.00    +0.000 A 
ATOM      6  C   UNL     1      45.902   5.643  13.062  0.00  0.00    +0.000 A 
ENDROOT
BRANCH   1   8
ATOM      7  O   UNL     1      45.227   2.871  12.682  0.00  0.00    +0.000 OA
ATOM      8  C   UNL     1      44.472   3.736  12.261  0.00  0.00    +0.000 C 
ATOM      9  N   UNL     1      43.224   3.451  11.748  0.00  0.00    +0.000 N 
ATOM     10  H   UNL     1      42.764   4.050  11.070  0.00  0.00    +0.000 HD
BRANCH   9  11
ATOM     11  O   UNL     1      42.888   2.078  11.698  0.00  0.00    +0.000 OA
ATOM     12  H   UNL     1      42.427   1.946  12.555  0.00  0.00    +0.000 HD
ENDBRANCH   9  11
ENDBRANCH   1   8
BRANCH   5  13
ATOM     13  N   UNL     1      47.196   7.561  13.910  0.00  0.00    +0.000 N 
ATOM     14  H   UNL     1      47.422   8.519  13.648  0.00  0.00    +0.000 HD
BRANCH  13  15
ATOM     15  C   UNL     1      48.397   6.779  14.239  0.00  0.00    +0.000 C 
BRANCH  15  16
ATOM     16  C   UNL     1      48.672   6.833  15.749  0.00  0.00    +0.000 C 
BRANCH  16  17
ATOM     17  C   UNL     1      48.715   5.456  16.365  0.00  0.00    +0.000 A 
ATOM     18  C   UNL     1      49.667   5.147  17.334  0.00  0.00    +0.000 A 
ATOM     19  C   UNL     1      49.681   3.864  17.877  0.00  0.00    +0.000 A 
ATOM     20  C   UNL     1      48.762   2.923  17.431  0.00  0.00    +0.000 A 
ATOM     21  C   UNL     1      47.867   3.302  16.449  0.00  0.00    +0.000 A 
ATOM     22  N   UNL     1      47.831   4.539  15.905  0.00  0.00    +0.000 NA
ENDBRANCH  16  17
ENDBRANCH  15  16
ENDBRANCH  13  15
ENDBRANCH   5  13
TORSDOF 6
ENDMDL
