MODEL 1
REMARK VINA RESULT:    -6.549      0.000      0.000
REMARK INTER + INTRA:         -11.415
REMARK INTER:                  -9.612
REMARK INTRA:                  -1.803
REMARK UNBOUND:                -1.803
REMARK  Name = 
REMARK  9 active torsions:
REMARK  status: ('A' for Active; 'I' for Inactive)
REMARK    1  A    between atoms: C_1  and  C_2
REMARK    2  A    between atoms: C_2  and  N_3
REMARK    3  A    between atoms: N_3  and  C_4
REMARK    4  A    between atoms: C_6  and  C_7
REMARK    5  A    between atoms: C_17  and  C_18
REMARK    6  A    between atoms: C_18  and  C_19
REMARK    7  A    between atoms: C_19  and  O_20
REMARK    8  A    between atoms: O_20  and  C_21
REMARK    9  A    between atoms: C_23  and  C_24
REMARK                            x       y       z     vdW  Elec       q    Type
REMARK                         _______ _______ _______ _____ _____    ______ ____
ROOT
ATOM      1  C   UNL     1      48.681   9.337  16.613  0.00  0.00    +0.000 C 
ATOM      2  C   UNL     1      49.274   7.919  16.540  0.00  0.00    +0.000 C 
ATOM      3  C   UNL     1      50.420   7.658  17.503  0.00  0.00    +0.000 C 
ATOM      4  C   UNL     1      51.551   7.376  16.845  0.00  0.00    +0.000 C 
ATOM      5  C   UNL     1      51.299   7.440  15.436  0.00  0.00    +0.000 C 
ATOM      6  C   UNL     1      50.005   7.737  15.202  0.00  0.00    +0.000 C 
ENDROOT
BRANCH   2   7
ATOM      7  N   UNL     1      48.254   6.882  16.709  0.00  0.00    +0.000 N 
ATOM      8  H   UNL     1      47.689   6.727  15.875  0.00  0.00    +0.000 HD
BRANCH   7   9
ATOM      9  C   UNL     1      48.426   5.695  17.445  0.00  0.00    +0.000 A 
ATOM     10  C   UNL     1      48.996   4.544  16.881  0.00  0.00    +0.000 A 
ATOM     11  C   UNL     1      49.251   3.372  17.597  0.00  0.00    +0.000 A 
ATOM     12  C   UNL     1      48.989   3.355  18.965  0.00  0.00    +0.000 A 
ATOM     13  C   UNL     1      48.430   4.479  19.577  0.00  0.00    +0.000 A 
ATOM     14  C   UNL     1      48.136   5.628  18.822  0.00  0.00    +0.000 A 
ATOM     15 CL   UNL     1      47.387   6.957  19.640  0.00  0.00    +0.000 Cl
BRANCH  11  16
ATOM     16  C   UNL     1      49.784   2.150  16.926  0.00  0.00    +0.000 C 
ATOM     17  N   UNL     1      50.826   1.472  17.508  0.00  0.00    +0.000 N 
ATOM     18  O   UNL     1      49.318   1.761  15.864  0.00  0.00    +0.000 OA
ATOM     19  H   UNL     1      51.314   1.727  18.350  0.00  0.00    +0.000 HD
ATOM     20  H   UNL     1      51.180   0.669  17.002  0.00  0.00    +0.000 HD
ENDBRANCH  11  16
ENDBRANCH   7   9
ENDBRANCH   2   7
BRANCH   6  21
ATOM     21  C   UNL     1      49.405   8.046  13.853  0.00  0.00    +0.000 C 
BRANCH  21  22
ATOM     22  C   UNL     1      48.974   6.780  13.093  0.00  0.00    +0.000 C 
BRANCH  22  23
ATOM     23  O   UNL     1      48.042   6.000  13.856  0.00  0.00    +0.000 OA
BRANCH  23  24
ATOM     24  C   UNL     1      46.796   5.961  13.246  0.00  0.00    +0.000 A 
ATOM     25  C   UNL     1      46.252   4.718  12.978  0.00  0.00    +0.000 A 
ATOM     26  C   UNL     1      44.995   4.663  12.362  0.00  0.00    +0.000 A 
ATOM     27  C   UNL     1      44.337   5.851  12.047  0.00  0.00    +0.000 A 
ATOM     28  C   UNL     1      44.963   7.045  12.356  0.00  0.00    +0.000 A 
ATOM     29  N   UNL     1      46.173   7.121  12.945  0.00  0.00    +0.000 NA
BRANCH  26  30
ATOM     30  C   UNL     1      44.410   3.324  12.072  0.00  0.00    +0.000 C 
ATOM     31  N   UNL     1      44.710   2.714  10.884  0.00  0.00    +0.000 N 
ATOM     32  O   UNL     1      43.674   2.766  12.878  0.00  0.00    +0.000 OA
ATOM     33  H   UNL     1      45.307   3.082  10.161  0.00  0.00    +0.000 HD
ATOM     34  H   UNL     1      44.299   1.801  10.729  0.00  0.00    +0.000 HD
ENDBRANCH  26  30
ENDBRANCH  23  24
ENDBRANCH  22  23
ENDBRANCH  21  22
ENDBRANCH   6  21
TORSDOF 8
ENDMDL
MODEL 2
REMARK VINA RESULT:    -6.535      2.206      3.099
REMARK INTER + INTRA:         -11.394
REMARK INTER:                 -10.014
REMARK INTRA:                  -1.380
REMARK UNBOUND:                -1.803
REMARK  Name = 
REMARK  9 active torsions:
REMARK  status: ('A' for Active; 'I' for Inactive)
REMARK    1  A    between atoms: C_1  and  C_2
REMARK    2  A    between atoms: C_2  and  N_3
REMARK    3  A    between atoms: N_3  and  C_4
REMARK    4  A    between atoms: C_6  and  C_7
REMARK    5  A    between atoms: C_17  and  C_18
REMARK    6  A    between atoms: C_18  and  C_19
REMARK    7  A    between atoms: C_19  and  O_20
REMARK    8  A    between atoms: O_20  and  C_21
REMARK    9  A    between atoms: C_23  and  C_24
REMARK                            x       y       z     vdW  Elec       q    Type
REMARK                         _______ _______ _______ _____ _____    ______ ____
ROOT
ATOM      1  C   UNL     1      47.531   8.879  14.363  0.00  0.00    +0.000 C 
ATOM      2  C   UNL     1      48.915   8.406  13.885  0.00  0.00    +0.000 C 
ATOM      3  C   UNL     1      49.808   9.505  13.333  0.00  0.00    +0.000 C 
ATOM      4  C   UNL     1      50.098   9.291  12.043  0.00  0.00    +0.000 C 
ATOM      5  C   UNL     1      49.441   8.094  11.610  0.00  0.00    +0.000 C 
ATOM      6  C   UNL     1      48.756   7.538  12.630  0.00  0.00    +0.000 C 
ENDROOT
BRANCH   2   7
ATOM      7  N   UNL     1      49.639   7.671  14.925  0.00  0.00    +0.000 N 
ATOM      8  H   UNL     1      50.500   8.128  15.222  0.00  0.00    +0.000 HD
BRANCH   7   9
ATOM      9  C   UNL     1      49.034   6.970  15.984  0.00  0.00    +0.000 A 
ATOM     10  C   UNL     1      48.615   5.637  15.853  0.00  0.00    +0.000 A 
ATOM     11  C   UNL     1      48.079   4.884  16.900  0.00  0.00    +0.000 A 
ATOM     12  C   UNL     1      48.012   5.456  18.168  0.00  0.00    +0.000 A 
ATOM     13  C   UNL     1      48.427   6.777  18.354  0.00  0.00    +0.000 A 
ATOM     14  C   UNL     1      48.914   7.530  17.272  0.00  0.00    +0.000 A 
ATOM     15 CL   UNL     1      49.349   9.178  17.569  0.00  0.00    +0.000 Cl
BRANCH  11  16
ATOM     16  C   UNL     1      47.574   3.496  16.683  0.00  0.00    +0.000 C 
ATOM     17  N   UNL     1      46.823   2.899  17.664  0.00  0.00    +0.000 N 
ATOM     18  O   UNL     1      47.836   2.885  15.656  0.00  0.00    +0.000 OA
ATOM     19  H   UNL     1      46.587   3.289  18.562  0.00  0.00    +0.000 HD
ATOM     20  H   UNL     1      46.530   1.945  17.491  0.00  0.00    +0.000 HD
ENDBRANCH  11  16
ENDBRANCH   7   9
ENDBRANCH   2   7
BRANCH   6  21
ATOM     21  C   UNL     1      47.814   6.364  12.518  0.00  0.00    +0.000 C 
BRANCH  21  22
ATOM     22  C   UNL     1      46.658   6.624  11.536  0.00  0.00    +0.000 C 
BRANCH  22  23
ATOM     23  O   UNL     1      45.385   6.561  12.195  0.00  0.00    +0.000 OA
BRANCH  23  24
ATOM     24  C   UNL     1      44.773   5.332  11.996  0.00  0.00    +0.000 A 
ATOM     25  C   UNL     1      44.923   4.733  10.758  0.00  0.00    +0.000 A 
ATOM     26  C   UNL     1      44.309   3.492  10.542  0.00  0.00    +0.000 A 
ATOM     27  C   UNL     1      43.578   2.904  11.575  0.00  0.00    +0.000 A 
ATOM     28  C   UNL     1      43.486   3.580  12.777  0.00  0.00    +0.000 A 
ATOM     29  N   UNL     1      44.066   4.776  13.004  0.00  0.00    +0.000 NA
BRANCH  26  30
ATOM     30  C   UNL     1      44.470   2.848   9.210  0.00  0.00    +0.000 C 
ATOM     31  N   UNL     1      44.378   3.622   8.085  0.00  0.00    +0.000 N 
ATOM     32  O   UNL     1      44.684   1.645   9.108  0.00  0.00    +0.000 OA
ATOM     33  H   UNL     1      44.213   4.616   8.059  0.00  0.00    +0.000 HD
ATOM     34  H   UNL     1      44.502   3.148   7.198  0.00  0.00    +0.000 HD
ENDBRANCH  26  30
ENDBRANCH  23  24
ENDBRANCH  22  23
ENDBRANCH  21  22
ENDBRANCH   6  21
TORSDOF 8
ENDMDL
MODEL 3
REMARK VINA RESULT:    -6.487      1.910      6.524
REMARK INTER + INTRA:         -11.324
REMARK INTER:                  -9.723
REMARK INTRA:                  -1.601
REMARK UNBOUND:                -1.803
REMARK  Name = 
REMARK  9 active torsions:
REMARK  status: ('A' for Active; 'I' for Inactive)
REMARK    1  A    between atoms: C_1  and  C_2
REMARK    2  A    between atoms: C_2  and  N_3
REMARK    3  A    between atoms: N_3  and  C_4
REMARK    4  A    between atoms: C_6  and  C_7
REMARK    5  A    between atoms: C_17  and  C_18
REMARK    6  A    between atoms: C_18  and  C_19
REMARK    7  A    between atoms: C_19  and  O_20
REMARK    8  A    between atoms: O_20  and  C_21
REMARK    9  A    between atoms: C_23  and  C_24
REMARK                            x       y       z     vdW  Elec       q    Type
REMARK                         _______ _______ _______ _____ _____    ______ ____
ROOT
ATOM      1  C   UNL     1      48.703   6.913  12.211  0.00  0.00    +0.000 C 
ATOM      2  C   UNL     1      47.946   7.867  13.153  0.00  0.00    +0.000 C 
ATOM      3  C   UNL     1      47.576   9.207  12.539  0.00  0.00    +0.000 C 
ATOM      4  C   UNL     1      48.173  10.216  13.186  0.00  0.00    +0.000 C 
ATOM      5  C   UNL     1      48.987   9.681  14.236  0.00  0.00    +0.000 C 
ATOM      6  C   UNL     1      48.886   8.337  14.271  0.00  0.00    +0.000 C 
ENDROOT
BRANCH   2   7
ATOM      7  N   UNL     1      46.747   7.247  13.721  0.00  0.00    +0.000 N 
ATOM      8  H   UNL     1      46.049   7.921  14.034  0.00  0.00    +0.000 HD
BRANCH   7   9
ATOM      9  C   UNL     1      46.148   6.066  13.245  0.00  0.00    +0.000 A 
ATOM     10  C   UNL     1      45.271   6.064  12.150  0.00  0.00    +0.000 A 
ATOM     11  C   UNL     1      44.714   4.906  11.602  0.00  0.00    +0.000 A 
ATOM     12  C   UNL     1      45.094   3.671  12.122  0.00  0.00    +0.000 A 
ATOM     13  C   UNL     1      45.973   3.618  13.206  0.00  0.00    +0.000 A 
ATOM     14  C   UNL     1      46.479   4.802  13.772  0.00  0.00    +0.000 A 
ATOM     15 CL   UNL     1      47.513   4.655  15.152  0.00  0.00    +0.000 Cl
BRANCH  11  16
ATOM     16  C   UNL     1      43.722   4.970  10.488  0.00  0.00    +0.000 C 
ATOM     17  N   UNL     1      44.072   4.477   9.256  0.00  0.00    +0.000 N 
ATOM     18  O   UNL     1      42.619   5.471  10.656  0.00  0.00    +0.000 OA
ATOM     19  H   UNL     1      44.963   4.087   8.995  0.00  0.00    +0.000 HD
ATOM     20  H   UNL     1      43.382   4.571   8.520  0.00  0.00    +0.000 HD
ENDBRANCH  11  16
ENDBRANCH   7   9
ENDBRANCH   2   7
BRANCH   6  21
ATOM     21  C   UNL     1      49.717   7.416  15.132  0.00  0.00    +0.000 C 
BRANCH  21  22
ATOM     22  C   UNL     1      49.735   7.844  16.610  0.00  0.00    +0.000 C 
BRANCH  22  23
ATOM     23  O   UNL     1      50.575   6.986  17.394  0.00  0.00    +0.000 OA
BRANCH  23  24
ATOM     24  C   UNL     1      49.912   5.823  17.759  0.00  0.00    +0.000 A 
ATOM     25  C   UNL     1      50.419   4.623  17.295  0.00  0.00    +0.000 A 
ATOM     26  C   UNL     1      49.759   3.441  17.655  0.00  0.00    +0.000 A 
ATOM     27  C   UNL     1      48.626   3.512  18.466  0.00  0.00    +0.000 A 
ATOM     28  C   UNL     1      48.198   4.759  18.881  0.00  0.00    +0.000 A 
ATOM     29  N   UNL     1      48.816   5.909  18.543  0.00  0.00    +0.000 NA
BRANCH  26  30
ATOM     30  C   UNL     1      50.303   2.149  17.154  0.00  0.00    +0.000 C 
ATOM     31  N   UNL     1      51.274   1.513  17.879  0.00  0.00    +0.000 N 
ATOM     32  O   UNL     1      49.893   1.650  16.112  0.00  0.00    +0.000 OA
ATOM     33  H   UNL     1      51.672   1.832  18.748  0.00  0.00    +0.000 HD
ATOM     34  H   UNL     1      51.611   0.632  17.508  0.00  0.00    +0.000 HD
ENDBRANCH  26  30
ENDBRANCH  23  24
ENDBRANCH  22  23
ENDBRANCH  21  22
ENDBRANCH   6  21
TORSDOF 8
ENDMDL
MODEL 4
REMARK VINA RESULT:    -6.406      2.569      4.150
REMARK INTER + INTRA:         -11.204
REMARK INTER:                  -9.676
REMARK INTRA:                  -1.528
REMARK UNBOUND:                -1.803
REMARK  Name = 
REMARK  9 active torsions:
REMARK  status: ('A' for Active; 'I' for Inactive)
REMARK    1  A    between atoms: C_1  and  C_2
REMARK    2  A    between atoms: C_2  and  N_3
REMARK    3  A    between atoms: N_3  and  C_4
REMARK    4  A    between atoms: C_6  and  C_7
REMARK    5  A    between atoms: C_17  and  C_18
REMARK    6  A    between atoms: C_18  and  C_19
REMARK    7  A    between atoms: C_19  and  O_20
REMARK    8  A    between atoms: O_20  and  C_21
REMARK    9  A    between atoms: C_23  and  C_24
REMARK                            x       y       z     vdW  Elec       q    Type
REMARK                         _______ _______ _______ _____ _____    ______ ____
ROOT
ATOM      1  C   UNL     1      48.099  10.667  12.257  0.00  0.00    +0.000 C 
ATOM      2  C   UNL     1      48.386   9.288  12.876  0.00  0.00    +0.000 C 
ATOM      3  C   UNL     1      49.563   8.547  12.262  0.00  0.00    +0.000 C 
ATOM      4  C   UNL     1      49.170   7.400  11.695  0.00  0.00    +0.000 C 
ATOM      5  C   UNL     1      47.751   7.269  11.840  0.00  0.00    +0.000 C 
ATOM      6  C   UNL     1      47.249   8.320  12.521  0.00  0.00    +0.000 C 
ENDROOT
BRANCH   2   7
ATOM      7  N   UNL     1      48.561   9.358  14.328  0.00  0.00    +0.000 N 
ATOM      8  H   UNL     1      47.772   9.782  14.814  0.00  0.00    +0.000 HD
BRANCH   7   9
ATOM      9  C   UNL     1      49.179   8.367  15.113  0.00  0.00    +0.000 A 
ATOM     10  C   UNL     1      48.509   7.196  15.500  0.00  0.00    +0.000 A 
ATOM     11  C   UNL     1      49.108   6.157  16.216  0.00  0.00    +0.000 A 
ATOM     12  C   UNL     1      50.466   6.247  16.512  0.00  0.00    +0.000 A 
ATOM     13  C   UNL     1      51.182   7.388  16.140  0.00  0.00    +0.000 A 
ATOM     14  C   UNL     1      50.542   8.442  15.465  0.00  0.00    +0.000 A 
ATOM     15 CL   UNL     1      51.481   9.847  15.094  0.00  0.00    +0.000 Cl
BRANCH  11  16
ATOM     16  C   UNL     1      48.325   4.971  16.672  0.00  0.00    +0.000 C 
ATOM     17  N   UNL     1      47.231   5.165  17.478  0.00  0.00    +0.000 N 
ATOM     18  O   UNL     1      48.656   3.838  16.352  0.00  0.00    +0.000 OA
ATOM     19  H   UNL     1      46.897   6.043  17.838  0.00  0.00    +0.000 HD
ATOM     20  H   UNL     1      46.749   4.331  17.791  0.00  0.00    +0.000 HD
ENDBRANCH  11  16
ENDBRANCH   7   9
ENDBRANCH   2   7
BRANCH   6  21
ATOM     21  C   UNL     1      45.783   8.612  12.728  0.00  0.00    +0.000 C 
BRANCH  21  22
ATOM     22  C   UNL     1      44.871   7.573  12.051  0.00  0.00    +0.000 C 
BRANCH  22  23
ATOM     23  O   UNL     1      44.613   6.458  12.916  0.00  0.00    +0.000 OA
BRANCH  23  24
ATOM     24  C   UNL     1      44.401   5.294  12.192  0.00  0.00    +0.000 A 
ATOM     25  C   UNL     1      44.776   5.289  10.861  0.00  0.00    +0.000 A 
ATOM     26  C   UNL     1      44.567   4.121  10.116  0.00  0.00    +0.000 A 
ATOM     27  C   UNL     1      43.997   3.009  10.737  0.00  0.00    +0.000 A 
ATOM     28  C   UNL     1      43.657   3.111  12.074  0.00  0.00    +0.000 A 
ATOM     29  N   UNL     1      43.846   4.227  12.807  0.00  0.00    +0.000 NA
BRANCH  26  30
ATOM     30  C   UNL     1      44.970   4.116   8.683  0.00  0.00    +0.000 C 
ATOM     31  N   UNL     1      44.290   3.314   7.807  0.00  0.00    +0.000 N 
ATOM     32  O   UNL     1      45.891   4.818   8.281  0.00  0.00    +0.000 OA
ATOM     33  H   UNL     1      43.517   2.708   8.032  0.00  0.00    +0.000 HD
ATOM     34  H   UNL     1      44.589   3.347   6.839  0.00  0.00    +0.000 HD
ENDBRANCH  26  30
ENDBRANCH  23  24
ENDBRANCH  22  23
ENDBRANCH  21  22
ENDBRANCH   6  21
TORSDOF 8
ENDMDL
MODEL 5
REMARK VINA RESULT:    -6.400      2.467      6.427
REMARK INTER + INTRA:         -11.196
REMARK INTER:                  -9.756
REMARK INTRA:                  -1.440
REMARK UNBOUND:                -1.803
REMARK  Name = 
REMARK  9 active torsions:
REMARK  status: ('A' for Active; 'I' for Inactive)
REMARK    1  A    between atoms: C_1  and  C_2
REMARK    2  A    between atoms: C_2  and  N_3
REMARK    3  A    between atoms: N_3  and  C_4
REMARK    4  A    between atoms: C_6  and  C_7
REMARK    5  A    between atoms: C_17  and  C_18
REMARK    6  A    between atoms: C_18  and  C_19
REMARK    7  A    between atoms: C_19  and  O_20
REMARK    8  A    between atoms: O_20  and  C_21
REMARK    9  A    between atoms: C_23  and  C_24
REMARK                            x       y       z     vdW  Elec       q    Type
REMARK                         _______ _______ _______ _____ _____    ______ ____
ROOT
ATOM      1  C   UNL     1      49.121   8.235  12.266  0.00  0.00    +0.000 C 
ATOM      2  C   UNL     1      48.546   8.913  13.522  0.00  0.00    +0.000 C 
ATOM      3  C   UNL     1      48.491  10.430  13.458  0.00  0.00    +0.000 C 
ATOM      4  C   UNL     1      49.261  10.982  14.404  0.00  0.00    +0.000 C 
ATOM      5  C   UNL     1      49.902   9.941  15.150  0.00  0.00    +0.000 C 
ATOM      6  C   UNL     1      49.519   8.731  14.694  0.00  0.00    +0.000 C 
ENDROOT
BRANCH   2   7
ATOM      7  N   UNL     1      47.221   8.395  13.874  0.00  0.00    +0.000 N 
ATOM      8  H   UNL     1      46.602   9.098  14.275  0.00  0.00    +0.000 HD
BRANCH   7   9
ATOM      9  C   UNL     1      46.505   7.442  13.126  0.00  0.00    +0.000 A 
ATOM     10  C   UNL     1      46.589   6.067  13.393  0.00  0.00    +0.000 A 
ATOM     11  C   UNL     1      45.839   5.098  12.723  0.00  0.00    +0.000 A 
ATOM     12  C   UNL     1      44.903   5.512  11.779  0.00  0.00    +0.000 A 
ATOM     13  C   UNL     1      44.773   6.871  11.483  0.00  0.00    +0.000 A 
ATOM     14  C   UNL     1      45.577   7.822  12.136  0.00  0.00    +0.000 A 
ATOM     15 CL   UNL     1      45.401   9.479  11.670  0.00  0.00    +0.000 Cl
BRANCH  11  16
ATOM     16  C   UNL     1      46.029   3.642  12.993  0.00  0.00    +0.000 C 
ATOM     17  N   UNL     1      45.114   2.748  12.497  0.00  0.00    +0.000 N 
ATOM     18  O   UNL     1      46.973   3.244  13.661  0.00  0.00    +0.000 OA
ATOM     19  H   UNL     1      44.280   2.966  11.977  0.00  0.00    +0.000 HD
ATOM     20  H   UNL     1      45.262   1.774  12.732  0.00  0.00    +0.000 HD
ENDBRANCH  11  16
ENDBRANCH   7   9
ENDBRANCH   2   7
BRANCH   6  21
ATOM     21  C   UNL     1      50.102   7.407  15.123  0.00  0.00    +0.000 C 
BRANCH  21  22
ATOM     22  C   UNL     1      49.291   6.738  16.246  0.00  0.00    +0.000 C 
BRANCH  22  23
ATOM     23  O   UNL     1      50.143   6.049  17.171  0.00  0.00    +0.000 OA
BRANCH  23  24
ATOM     24  C   UNL     1      49.932   4.678  17.129  0.00  0.00    +0.000 A 
ATOM     25  C   UNL     1      51.004   3.855  17.420  0.00  0.00    +0.000 A 
ATOM     26  C   UNL     1      50.806   2.468  17.381  0.00  0.00    +0.000 A 
ATOM     27  C   UNL     1      49.544   1.969  17.057  0.00  0.00    +0.000 A 
ATOM     28  C   UNL     1      48.535   2.873  16.783  0.00  0.00    +0.000 A 
ATOM     29  N   UNL     1      48.705   4.210  16.812  0.00  0.00    +0.000 NA
BRANCH  26  30
ATOM     30  C   UNL     1      51.960   1.581  17.693  0.00  0.00    +0.000 C 
ATOM     31  N   UNL     1      51.720   0.284  18.055  0.00  0.00    +0.000 N 
ATOM     32  O   UNL     1      53.113   1.994  17.626  0.00  0.00    +0.000 OA
ATOM     33  H   UNL     1      50.816  -0.154  18.132  0.00  0.00    +0.000 HD
ATOM     34  H   UNL     1      52.533  -0.289  18.250  0.00  0.00    +0.000 HD
ENDBRANCH  26  30
ENDBRANCH  23  24
ENDBRANCH  22  23
ENDBRANCH  21  22
ENDBRANCH   6  21
TORSDOF 8
ENDMDL
MODEL 6
REMARK VINA RESULT:    -6.257      2.479      3.568
REMARK INTER + INTRA:         -10.987
REMARK INTER:                  -9.570
REMARK INTRA:                  -1.417
REMARK UNBOUND:                -1.803
REMARK  Name = 
REMARK  9 active torsions:
REMARK  status: ('A' for Active; 'I' for Inactive)
REMARK    1  A    between atoms: C_1  and  C_2
REMARK    2  A    between atoms: C_2  and  N_3
REMARK    3  A    between atoms: N_3  and  C_4
REMARK    4  A    between atoms: C_6  and  C_7
REMARK    5  A    between atoms: C_17  and  C_18
REMARK    6  A    between atoms: C_18  and  C_19
REMARK    7  A    between atoms: C_19  and  O_20
REMARK    8  A    between atoms: O_20  and  C_21
REMARK    9  A    between atoms: C_23  and  C_24
REMARK                            x       y       z     vdW  Elec       q    Type
REMARK                         _______ _______ _______ _____ _____    ______ ____
ROOT
ATOM      1  C   UNL     1      48.810   9.722  14.944  0.00  0.00    +0.000 C 
ATOM      2  C   UNL     1      49.056   9.008  13.602  0.00  0.00    +0.000 C 
ATOM      3  C   UNL     1      50.100   9.665  12.714  0.00  0.00    +0.000 C 
ATOM      4  C   UNL     1      49.561  10.080  11.560  0.00  0.00    +0.000 C 
ATOM      5  C   UNL     1      48.160   9.781  11.565  0.00  0.00    +0.000 C 
ATOM      6  C   UNL     1      47.816   9.155  12.709  0.00  0.00    +0.000 C 
ENDROOT
BRANCH   2   7
ATOM      7  N   UNL     1      49.392   7.594  13.780  0.00  0.00    +0.000 N 
ATOM      8  H   UNL     1      50.107   7.261  13.135  0.00  0.00    +0.000 HD
BRANCH   7   9
ATOM      9  C   UNL     1      49.469   6.935  15.021  0.00  0.00    +0.000 A 
ATOM     10  C   UNL     1      48.405   6.173  15.528  0.00  0.00    +0.000 A 
ATOM     11  C   UNL     1      48.467   5.445  16.718  0.00  0.00    +0.000 A 
ATOM     12  C   UNL     1      49.671   5.411  17.418  0.00  0.00    +0.000 A 
ATOM     13  C   UNL     1      50.764   6.145  16.951  0.00  0.00    +0.000 A 
ATOM     14  C   UNL     1      50.658   6.911  15.777  0.00  0.00    +0.000 A 
ATOM     15 CL   UNL     1      52.036   7.841  15.296  0.00  0.00    +0.000 Cl
BRANCH  11  16
ATOM     16  C   UNL     1      47.277   4.718  17.250  0.00  0.00    +0.000 C 
ATOM     17  N   UNL     1      46.706   5.144  18.423  0.00  0.00    +0.000 N 
ATOM     18  O   UNL     1      46.822   3.744  16.667  0.00  0.00    +0.000 OA
ATOM     19  H   UNL     1      47.024   5.900  19.007  0.00  0.00    +0.000 HD
ATOM     20  H   UNL     1      45.922   4.602  18.766  0.00  0.00    +0.000 HD
ENDBRANCH  11  16
ENDBRANCH   7   9
ENDBRANCH   2   7
BRANCH   6  21
ATOM     21  C   UNL     1      46.408   8.829  13.143  0.00  0.00    +0.000 C 
BRANCH  21  22
ATOM     22  C   UNL     1      45.991   7.395  12.772  0.00  0.00    +0.000 C 
BRANCH  22  23
ATOM     23  O   UNL     1      46.554   6.993  11.516  0.00  0.00    +0.000 OA
BRANCH  23  24
ATOM     24  C   UNL     1      45.879   5.903  10.984  0.00  0.00    +0.000 A 
ATOM     25  C   UNL     1      45.164   5.103  11.857  0.00  0.00    +0.000 A 
ATOM     26  C   UNL     1      44.478   3.999  11.334  0.00  0.00    +0.000 A 
ATOM     27  C   UNL     1      44.534   3.748   9.963  0.00  0.00    +0.000 A 
ATOM     28  C   UNL     1      45.274   4.607   9.172  0.00  0.00    +0.000 A 
ATOM     29  N   UNL     1      45.944   5.672   9.655  0.00  0.00    +0.000 NA
BRANCH  26  30
ATOM     30  C   UNL     1      43.710   3.136  12.274  0.00  0.00    +0.000 C 
ATOM     31  N   UNL     1      43.321   1.891  11.861  0.00  0.00    +0.000 N 
ATOM     32  O   UNL     1      43.429   3.522  13.403  0.00  0.00    +0.000 OA
ATOM     33  H   UNL     1      43.507   1.477  10.962  0.00  0.00    +0.000 HD
ATOM     34  H   UNL     1      42.808   1.332  12.534  0.00  0.00    +0.000 HD
ENDBRANCH  26  30
ENDBRANCH  23  24
ENDBRANCH  22  23
ENDBRANCH  21  22
ENDBRANCH   6  21
TORSDOF 8
ENDMDL
MODEL 7
REMARK VINA RESULT:    -6.203      2.469      5.996
REMARK INTER + INTRA:         -10.907
REMARK INTER:                  -9.117
REMARK INTRA:                  -1.791
REMARK UNBOUND:                -1.803
REMARK  Name = 
REMARK  9 active torsions:
REMARK  status: ('A' for Active; 'I' for Inactive)
REMARK    1  A    between atoms: C_1  and  C_2
REMARK    2  A    between atoms: C_2  and  N_3
REMARK    3  A    between atoms: N_3  and  C_4
REMARK    4  A    between atoms: C_6  and  C_7
REMARK    5  A    between atoms: C_17  and  C_18
REMARK    6  A    between atoms: C_18  and  C_19
REMARK    7  A    between atoms: C_19  and  O_20
REMARK    8  A    between atoms: O_20  and  C_21
REMARK    9  A    between atoms: C_23  and  C_24
REMARK                            x       y       z     vdW  Elec       q    Type
REMARK                         _______ _______ _______ _____ _____    ______ ____
ROOT
ATOM      1  C   UNL     1      48.941   7.768  11.484  0.00  0.00    +0.000 C 
ATOM      2  C   UNL     1      48.495   8.771  12.564  0.00  0.00    +0.000 C 
ATOM      3  C   UNL     1      48.383  10.210  12.088  0.00  0.00    +0.000 C 
ATOM      4  C   UNL     1      49.240  11.004  12.742  0.00  0.00    +0.000 C 
ATOM      5  C   UNL     1      49.999  10.213  13.663  0.00  0.00    +0.000 C 
ATOM      6  C   UNL     1      49.605   8.924  13.612  0.00  0.00    +0.000 C 
ENDROOT
BRANCH   2   7
ATOM      7  N   UNL     1      47.240   8.373  13.204  0.00  0.00    +0.000 N 
ATOM      8  H   UNL     1      46.718   9.155  13.599  0.00  0.00    +0.000 HD
BRANCH   7   9
ATOM      9  C   UNL     1      46.380   7.363  12.734  0.00  0.00    +0.000 A 
ATOM     10  C   UNL     1      46.565   6.012  13.065  0.00  0.00    +0.000 A 
ATOM     11  C   UNL     1      45.694   4.991  12.679  0.00  0.00    +0.000 A 
ATOM     12  C   UNL     1      44.537   5.328  11.982  0.00  0.00    +0.000 A 
ATOM     13  C   UNL     1      44.300   6.661  11.636  0.00  0.00    +0.000 A 
ATOM     14  C   UNL     1      45.220   7.663  11.992  0.00  0.00    +0.000 A 
ATOM     15 CL   UNL     1      44.888   9.280  11.473  0.00  0.00    +0.000 Cl
BRANCH  11  16
ATOM     16  C   UNL     1      45.984   3.560  12.991  0.00  0.00    +0.000 C 
ATOM     17  N   UNL     1      45.147   2.589  12.502  0.00  0.00    +0.000 N 
ATOM     18  O   UNL     1      46.940   3.250  13.688  0.00  0.00    +0.000 OA
ATOM     19  H   UNL     1      44.310   2.732  11.961  0.00  0.00    +0.000 HD
ATOM     20  H   UNL     1      45.360   1.635  12.766  0.00  0.00    +0.000 HD
ENDBRANCH  11  16
ENDBRANCH   7   9
ENDBRANCH   2   7
BRANCH   6  21
ATOM     21  C   UNL     1      50.279   7.772  14.316  0.00  0.00    +0.000 C 
BRANCH  21  22
ATOM     22  C   UNL     1      50.398   7.994  15.835  0.00  0.00    +0.000 C 
BRANCH  22  23
ATOM     23  O   UNL     1      49.150   7.750  16.500  0.00  0.00    +0.000 OA
BRANCH  23  24
ATOM     24  C   UNL     1      49.197   6.585  17.252  0.00  0.00    +0.000 A 
ATOM     25  C   UNL     1      48.506   5.486  16.776  0.00  0.00    +0.000 A 
ATOM     26  C   UNL     1      48.544   4.302  17.525  0.00  0.00    +0.000 A 
ATOM     27  C   UNL     1      49.275   4.270  18.713  0.00  0.00    +0.000 A 
ATOM     28  C   UNL     1      49.934   5.421  19.105  0.00  0.00    +0.000 A 
ATOM     29  N   UNL     1      49.907   6.570  18.401  0.00  0.00    +0.000 NA
BRANCH  26  30
ATOM     30  C   UNL     1      47.799   3.119  17.013  0.00  0.00    +0.000 C 
ATOM     31  N   UNL     1      48.438   2.244  16.178  0.00  0.00    +0.000 N 
ATOM     32  O   UNL     1      46.632   2.919  17.331  0.00  0.00    +0.000 OA
ATOM     33  H   UNL     1      49.393   2.312  15.863  0.00  0.00    +0.000 HD
ATOM     34  H   UNL     1      47.899   1.448  15.859  0.00  0.00    +0.000 HD
ENDBRANCH  26  30
ENDBRANCH  23  24
ENDBRANCH  22  23
ENDBRANCH  21  22
ENDBRANCH   6  21
TORSDOF 8
ENDMDL
MODEL 8
REMARK VINA RESULT:    -6.134      2.183      3.179
REMARK INTER + INTRA:         -10.806
REMARK INTER:                 -10.010
REMARK INTRA:                  -0.796
REMARK UNBOUND:                -1.803
REMARK  Name = 
REMARK  9 active torsions:
REMARK  status: ('A' for Active; 'I' for Inactive)
REMARK    1  A    between atoms: C_1  and  C_2
REMARK    2  A    between atoms: C_2  and  N_3
REMARK    3  A    between atoms: N_3  and  C_4
REMARK    4  A    between atoms: C_6  and  C_7
REMARK    5  A    between atoms: C_17  and  C_18
REMARK    6  A    between atoms: C_18  and  C_19
REMARK    7  A    between atoms: C_19  and  O_20
REMARK    8  A    between atoms: O_20  and  C_21
REMARK    9  A    between atoms: C_23  and  C_24
REMARK                            x       y       z     vdW  Elec       q    Type
REMARK                         _______ _______ _______ _____ _____    ______ ____
ROOT
ATOM      1  C   UNL     1      47.376   5.297  18.237  0.00  0.00    +0.000 C 
ATOM      2  C   UNL     1      48.292   6.486  18.578  0.00  0.00    +0.000 C 
ATOM      3  C   UNL     1      47.604   7.634  19.298  0.00  0.00    +0.000 C 
ATOM      4  C   UNL     1      47.642   8.755  18.567  0.00  0.00    +0.000 C 
ATOM      5  C   UNL     1      48.307   8.482  17.328  0.00  0.00    +0.000 C 
ATOM      6  C   UNL     1      48.712   7.197  17.284  0.00  0.00    +0.000 C 
ENDROOT
BRANCH   2   7
ATOM      7  N   UNL     1      49.473   6.074  19.340  0.00  0.00    +0.000 N 
ATOM      8  H   UNL     1      49.284   5.913  20.329  0.00  0.00    +0.000 HD
BRANCH   7   9
ATOM      9  C   UNL     1      50.484   5.220  18.861  0.00  0.00    +0.000 A 
ATOM     10  C   UNL     1      50.195   3.983  18.265  0.00  0.00    +0.000 A 
ATOM     11  C   UNL     1      51.162   3.141  17.713  0.00  0.00    +0.000 A 
ATOM     12  C   UNL     1      52.486   3.573  17.686  0.00  0.00    +0.000 A 
ATOM     13  C   UNL     1      52.826   4.801  18.258  0.00  0.00    +0.000 A 
ATOM     14  C   UNL     1      51.839   5.606  18.854  0.00  0.00    +0.000 A 
ATOM     15 CL   UNL     1      52.348   7.085  19.596  0.00  0.00    +0.000 Cl
BRANCH  11  16
ATOM     16  C   UNL     1      50.807   1.800  17.164  0.00  0.00    +0.000 C 
ATOM     17  N   UNL     1      51.358   0.680  17.734  0.00  0.00    +0.000 N 
ATOM     18  O   UNL     1      50.051   1.691  16.209  0.00  0.00    +0.000 OA
ATOM     19  H   UNL     1      52.023   0.654  18.489  0.00  0.00    +0.000 HD
ATOM     20  H   UNL     1      51.116  -0.208  17.309  0.00  0.00    +0.000 HD
ENDBRANCH  11  16
ENDBRANCH   7   9
ENDBRANCH   2   7
BRANCH   6  21
ATOM     21  C   UNL     1      49.301   6.503  16.081  0.00  0.00    +0.000 C 
BRANCH  21  22
ATOM     22  C   UNL     1      48.286   6.337  14.937  0.00  0.00    +0.000 C 
BRANCH  22  23
ATOM     23  O   UNL     1      47.901   4.966  14.771  0.00  0.00    +0.000 OA
BRANCH  23  24
ATOM     24  C   UNL     1      46.885   4.835  13.834  0.00  0.00    +0.000 A 
ATOM     25  C   UNL     1      46.367   5.993  13.284  0.00  0.00    +0.000 A 
ATOM     26  C   UNL     1      45.341   5.877  12.337  0.00  0.00    +0.000 A 
ATOM     27  C   UNL     1      44.883   4.608  11.980  0.00  0.00    +0.000 A 
ATOM     28  C   UNL     1      45.465   3.510  12.585  0.00  0.00    +0.000 A 
ATOM     29  N   UNL     1      46.451   3.600  13.501  0.00  0.00    +0.000 NA
BRANCH  26  30
ATOM     30  C   UNL     1      44.781   7.124  11.746  0.00  0.00    +0.000 C 
ATOM     31  N   UNL     1      43.511   7.103  11.236  0.00  0.00    +0.000 N 
ATOM     32  O   UNL     1      45.437   8.159  11.714  0.00  0.00    +0.000 OA
ATOM     33  H   UNL     1      42.890   6.311  11.221  0.00  0.00    +0.000 HD
ATOM     34  H   UNL     1      43.165   7.974  10.851  0.00  0.00    +0.000 HD
ENDBRANCH  26  30
ENDBRANCH  23  24
ENDBRANCH  22  23
ENDBRANCH  21  22
ENDBRANCH   6  21
TORSDOF 8
ENDMDL
MODEL 9
REMARK VINA RESULT:    -5.947      1.923      4.377
REMARK INTER + INTRA:         -10.531
REMARK INTER:                  -9.154
REMARK INTRA:                  -1.377
REMARK UNBOUND:                -1.803
REMARK  Name = 
REMARK  9 active torsions:
REMARK  status: ('A' for Active; 'I' for Inactive)
REMARK    1  A    between atoms: C_1  and  C_2
REMARK    2  A    between atoms: C_2  and  N_3
REMARK    3  A    between atoms: N_3  and  C_4
REMARK    4  A    between atoms: C_6  and  C_7
REMARK    5  A    between atoms: C_17  and  C_18
REMARK    6  A    between atoms: C_18  and  C_19
REMARK    7  A    between atoms: C_19  and  O_20
REMARK    8  A    between atoms: O_20  and  C_21
REMARK    9  A    between atoms: C_23  and  C_24
REMARK                            x       y       z     vdW  Elec       q    Type
REMARK                         _______ _______ _______ _____ _____    ______ ____
ROOT
ATOM      1  C   UNL     1      50.574   5.444  17.235  0.00  0.00    +0.000 C 
ATOM      2  C   UNL     1      49.199   5.409  17.926  0.00  0.00    +0.000 C 
ATOM      3  C   UNL     1      49.247   5.480  19.444  0.00  0.00    +0.000 C 
ATOM      4  C   UNL     1      48.738   4.371  19.995  0.00  0.00    +0.000 C 
ATOM      5  C   UNL     1      48.337   3.473  18.953  0.00  0.00    +0.000 C 
ATOM      6  C   UNL     1      48.569   4.023  17.744  0.00  0.00    +0.000 C 
ENDROOT
BRANCH   2   7
ATOM      7  N   UNL     1      48.300   6.449  17.421  0.00  0.00    +0.000 N 
ATOM      8  H   UNL     1      47.574   6.717  18.085  0.00  0.00    +0.000 HD
BRANCH   7   9
ATOM      9  C   UNL     1      48.696   7.537  16.621  0.00  0.00    +0.000 A 
ATOM     10  C   UNL     1      48.895   7.413  15.238  0.00  0.00    +0.000 A 
ATOM     11  C   UNL     1      49.215   8.482  14.399  0.00  0.00    +0.000 A 
ATOM     12  C   UNL     1      49.279   9.762  14.944  0.00  0.00    +0.000 A 
ATOM     13  C   UNL     1      49.079   9.943  16.314  0.00  0.00    +0.000 A 
ATOM     14  C   UNL     1      48.809   8.841  17.145  0.00  0.00    +0.000 A 
ATOM     15 CL   UNL     1      48.635   9.137  18.841  0.00  0.00    +0.000 Cl
BRANCH  11  16
ATOM     16  C   UNL     1      49.496   8.277  12.947  0.00  0.00    +0.000 C 
ATOM     17  N   UNL     1      49.884   7.034  12.513  0.00  0.00    +0.000 N 
ATOM     18  O   UNL     1      49.403   9.202  12.152  0.00  0.00    +0.000 OA
ATOM     19  H   UNL     1      50.037   6.219  13.083  0.00  0.00    +0.000 HD
ATOM     20  H   UNL     1      50.097   6.948  11.527  0.00  0.00    +0.000 HD
ENDBRANCH  11  16
ENDBRANCH   7   9
ENDBRANCH   2   7
BRANCH   6  21
ATOM     21  C   UNL     1      48.426   3.317  16.417  0.00  0.00    +0.000 C 
BRANCH  21  22
ATOM     22  C   UNL     1      47.302   3.910  15.549  0.00  0.00    +0.000 C 
BRANCH  22  23
ATOM     23  O   UNL     1      47.215   3.249  14.279  0.00  0.00    +0.000 OA
BRANCH  23  24
ATOM     24  C   UNL     1      46.649   4.074  13.317  0.00  0.00    +0.000 A 
ATOM     25  C   UNL     1      45.672   3.532  12.502  0.00  0.00    +0.000 A 
ATOM     26  C   UNL     1      45.092   4.353  11.526  0.00  0.00    +0.000 A 
ATOM     27  C   UNL     1      45.511   5.679  11.413  0.00  0.00    +0.000 A 
ATOM     28  C   UNL     1      46.494   6.128  12.275  0.00  0.00    +0.000 A 
ATOM     29  N   UNL     1      47.067   5.354  13.218  0.00  0.00    +0.000 NA
BRANCH  26  30
ATOM     30  C   UNL     1      44.041   3.770  10.647  0.00  0.00    +0.000 C 
ATOM     31  N   UNL     1      43.879   4.273   9.385  0.00  0.00    +0.000 N 
ATOM     32  O   UNL     1      43.329   2.850  11.035  0.00  0.00    +0.000 OA
ATOM     33  H   UNL     1      44.414   5.018   8.969  0.00  0.00    +0.000 HD
ATOM     34  H   UNL     1      43.159   3.843   8.816  0.00  0.00    +0.000 HD
ENDBRANCH  26  30
ENDBRANCH  23  24
ENDBRANCH  22  23
ENDBRANCH  21  22
ENDBRANCH   6  21
TORSDOF 8
ENDMDL
