MODEL 1
REMARK VINA RESULT:    -8.136      0.000      0.000
REMARK INTER + INTRA:         -10.798
REMARK INTER:                 -10.276
REMARK INTRA:                  -0.522
REMARK UNBOUND:                -0.522
REMARK  Name = 
REMARK  5 active torsions:
REMARK  status: ('A' for Active; 'I' for Inactive)
REMARK    1  A    between atoms: N_1  and  C_2
REMARK    2  A    between atoms: C_2  and  C_3
REMARK    3  A    between atoms: C_3  and  C_4
REMARK    4  A    between atoms: C_7  and  C_8
REMARK    5  A    between atoms: C_8  and  C_9
REMARK                            x       y       z     vdW  Elec       q    Type
REMARK                         _______ _______ _______ _____ _____    ______ ____
ROOT
ATOM      1  C   UNL     1      43.382   2.854  11.275  0.00  0.00    +0.000 C 
ENDROOT
BRANCH   1   2
ATOM      2  C   UNL     1      43.499   4.166  11.993  0.00  0.00    +0.000 A 
ATOM      3  C   UNL     1      42.581   5.206  11.990  0.00  0.00    +0.000 A 
ATOM      4  N   UNL     1      43.143   6.276  12.633  0.00  0.00    +0.000 N 
ATOM      5  C   UNL     1      44.482   6.041  12.811  0.00  0.00    +0.000 A 
ATOM      6  C   UNL     1      45.530   6.913  13.096  0.00  0.00    +0.000 A 
ATOM      7  F   UNL     1      45.340   8.240  13.106  0.00  0.00    +0.000 F 
ATOM      8  C   UNL     1      46.802   6.384  13.298  0.00  0.00    +0.000 A 
ATOM      9  C   UNL     1      46.992   5.004  13.305  0.00  0.00    +0.000 A 
ATOM     10  C   UNL     1      45.941   4.136  12.977  0.00  0.00    +0.000 A 
ATOM     11  C   UNL     1      44.680   4.673  12.639  0.00  0.00    +0.000 A 
ATOM     12  H   UNL     1      42.683   7.152  12.841  0.00  0.00    +0.000 HD
ENDBRANCH   1   2
BRANCH   1  16
ATOM     13  C   UNL     1      45.856   3.059   7.717  0.00  0.00    +0.000 A 
ATOM     14  C   UNL     1      45.191   4.194   8.188  0.00  0.00    +0.000 A 
ATOM     15  C   UNL     1      44.385   4.129   9.333  0.00  0.00    +0.000 A 
ATOM     16  C   UNL     1      44.207   2.921  10.015  0.00  0.00    +0.000 A 
ATOM     17  C   UNL     1      44.850   1.781   9.541  0.00  0.00    +0.000 A 
ATOM     18  C   UNL     1      45.661   1.848   8.397  0.00  0.00    +0.000 A 
BRANCH  13  19
ATOM     19  C   UNL     1      46.685   3.034   6.452  0.00  0.00    +0.000 C 
BRANCH  19  20
ATOM     20  C   UNL     1      48.129   2.533   6.574  0.00  0.00    +0.000 C 
BRANCH  20  21
ATOM     21  N   UNL     1      48.519   1.776   5.380  0.00  0.00    +0.000 NA
ATOM     22  H   UNL     1      49.351   1.225   5.583  0.00  0.00    +0.000 HD
ATOM     23  H   UNL     1      48.781   2.424   4.634  0.00  0.00    +0.000 HD
ENDBRANCH  20  21
ENDBRANCH  19  20
ENDBRANCH  13  19
ENDBRANCH   1  16
TORSDOF 5
ENDMDL
MODEL 2
REMARK VINA RESULT:    -7.733      3.159      6.484
REMARK INTER + INTRA:         -10.289
REMARK INTER:                 -10.181
REMARK INTRA:                  -0.108
REMARK UNBOUND:                -0.522
REMARK  Name = 
REMARK  5 active torsions:
REMARK  status: ('A' for Active; 'I' for Inactive)
REMARK    1  A    between atoms: N_1  and  C_2
REMARK    2  A    between atoms: C_2  and  C_3
REMARK    3  A    between atoms: C_3  and  C_4
REMARK    4  A    between atoms: C_7  and  C_8
REMARK    5  A    between atoms: C_8  and  C_9
REMARK                            x       y       z     vdW  Elec       q    Type
REMARK                         _______ _______ _______ _____ _____    ______ ____
ROOT
ATOM      1  C   UNL     1      44.637   5.011   9.862  0.00  0.00    +0.000 C 
ENDROOT
BRANCH   1   2
ATOM      2  C   UNL     1      44.757   3.624   9.302  0.00  0.00    +0.000 A 
ATOM      3  C   UNL     1      44.184   2.466   9.806  0.00  0.00    +0.000 A 
ATOM      4  N   UNL     1      44.672   1.402   9.097  0.00  0.00    +0.000 N 
ATOM      5  C   UNL     1      45.734   1.818   8.336  0.00  0.00    +0.000 A 
ATOM      6  C   UNL     1      46.752   1.094   7.718  0.00  0.00    +0.000 A 
ATOM      7  F   UNL     1      46.885  -0.223   7.927  0.00  0.00    +0.000 F 
ATOM      8  C   UNL     1      47.676   1.779   6.935  0.00  0.00    +0.000 A 
ATOM      9  C   UNL     1      47.524   3.145   6.705  0.00  0.00    +0.000 A 
ATOM     10  C   UNL     1      46.521   3.872   7.364  0.00  0.00    +0.000 A 
ATOM     11  C   UNL     1      45.662   3.208   8.266  0.00  0.00    +0.000 A 
ATOM     12  H   UNL     1      44.383   0.438   9.199  0.00  0.00    +0.000 HD
ENDBRANCH   1   2
BRANCH   1  16
ATOM     13  C   UNL     1      46.834   5.281  13.593  0.00  0.00    +0.000 A 
ATOM     14  C   UNL     1      47.075   6.187  12.557  0.00  0.00    +0.000 A 
ATOM     15  C   UNL     1      46.372   6.097  11.347  0.00  0.00    +0.000 A 
ATOM     16  C   UNL     1      45.432   5.083  11.140  0.00  0.00    +0.000 A 
ATOM     17  C   UNL     1      45.199   4.165  12.160  0.00  0.00    +0.000 A 
ATOM     18  C   UNL     1      45.900   4.258  13.373  0.00  0.00    +0.000 A 
BRANCH  13  19
ATOM     19  C   UNL     1      47.599   5.271  14.897  0.00  0.00    +0.000 C 
BRANCH  19  20
ATOM     20  C   UNL     1      47.278   4.143  15.886  0.00  0.00    +0.000 C 
BRANCH  20  21
ATOM     21  N   UNL     1      48.016   2.924  15.540  0.00  0.00    +0.000 NA
ATOM     22  H   UNL     1      48.915   2.923  16.017  0.00  0.00    +0.000 HD
ATOM     23  H   UNL     1      48.223   2.920  14.539  0.00  0.00    +0.000 HD
ENDBRANCH  20  21
ENDBRANCH  19  20
ENDBRANCH  13  19
ENDBRANCH   1  16
TORSDOF 5
ENDMDL
MODEL 3
REMARK VINA RESULT:    -7.578      1.877      2.741
REMARK INTER + INTRA:         -10.093
REMARK INTER:                  -9.423
REMARK INTRA:                  -0.670
REMARK UNBOUND:                -0.522
REMARK  Name = 
REMARK  5 active torsions:
REMARK  status: ('A' for Active; 'I' for Inactive)
REMARK    1  A    between atoms: N_1  and  C_2
REMARK    2  A    between atoms: C_2  and  C_3
REMARK    3  A    between atoms: C_3  and  C_4
REMARK    4  A    between atoms: C_7  and  C_8
REMARK    5  A    between atoms: C_8  and  C_9
REMARK                            x       y       z     vdW  Elec       q    Type
REMARK                         _______ _______ _______ _____ _____    ______ ____
ROOT
ATOM      1  C   UNL     1      44.631   5.462  11.352  0.00  0.00    +0.000 C 
ENDROOT
BRANCH   1   2
ATOM      2  C   UNL     1      45.675   5.406  12.427  0.00  0.00    +0.000 A 
ATOM      3  C   UNL     1      45.585   4.754  13.648  0.00  0.00    +0.000 A 
ATOM      4  N   UNL     1      46.682   5.087  14.394  0.00  0.00    +0.000 N 
ATOM      5  C   UNL     1      47.333   6.135  13.796  0.00  0.00    +0.000 A 
ATOM      6  C   UNL     1      48.271   7.033  14.300  0.00  0.00    +0.000 A 
ATOM      7  F   UNL     1      48.580   7.047  15.604  0.00  0.00    +0.000 F 
ATOM      8  C   UNL     1      48.829   7.970  13.435  0.00  0.00    +0.000 A 
ATOM      9  C   UNL     1      48.518   7.941  12.077  0.00  0.00    +0.000 A 
ATOM     10  C   UNL     1      47.543   7.061  11.586  0.00  0.00    +0.000 A 
ATOM     11  C   UNL     1      46.874   6.198  12.482  0.00  0.00    +0.000 A 
ATOM     12  H   UNL     1      46.919   4.709  15.303  0.00  0.00    +0.000 HD
ENDBRANCH   1   2
BRANCH   1  16
ATOM     13  C   UNL     1      45.807   2.983   7.991  0.00  0.00    +0.000 A 
ATOM     14  C   UNL     1      45.168   2.423   9.100  0.00  0.00    +0.000 A 
ATOM     15  C   UNL     1      44.794   3.221  10.191  0.00  0.00    +0.000 A 
ATOM     16  C   UNL     1      45.075   4.590  10.205  0.00  0.00    +0.000 A 
ATOM     17  C   UNL     1      45.729   5.153   9.113  0.00  0.00    +0.000 A 
ATOM     18  C   UNL     1      46.099   4.354   8.019  0.00  0.00    +0.000 A 
BRANCH  13  19
ATOM     19  C   UNL     1      46.302   2.179   6.810  0.00  0.00    +0.000 C 
BRANCH  19  20
ATOM     20  C   UNL     1      47.683   1.526   6.940  0.00  0.00    +0.000 C 
BRANCH  20  21
ATOM     21  N   UNL     1      48.518   1.840   5.776  0.00  0.00    +0.000 NA
ATOM     22  H   UNL     1      47.993   2.423   5.128  0.00  0.00    +0.000 HD
ATOM     23  H   UNL     1      48.741   0.980   5.271  0.00  0.00    +0.000 HD
ENDBRANCH  20  21
ENDBRANCH  19  20
ENDBRANCH  13  19
ENDBRANCH   1  16
TORSDOF 5
ENDMDL
MODEL 4
REMARK VINA RESULT:    -7.449      3.071      6.542
REMARK INTER + INTRA:          -9.930
REMARK INTER:                  -9.546
REMARK INTRA:                  -0.384
REMARK UNBOUND:                -0.522
REMARK  Name = 
REMARK  5 active torsions:
REMARK  status: ('A' for Active; 'I' for Inactive)
REMARK    1  A    between atoms: N_1  and  C_2
REMARK    2  A    between atoms: C_2  and  C_3
REMARK    3  A    between atoms: C_3  and  C_4
REMARK    4  A    between atoms: C_7  and  C_8
REMARK    5  A    between atoms: C_8  and  C_9
REMARK                            x       y       z     vdW  Elec       q    Type
REMARK                         _______ _______ _______ _____ _____    ______ ____
ROOT
ATOM      1  C   UNL     1      44.382   4.941   9.823  0.00  0.00    +0.000 C 
ENDROOT
BRANCH   1   2
ATOM      2  C   UNL     1      44.615   3.555   9.299  0.00  0.00    +0.000 A 
ATOM      3  C   UNL     1      44.165   2.365   9.852  0.00  0.00    +0.000 A 
ATOM      4  N   UNL     1      44.731   1.329   9.159  0.00  0.00    +0.000 N 
ATOM      5  C   UNL     1      45.731   1.817   8.358  0.00  0.00    +0.000 A 
ATOM      6  C   UNL     1      46.795   1.170   7.733  0.00  0.00    +0.000 A 
ATOM      7  F   UNL     1      47.055  -0.122   7.975  0.00  0.00    +0.000 F 
ATOM      8  C   UNL     1      47.633   1.912   6.905  0.00  0.00    +0.000 A 
ATOM      9  C   UNL     1      47.349   3.251   6.642  0.00  0.00    +0.000 A 
ATOM     10  C   UNL     1      46.301   3.904   7.307  0.00  0.00    +0.000 A 
ATOM     11  C   UNL     1      45.529   3.191   8.251  0.00  0.00    +0.000 A 
ATOM     12  H   UNL     1      44.535   0.346   9.296  0.00  0.00    +0.000 HD
ENDBRANCH   1   2
BRANCH   1  16
ATOM     13  C   UNL     1      46.956   5.683  13.234  0.00  0.00    +0.000 A 
ATOM     14  C   UNL     1      47.059   6.465  12.081  0.00  0.00    +0.000 A 
ATOM     15  C   UNL     1      46.234   6.222  10.974  0.00  0.00    +0.000 A 
ATOM     16  C   UNL     1      45.307   5.176  10.989  0.00  0.00    +0.000 A 
ATOM     17  C   UNL     1      45.211   4.380  12.127  0.00  0.00    +0.000 A 
ATOM     18  C   UNL     1      46.035   4.626  13.237  0.00  0.00    +0.000 A 
BRANCH  13  19
ATOM     19  C   UNL     1      47.857   5.838  14.440  0.00  0.00    +0.000 C 
BRANCH  19  20
ATOM     20  C   UNL     1      48.703   7.115  14.519  0.00  0.00    +0.000 C 
BRANCH  20  21
ATOM     21  N   UNL     1      47.963   8.187  15.191  0.00  0.00    +0.000 NA
ATOM     22  H   UNL     1      48.187   8.185  16.185  0.00  0.00    +0.000 HD
ATOM     23  H   UNL     1      46.959   8.006  15.125  0.00  0.00    +0.000 HD
ENDBRANCH  20  21
ENDBRANCH  19  20
ENDBRANCH  13  19
ENDBRANCH   1  16
TORSDOF 5
ENDMDL
MODEL 5
REMARK VINA RESULT:    -6.816      2.999      5.701
REMARK INTER + INTRA:          -9.131
REMARK INTER:                  -8.348
REMARK INTRA:                  -0.782
REMARK UNBOUND:                -0.522
REMARK  Name = 
REMARK  5 active torsions:
REMARK  status: ('A' for Active; 'I' for Inactive)
REMARK    1  A    between atoms: N_1  and  C_2
REMARK    2  A    between atoms: C_2  and  C_3
REMARK    3  A    between atoms: C_3  and  C_4
REMARK    4  A    between atoms: C_7  and  C_8
REMARK    5  A    between atoms: C_8  and  C_9
REMARK                            x       y       z     vdW  Elec       q    Type
REMARK                         _______ _______ _______ _____ _____    ______ ____
ROOT
ATOM      1  C   UNL     1      43.715   5.280  12.597  0.00  0.00    +0.000 C 
ENDROOT
BRANCH   1   2
ATOM      2  C   UNL     1      43.741   4.104  11.666  0.00  0.00    +0.000 A 
ATOM      3  C   UNL     1      43.385   2.796  11.960  0.00  0.00    +0.000 A 
ATOM      4  N   UNL     1      43.710   2.012  10.887  0.00  0.00    +0.000 N 
ATOM      5  C   UNL     1      44.500   2.730  10.027  0.00  0.00    +0.000 A 
ATOM      6  C   UNL     1      45.342   2.313   8.999  0.00  0.00    +0.000 A 
ATOM      7  F   UNL     1      45.590   1.011   8.796  0.00  0.00    +0.000 F 
ATOM      8  C   UNL     1      45.982   3.278   8.227  0.00  0.00    +0.000 A 
ATOM      9  C   UNL     1      45.707   4.629   8.428  0.00  0.00    +0.000 A 
ATOM     10  C   UNL     1      44.892   5.042   9.492  0.00  0.00    +0.000 A 
ATOM     11  C   UNL     1      44.346   4.074  10.363  0.00  0.00    +0.000 A 
ATOM     12  H   UNL     1      43.506   1.026  10.789  0.00  0.00    +0.000 HD
ENDBRANCH   1   2
BRANCH   1  16
ATOM     13  C   UNL     1      47.758   6.653  13.364  0.00  0.00    +0.000 A 
ATOM     14  C   UNL     1      46.841   7.473  12.702  0.00  0.00    +0.000 A 
ATOM     15  C   UNL     1      45.536   7.029  12.446  0.00  0.00    +0.000 A 
ATOM     16  C   UNL     1      45.130   5.746  12.824  0.00  0.00    +0.000 A 
ATOM     17  C   UNL     1      46.043   4.915  13.468  0.00  0.00    +0.000 A 
ATOM     18  C   UNL     1      47.348   5.363  13.728  0.00  0.00    +0.000 A 
BRANCH  13  19
ATOM     19  C   UNL     1      49.200   7.034  13.614  0.00  0.00    +0.000 C 
BRANCH  19  20
ATOM     20  C   UNL     1      49.852   7.995  12.613  0.00  0.00    +0.000 C 
BRANCH  20  21
ATOM     21  N   UNL     1      50.657   7.258  11.634  0.00  0.00    +0.000 NA
ATOM     22  H   UNL     1      50.129   7.153  10.769  0.00  0.00    +0.000 HD
ATOM     23  H   UNL     1      50.833   6.311  11.977  0.00  0.00    +0.000 HD
ENDBRANCH  20  21
ENDBRANCH  19  20
ENDBRANCH  13  19
ENDBRANCH   1  16
TORSDOF 5
ENDMDL
MODEL 6
REMARK VINA RESULT:    -6.384      3.351      6.681
REMARK INTER + INTRA:          -8.586
REMARK INTER:                  -8.052
REMARK INTRA:                  -0.533
REMARK UNBOUND:                -0.522
REMARK  Name = 
REMARK  5 active torsions:
REMARK  status: ('A' for Active; 'I' for Inactive)
REMARK    1  A    between atoms: N_1  and  C_2
REMARK    2  A    between atoms: C_2  and  C_3
REMARK    3  A    between atoms: C_3  and  C_4
REMARK    4  A    between atoms: C_7  and  C_8
REMARK    5  A    between atoms: C_8  and  C_9
REMARK                            x       y       z     vdW  Elec       q    Type
REMARK                         _______ _______ _______ _____ _____    ______ ____
ROOT
ATOM      1  C   UNL     1      47.744   7.027  12.074  0.00  0.00    +0.000 C 
ENDROOT
BRANCH   1   2
ATOM      2  C   UNL     1      46.281   7.202  11.792  0.00  0.00    +0.000 A 
ATOM      3  C   UNL     1      45.454   8.212  12.260  0.00  0.00    +0.000 A 
ATOM      4  N   UNL     1      44.167   7.911  11.905  0.00  0.00    +0.000 N 
ATOM      5  C   UNL     1      44.114   6.615  11.459  0.00  0.00    +0.000 A 
ATOM      6  C   UNL     1      43.035   5.748  11.304  0.00  0.00    +0.000 A 
ATOM      7  F   UNL     1      41.812   6.085  11.738  0.00  0.00    +0.000 F 
ATOM      8  C   UNL     1      43.264   4.490  10.756  0.00  0.00    +0.000 A 
ATOM      9  C   UNL     1      44.533   4.150  10.290  0.00  0.00    +0.000 A 
ATOM     10  C   UNL     1      45.621   5.013  10.487  0.00  0.00    +0.000 A 
ATOM     11  C   UNL     1      45.422   6.235  11.164  0.00  0.00    +0.000 A 
ATOM     12  H   UNL     1      43.357   8.499  12.053  0.00  0.00    +0.000 HD
ENDBRANCH   1   2
BRANCH   1  16
ATOM     13  C   UNL     1      48.091   5.298  16.037  0.00  0.00    +0.000 A 
ATOM     14  C   UNL     1      48.796   6.456  15.701  0.00  0.00    +0.000 A 
ATOM     15  C   UNL     1      48.692   7.013  14.419  0.00  0.00    +0.000 A 
ATOM     16  C   UNL     1      47.900   6.407  13.438  0.00  0.00    +0.000 A 
ATOM     17  C   UNL     1      47.209   5.242  13.759  0.00  0.00    +0.000 A 
ATOM     18  C   UNL     1      47.310   4.688  15.045  0.00  0.00    +0.000 A 
BRANCH  13  19
ATOM     19  C   UNL     1      48.205   4.600  17.375  0.00  0.00    +0.000 C 
BRANCH  19  20
ATOM     20  C   UNL     1      47.999   3.081  17.389  0.00  0.00    +0.000 C 
BRANCH  20  21
ATOM     21  N   UNL     1      46.628   2.747  17.789  0.00  0.00    +0.000 NA
ATOM     22  H   UNL     1      45.969   3.198  17.158  0.00  0.00    +0.000 HD
ATOM     23  H   UNL     1      46.439   3.127  18.719  0.00  0.00    +0.000 HD
ENDBRANCH  20  21
ENDBRANCH  19  20
ENDBRANCH  13  19
ENDBRANCH   1  16
TORSDOF 5
ENDMDL
MODEL 7
REMARK VINA RESULT:    -6.104      2.298      3.354
REMARK INTER + INTRA:          -8.231
REMARK INTER:                  -7.869
REMARK INTRA:                  -0.362
REMARK UNBOUND:                -0.522
REMARK  Name = 
REMARK  5 active torsions:
REMARK  status: ('A' for Active; 'I' for Inactive)
REMARK    1  A    between atoms: N_1  and  C_2
REMARK    2  A    between atoms: C_2  and  C_3
REMARK    3  A    between atoms: C_3  and  C_4
REMARK    4  A    between atoms: C_7  and  C_8
REMARK    5  A    between atoms: C_8  and  C_9
REMARK                            x       y       z     vdW  Elec       q    Type
REMARK                         _______ _______ _______ _____ _____    ______ ____
ROOT
ATOM      1  C   UNL     1      45.059   5.816  12.888  0.00  0.00    +0.000 C 
ENDROOT
BRANCH   1   2
ATOM      2  C   UNL     1      45.731   7.152  12.764  0.00  0.00    +0.000 A 
ATOM      3  C   UNL     1      45.130   8.367  12.474  0.00  0.00    +0.000 A 
ATOM      4  N   UNL     1      46.114   9.300  12.293  0.00  0.00    +0.000 N 
ATOM      5  C   UNL     1      47.325   8.664  12.196  0.00  0.00    +0.000 A 
ATOM      6  C   UNL     1      48.548   9.104  11.694  0.00  0.00    +0.000 A 
ATOM      7  F   UNL     1      48.652  10.286  11.070  0.00  0.00    +0.000 F 
ATOM      8  C   UNL     1      49.649   8.259  11.787  0.00  0.00    +0.000 A 
ATOM      9  C   UNL     1      49.541   7.039  12.452  0.00  0.00    +0.000 A 
ATOM     10  C   UNL     1      48.298   6.587  12.918  0.00  0.00    +0.000 A 
ATOM     11  C   UNL     1      47.150   7.380  12.708  0.00  0.00    +0.000 A 
ATOM     12  H   UNL     1      45.973  10.289  12.135  0.00  0.00    +0.000 HD
ENDBRANCH   1   2
BRANCH   1  16
ATOM     13  C   UNL     1      45.235   3.808   9.047  0.00  0.00    +0.000 A 
ATOM     14  C   UNL     1      44.826   3.120  10.192  0.00  0.00    +0.000 A 
ATOM     15  C   UNL     1      44.776   3.764  11.436  0.00  0.00    +0.000 A 
ATOM     16  C   UNL     1      45.158   5.103  11.564  0.00  0.00    +0.000 A 
ATOM     17  C   UNL     1      45.585   5.791  10.431  0.00  0.00    +0.000 A 
ATOM     18  C   UNL     1      45.630   5.146   9.185  0.00  0.00    +0.000 A 
BRANCH  13  19
ATOM     19  C   UNL     1      45.381   3.164   7.685  0.00  0.00    +0.000 C 
BRANCH  19  20
ATOM     20  C   UNL     1      46.657   2.353   7.430  0.00  0.00    +0.000 C 
BRANCH  20  21
ATOM     21  N   UNL     1      47.705   3.201   6.855  0.00  0.00    +0.000 NA
ATOM     22  H   UNL     1      48.316   3.538   7.597  0.00  0.00    +0.000 HD
ATOM     23  H   UNL     1      47.284   4.030   6.433  0.00  0.00    +0.000 HD
ENDBRANCH  20  21
ENDBRANCH  19  20
ENDBRANCH  13  19
ENDBRANCH   1  16
TORSDOF 5
ENDMDL
MODEL 8
REMARK VINA RESULT:    -5.496      4.148      5.972
REMARK INTER + INTRA:          -7.463
REMARK INTER:                  -6.822
REMARK INTRA:                  -0.641
REMARK UNBOUND:                -0.522
REMARK  Name = 
REMARK  5 active torsions:
REMARK  status: ('A' for Active; 'I' for Inactive)
REMARK    1  A    between atoms: N_1  and  C_2
REMARK    2  A    between atoms: C_2  and  C_3
REMARK    3  A    between atoms: C_3  and  C_4
REMARK    4  A    between atoms: C_7  and  C_8
REMARK    5  A    between atoms: C_8  and  C_9
REMARK                            x       y       z     vdW  Elec       q    Type
REMARK                         _______ _______ _______ _____ _____    ______ ____
ROOT
ATOM      1  C   UNL     1      46.710   8.604  13.362  0.00  0.00    +0.000 C 
ENDROOT
BRANCH   1   2
ATOM      2  C   UNL     1      45.656   7.990  12.488  0.00  0.00    +0.000 A 
ATOM      3  C   UNL     1      44.778   8.654  11.644  0.00  0.00    +0.000 A 
ATOM      4  N   UNL     1      43.880   7.744  11.159  0.00  0.00    +0.000 N 
ATOM      5  C   UNL     1      43.992   6.577  11.870  0.00  0.00    +0.000 A 
ATOM      6  C   UNL     1      43.119   5.499  11.996  0.00  0.00    +0.000 A 
ATOM      7  F   UNL     1      41.885   5.547  11.476  0.00  0.00    +0.000 F 
ATOM      8  C   UNL     1      43.526   4.395  12.739  0.00  0.00    +0.000 A 
ATOM      9  C   UNL     1      44.816   4.341  13.263  0.00  0.00    +0.000 A 
ATOM     10  C   UNL     1      45.673   5.446  13.166  0.00  0.00    +0.000 A 
ATOM     11  C   UNL     1      45.219   6.622  12.529  0.00  0.00    +0.000 A 
ATOM     12  H   UNL     1      43.163   7.927  10.469  0.00  0.00    +0.000 HD
ENDBRANCH   1   2
BRANCH   1  16
ATOM     13  C   UNL     1      50.518   8.668  11.285  0.00  0.00    +0.000 A 
ATOM     14  C   UNL     1      49.776   9.841  11.450  0.00  0.00    +0.000 A 
ATOM     15  C   UNL     1      48.542   9.822  12.114  0.00  0.00    +0.000 A 
ATOM     16  C   UNL     1      48.012   8.624  12.604  0.00  0.00    +0.000 A 
ATOM     17  C   UNL     1      48.735   7.448  12.427  0.00  0.00    +0.000 A 
ATOM     18  C   UNL     1      49.973   7.469  11.766  0.00  0.00    +0.000 A 
BRANCH  13  19
ATOM     19  C   UNL     1      51.821   8.596  10.521  0.00  0.00    +0.000 C 
BRANCH  19  20
ATOM     20  C   UNL     1      52.333   7.201  10.144  0.00  0.00    +0.000 C 
BRANCH  20  21
ATOM     21  N   UNL     1      53.479   6.825  10.979  0.00  0.00    +0.000 NA
ATOM     22  H   UNL     1      53.616   5.817  10.935  0.00  0.00    +0.000 HD
ATOM     23  H   UNL     1      53.279   7.045  11.956  0.00  0.00    +0.000 HD
ENDBRANCH  20  21
ENDBRANCH  19  20
ENDBRANCH  13  19
ENDBRANCH   1  16
TORSDOF 5
ENDMDL
MODEL 9
REMARK VINA RESULT:    -5.427      3.815      6.000
REMARK INTER + INTRA:          -7.376
REMARK INTER:                  -6.757
REMARK INTRA:                  -0.619
REMARK UNBOUND:                -0.522
REMARK  Name = 
REMARK  5 active torsions:
REMARK  status: ('A' for Active; 'I' for Inactive)
REMARK    1  A    between atoms: N_1  and  C_2
REMARK    2  A    between atoms: C_2  and  C_3
REMARK    3  A    between atoms: C_3  and  C_4
REMARK    4  A    between atoms: C_7  and  C_8
REMARK    5  A    between atoms: C_8  and  C_9
REMARK                            x       y       z     vdW  Elec       q    Type
REMARK                         _______ _______ _______ _____ _____    ______ ____
ROOT
ATOM      1  C   UNL     1      48.824   6.900  13.403  0.00  0.00    +0.000 C 
ENDROOT
BRANCH   1   2
ATOM      2  C   UNL     1      48.454   7.603  14.676  0.00  0.00    +0.000 A 
ATOM      3  C   UNL     1      47.922   8.877  14.804  0.00  0.00    +0.000 A 
ATOM      4  N   UNL     1      47.886   9.195  16.134  0.00  0.00    +0.000 N 
ATOM      5  C   UNL     1      48.620   8.274  16.837  0.00  0.00    +0.000 A 
ATOM      6  C   UNL     1      49.158   8.327  18.121  0.00  0.00    +0.000 A 
ATOM      7  F   UNL     1      49.117   9.456  18.840  0.00  0.00    +0.000 F 
ATOM      8  C   UNL     1      49.810   7.201  18.617  0.00  0.00    +0.000 A 
ATOM      9  C   UNL     1      49.835   6.023  17.873  0.00  0.00    +0.000 A 
ATOM     10  C   UNL     1      49.327   5.992  16.566  0.00  0.00    +0.000 A 
ATOM     11  C   UNL     1      48.785   7.169  16.006  0.00  0.00    +0.000 A 
ATOM     12  H   UNL     1      47.487  10.034  16.533  0.00  0.00    +0.000 HD
ENDBRANCH   1   2
BRANCH   1  16
ATOM     13  C   UNL     1      45.305   5.083  11.632  0.00  0.00    +0.000 A 
ATOM     14  C   UNL     1      45.913   6.189  11.033  0.00  0.00    +0.000 A 
ATOM     15  C   UNL     1      47.046   6.783  11.608  0.00  0.00    +0.000 A 
ATOM     16  C   UNL     1      47.578   6.298  12.807  0.00  0.00    +0.000 A 
ATOM     17  C   UNL     1      46.966   5.208  13.420  0.00  0.00    +0.000 A 
ATOM     18  C   UNL     1      45.835   4.611  12.841  0.00  0.00    +0.000 A 
BRANCH  13  19
ATOM     19  C   UNL     1      44.043   4.432  11.111  0.00  0.00    +0.000 C 
BRANCH  19  20
ATOM     20  C   UNL     1      44.093   2.922  10.850  0.00  0.00    +0.000 C 
BRANCH  20  21
ATOM     21  N   UNL     1      43.035   2.230  11.593  0.00  0.00    +0.000 NA
ATOM     22  H   UNL     1      42.788   2.773  12.419  0.00  0.00    +0.000 HD
ATOM     23  H   UNL     1      43.386   1.333  11.935  0.00  0.00    +0.000 HD
ENDBRANCH  20  21
ENDBRANCH  19  20
ENDBRANCH  13  19
ENDBRANCH   1  16
TORSDOF 5
ENDMDL
