MODEL 1
REMARK VINA RESULT:    -8.322      0.000      0.000
REMARK INTER + INTRA:         -11.099
REMARK INTER:                 -10.754
REMARK INTRA:                  -0.345
REMARK UNBOUND:                -0.345
REMARK  Name = 
REMARK  7 active torsions:
REMARK  status: ('A' for Active; 'I' for Inactive)
REMARK    1  A    between atoms: C_1  and  C_2
REMARK    2  A    between atoms: C_7  and  C_8
REMARK    3  A    between atoms: C_13  and  C_14
REMARK    4  A    between atoms: C_14  and  C_15
REMARK    5  A    between atoms: C_15  and  N_16
REMARK    6  A    between atoms: C_20  and  C_21
REMARK    7  A    between atoms: C_28  and  C_29
REMARK                            x       y       z     vdW  Elec       q    Type
REMARK                         _______ _______ _______ _____ _____    ______ ____
ROOT
ATOM      1  C   UNL     1      49.535   7.019  13.804  0.00  0.00    +0.000 C 
ATOM      2  C   UNL     1      49.373   8.397  14.437  0.00  0.00    +0.000 C 
ATOM      3  C   UNL     1      47.905   8.829  14.618  0.00  0.00    +0.000 C 
ATOM      4  N   UNL     1      47.352   9.492  13.436  0.00  0.00    +0.000 N 
ATOM      5  C   UNL     1      46.340   8.905  12.704  0.00  0.00    +0.000 A 
ATOM      6  C   UNL     1      45.462   9.713  11.986  0.00  0.00    +0.000 A 
ATOM      7  C   UNL     1      44.398   9.154  11.274  0.00  0.00    +0.000 A 
ATOM      8  C   UNL     1      44.252   7.768  11.282  0.00  0.00    +0.000 A 
ATOM      9  C   UNL     1      45.159   7.003  12.004  0.00  0.00    +0.000 A 
ATOM     10  N   UNL     1      46.173   7.561  12.719  0.00  0.00    +0.000 NA
ATOM     11  C   UNL     1      48.213  10.524  12.848  0.00  0.00    +0.000 C 
ATOM     12  C   UNL     1      49.642   9.992  12.620  0.00  0.00    +0.000 C 
ATOM     13  C   UNL     1      49.755   9.089  11.394  0.00  0.00    +0.000 C 
ATOM     14  O   UNL     1      50.198   9.384  13.796  0.00  0.00    +0.000 OA
ENDROOT
BRANCH   7  15
ATOM     15  C   UNL     1      43.426  10.024  10.528  0.00  0.00    +0.000 C 
ATOM     16  F   UNL     1      43.854  10.384   9.286  0.00  0.00    +0.000 F 
ATOM     17  F   UNL     1      42.224   9.412  10.343  0.00  0.00    +0.000 F 
ATOM     18  F   UNL     1      43.159  11.186  11.183  0.00  0.00    +0.000 F 
ENDBRANCH   7  15
BRANCH   9  19
ATOM     19  C   UNL     1      45.033   5.493  12.011  0.00  0.00    +0.000 C 
BRANCH  19  20
ATOM     20  C   UNL     1      43.838   5.040  11.169  0.00  0.00    +0.000 C 
BRANCH  20  21
ATOM     21  N   UNL     1      44.130   5.095   9.739  0.00  0.00    +0.000 N 
ATOM     22  C   UNL     1      44.908   4.088   9.178  0.00  0.00    +0.000 A 
ATOM     23  C   UNL     1      44.903   2.757   9.617  0.00  0.00    +0.000 A 
ATOM     24  N   UNL     1      45.612   1.751   9.042  0.00  0.00    +0.000 NA
ATOM     25  C   UNL     1      46.335   2.128   7.956  0.00  0.00    +0.000 A 
ATOM     26  C   UNL     1      46.356   3.435   7.498  0.00  0.00    +0.000 A 
ATOM     27  N   UNL     1      45.651   4.436   8.104  0.00  0.00    +0.000 NA
ATOM     28  H   UNL     1      44.446   5.986   9.362  0.00  0.00    +0.000 HD
BRANCH  25  29
ATOM     29  C   UNL     1      47.103   1.062   7.254  0.00  0.00    +0.000 C 
ATOM     30  N   UNL     1      46.777  -0.226   7.604  0.00  0.00    +0.000 N 
ATOM     31  O   UNL     1      47.951   1.310   6.410  0.00  0.00    +0.000 OA
ATOM     32  H   UNL     1      46.051  -0.392   8.290  0.00  0.00    +0.000 HD
ATOM     33  H   UNL     1      47.234  -1.000   7.143  0.00  0.00    +0.000 HD
ENDBRANCH  25  29
ENDBRANCH  20  21
ENDBRANCH  19  20
ENDBRANCH   9  19
TORSDOF 5
ENDMDL
MODEL 2
REMARK VINA RESULT:    -7.432      6.624      8.549
REMARK INTER + INTRA:          -9.950
REMARK INTER:                  -9.368
REMARK INTRA:                  -0.582
REMARK UNBOUND:                -0.345
REMARK  Name = 
REMARK  7 active torsions:
REMARK  status: ('A' for Active; 'I' for Inactive)
REMARK    1  A    between atoms: C_1  and  C_2
REMARK    2  A    between atoms: C_7  and  C_8
REMARK    3  A    between atoms: C_13  and  C_14
REMARK    4  A    between atoms: C_14  and  C_15
REMARK    5  A    between atoms: C_15  and  N_16
REMARK    6  A    between atoms: C_20  and  C_21
REMARK    7  A    between atoms: C_28  and  C_29
REMARK                            x       y       z     vdW  Elec       q    Type
REMARK                         _______ _______ _______ _____ _____    ______ ____
ROOT
ATOM      1  C   UNL     1      48.513   7.868  17.621  0.00  0.00    +0.000 C 
ATOM      2  C   UNL     1      49.897   8.338  17.189  0.00  0.00    +0.000 C 
ATOM      3  C   UNL     1      50.696   7.281  16.401  0.00  0.00    +0.000 C 
ATOM      4  N   UNL     1      51.456   6.376  17.264  0.00  0.00    +0.000 N 
ATOM      5  C   UNL     1      51.136   5.036  17.340  0.00  0.00    +0.000 A 
ATOM      6  C   UNL     1      52.129   4.115  17.666  0.00  0.00    +0.000 A 
ATOM      7  C   UNL     1      51.849   2.747  17.704  0.00  0.00    +0.000 A 
ATOM      8  C   UNL     1      50.547   2.330  17.432  0.00  0.00    +0.000 A 
ATOM      9  C   UNL     1      49.588   3.286  17.122  0.00  0.00    +0.000 A 
ATOM     10  N   UNL     1      49.880   4.614  17.057  0.00  0.00    +0.000 NA
ATOM     11  C   UNL     1      52.221   7.035  18.328  0.00  0.00    +0.000 C 
ATOM     12  C   UNL     1      51.335   8.014  19.124  0.00  0.00    +0.000 C 
ATOM     13  C   UNL     1      50.412   7.312  20.116  0.00  0.00    +0.000 C 
ATOM     14  O   UNL     1      50.627   8.930  18.276  0.00  0.00    +0.000 OA
ENDROOT
BRANCH   7  15
ATOM     15  C   UNL     1      52.925   1.747  18.019  0.00  0.00    +0.000 C 
ATOM     16  F   UNL     1      52.475   0.465  18.100  0.00  0.00    +0.000 F 
ATOM     17  F   UNL     1      53.908   1.736  17.077  0.00  0.00    +0.000 F 
ATOM     18  F   UNL     1      53.543   2.002  19.204  0.00  0.00    +0.000 F 
ENDBRANCH   7  15
BRANCH   9  19
ATOM     19  C   UNL     1      48.161   2.859  16.843  0.00  0.00    +0.000 C 
BRANCH  19  20
ATOM     20  C   UNL     1      47.475   3.838  15.887  0.00  0.00    +0.000 C 
BRANCH  20  21
ATOM     21  N   UNL     1      47.278   3.254  14.563  0.00  0.00    +0.000 N 
ATOM     22  C   UNL     1      46.333   3.824  13.717  0.00  0.00    +0.000 A 
ATOM     23  C   UNL     1      46.029   5.192  13.690  0.00  0.00    +0.000 A 
ATOM     24  N   UNL     1      45.153   5.773  12.829  0.00  0.00    +0.000 NA
ATOM     25  C   UNL     1      44.586   4.912  11.945  0.00  0.00    +0.000 A 
ATOM     26  C   UNL     1      44.870   3.556  11.947  0.00  0.00    +0.000 A 
ATOM     27  N   UNL     1      45.740   2.990  12.835  0.00  0.00    +0.000 NA
ATOM     28  H   UNL     1      47.180   2.242  14.509  0.00  0.00    +0.000 HD
BRANCH  25  29
ATOM     29  C   UNL     1      43.646   5.493  10.946  0.00  0.00    +0.000 C 
ATOM     30  N   UNL     1      43.081   6.694  11.298  0.00  0.00    +0.000 N 
ATOM     31  O   UNL     1      43.406   4.951   9.877  0.00  0.00    +0.000 OA
ATOM     32  H   UNL     1      43.324   7.123  12.183  0.00  0.00    +0.000 HD
ATOM     33  H   UNL     1      42.460   7.163  10.654  0.00  0.00    +0.000 HD
ENDBRANCH  25  29
ENDBRANCH  20  21
ENDBRANCH  19  20
ENDBRANCH   9  19
TORSDOF 5
ENDMDL
MODEL 3
REMARK VINA RESULT:    -7.109      4.554      6.778
REMARK INTER + INTRA:          -9.531
REMARK INTER:                  -8.930
REMARK INTRA:                  -0.601
REMARK UNBOUND:                -0.345
REMARK  Name = 
REMARK  7 active torsions:
REMARK  status: ('A' for Active; 'I' for Inactive)
REMARK    1  A    between atoms: C_1  and  C_2
REMARK    2  A    between atoms: C_7  and  C_8
REMARK    3  A    between atoms: C_13  and  C_14
REMARK    4  A    between atoms: C_14  and  C_15
REMARK    5  A    between atoms: C_15  and  N_16
REMARK    6  A    between atoms: C_20  and  C_21
REMARK    7  A    between atoms: C_28  and  C_29
REMARK                            x       y       z     vdW  Elec       q    Type
REMARK                         _______ _______ _______ _____ _____    ______ ____
ROOT
ATOM      1  C   UNL     1      50.150   7.755  14.250  0.00  0.00    +0.000 C 
ATOM      2  C   UNL     1      49.337   9.044  14.302  0.00  0.00    +0.000 C 
ATOM      3  C   UNL     1      47.844   8.827  14.618  0.00  0.00    +0.000 C 
ATOM      4  N   UNL     1      47.038   8.562  13.426  0.00  0.00    +0.000 N 
ATOM      5  C   UNL     1      46.439   7.334  13.234  0.00  0.00    +0.000 A 
ATOM      6  C   UNL     1      45.278   7.253  12.470  0.00  0.00    +0.000 A 
ATOM      7  C   UNL     1      44.620   6.033  12.297  0.00  0.00    +0.000 A 
ATOM      8  C   UNL     1      45.169   4.896  12.888  0.00  0.00    +0.000 A 
ATOM      9  C   UNL     1      46.334   5.024  13.632  0.00  0.00    +0.000 A 
ATOM     10  N   UNL     1      46.949   6.224  13.820  0.00  0.00    +0.000 NA
ATOM     11  C   UNL     1      47.285   9.469  12.299  0.00  0.00    +0.000 C 
ATOM     12  C   UNL     1      48.792   9.571  11.989  0.00  0.00    +0.000 C 
ATOM     13  C   UNL     1      49.330   8.359  11.232  0.00  0.00    +0.000 C 
ATOM     14  O   UNL     1      49.575   9.875  13.153  0.00  0.00    +0.000 OA
ENDROOT
BRANCH   7  15
ATOM     15  C   UNL     1      43.347   5.947  11.504  0.00  0.00    +0.000 C 
ATOM     16  F   UNL     1      43.450   5.182  10.383  0.00  0.00    +0.000 F 
ATOM     17  F   UNL     1      42.326   5.411  12.227  0.00  0.00    +0.000 F 
ATOM     18  F   UNL     1      42.911   7.166  11.086  0.00  0.00    +0.000 F 
ENDBRANCH   7  15
BRANCH   9  19
ATOM     19  C   UNL     1      46.961   3.799  14.268  0.00  0.00    +0.000 C 
BRANCH  19  20
ATOM     20  C   UNL     1      47.155   4.003  15.772  0.00  0.00    +0.000 C 
BRANCH  20  21
ATOM     21  N   UNL     1      47.744   2.826  16.406  0.00  0.00    +0.000 N 
ATOM     22  C   UNL     1      49.065   2.892  16.838  0.00  0.00    +0.000 A 
ATOM     23  C   UNL     1      49.673   4.057  17.325  0.00  0.00    +0.000 A 
ATOM     24  N   UNL     1      50.942   4.123  17.805  0.00  0.00    +0.000 NA
ATOM     25  C   UNL     1      51.601   2.936  17.805  0.00  0.00    +0.000 A 
ATOM     26  C   UNL     1      51.024   1.768  17.333  0.00  0.00    +0.000 A 
ATOM     27  N   UNL     1      49.752   1.728  16.836  0.00  0.00    +0.000 NA
ATOM     28  H   UNL     1      47.607   1.930  15.945  0.00  0.00    +0.000 HD
BRANCH  25  29
ATOM     29  C   UNL     1      52.984   2.933  18.358  0.00  0.00    +0.000 C 
ATOM     30  N   UNL     1      53.383   1.754  18.942  0.00  0.00    +0.000 N 
ATOM     31  O   UNL     1      53.725   3.902  18.284  0.00  0.00    +0.000 OA
ATOM     32  H   UNL     1      52.748   0.965  18.962  0.00  0.00    +0.000 HD
ATOM     33  H   UNL     1      54.320   1.670  19.307  0.00  0.00    +0.000 HD
ENDBRANCH  25  29
ENDBRANCH  20  21
ENDBRANCH  19  20
ENDBRANCH   9  19
TORSDOF 5
ENDMDL
MODEL 4
REMARK VINA RESULT:    -7.087      4.425      6.171
REMARK INTER + INTRA:          -9.503
REMARK INTER:                  -8.472
REMARK INTRA:                  -1.031
REMARK UNBOUND:                -0.345
REMARK  Name = 
REMARK  7 active torsions:
REMARK  status: ('A' for Active; 'I' for Inactive)
REMARK    1  A    between atoms: C_1  and  C_2
REMARK    2  A    between atoms: C_7  and  C_8
REMARK    3  A    between atoms: C_13  and  C_14
REMARK    4  A    between atoms: C_14  and  C_15
REMARK    5  A    between atoms: C_15  and  N_16
REMARK    6  A    between atoms: C_20  and  C_21
REMARK    7  A    between atoms: C_28  and  C_29
REMARK                            x       y       z     vdW  Elec       q    Type
REMARK                         _______ _______ _______ _____ _____    ______ ____
ROOT
ATOM      1  C   UNL     1      48.787   6.750  12.150  0.00  0.00    +0.000 C 
ATOM      2  C   UNL     1      49.555   8.059  12.292  0.00  0.00    +0.000 C 
ATOM      3  C   UNL     1      50.259   8.223  13.653  0.00  0.00    +0.000 C 
ATOM      4  N   UNL     1      49.396   8.811  14.678  0.00  0.00    +0.000 N 
ATOM      5  C   UNL     1      49.002   8.078  15.778  0.00  0.00    +0.000 A 
ATOM      6  C   UNL     1      48.696   8.739  16.965  0.00  0.00    +0.000 A 
ATOM      7  C   UNL     1      48.340   8.022  18.111  0.00  0.00    +0.000 A 
ATOM      8  C   UNL     1      48.276   6.633  18.028  0.00  0.00    +0.000 A 
ATOM      9  C   UNL     1      48.579   6.018  16.821  0.00  0.00    +0.000 A 
ATOM     10  N   UNL     1      48.955   6.725  15.720  0.00  0.00    +0.000 NA
ATOM     11  C   UNL     1      48.643   9.995  14.247  0.00  0.00    +0.000 C 
ATOM     12  C   UNL     1      47.900   9.727  12.922  0.00  0.00    +0.000 C 
ATOM     13  C   UNL     1      46.634   8.893  13.106  0.00  0.00    +0.000 C 
ATOM     14  O   UNL     1      48.761   9.193  11.905  0.00  0.00    +0.000 OA
ENDROOT
BRANCH   7  15
ATOM     15  C   UNL     1      48.046   8.729  19.403  0.00  0.00    +0.000 C 
ATOM     16  F   UNL     1      49.014   9.611  19.778  0.00  0.00    +0.000 F 
ATOM     17  F   UNL     1      46.891   9.449  19.345  0.00  0.00    +0.000 F 
ATOM     18  F   UNL     1      47.900   7.869  20.447  0.00  0.00    +0.000 F 
ENDBRANCH   7  15
BRANCH   9  19
ATOM     19  C   UNL     1      48.497   4.509  16.701  0.00  0.00    +0.000 C 
BRANCH  19  20
ATOM     20  C   UNL     1      47.122   4.076  16.186  0.00  0.00    +0.000 C 
BRANCH  20  21
ATOM     21  N   UNL     1      47.205   3.487  14.852  0.00  0.00    +0.000 N 
ATOM     22  C   UNL     1      46.294   3.895  13.884  0.00  0.00    +0.000 A 
ATOM     23  C   UNL     1      45.761   5.189  13.807  0.00  0.00    +0.000 A 
ATOM     24  N   UNL     1      44.915   5.620  12.834  0.00  0.00    +0.000 NA
ATOM     25  C   UNL     1      44.629   4.686  11.891  0.00  0.00    +0.000 A 
ATOM     26  C   UNL     1      45.144   3.401  11.941  0.00  0.00    +0.000 A 
ATOM     27  N   UNL     1      45.976   2.983  12.940  0.00  0.00    +0.000 NA
ATOM     28  H   UNL     1      47.295   2.475  14.794  0.00  0.00    +0.000 HD
BRANCH  25  29
ATOM     29  C   UNL     1      43.740   5.108  10.772  0.00  0.00    +0.000 C 
ATOM     30  N   UNL     1      44.161   4.746   9.516  0.00  0.00    +0.000 N 
ATOM     31  O   UNL     1      42.697   5.718  10.956  0.00  0.00    +0.000 OA
ATOM     32  H   UNL     1      45.019   4.219   9.407  0.00  0.00    +0.000 HD
ATOM     33  H   UNL     1      43.590   4.969   8.714  0.00  0.00    +0.000 HD
ENDBRANCH  25  29
ENDBRANCH  20  21
ENDBRANCH  19  20
ENDBRANCH   9  19
TORSDOF 5
ENDMDL
MODEL 5
REMARK VINA RESULT:    -7.061      3.805      7.539
REMARK INTER + INTRA:          -9.469
REMARK INTER:                  -8.829
REMARK INTRA:                  -0.640
REMARK UNBOUND:                -0.345
REMARK  Name = 
REMARK  7 active torsions:
REMARK  status: ('A' for Active; 'I' for Inactive)
REMARK    1  A    between atoms: C_1  and  C_2
REMARK    2  A    between atoms: C_7  and  C_8
REMARK    3  A    between atoms: C_13  and  C_14
REMARK    4  A    between atoms: C_14  and  C_15
REMARK    5  A    between atoms: C_15  and  N_16
REMARK    6  A    between atoms: C_20  and  C_21
REMARK    7  A    between atoms: C_28  and  C_29
REMARK                            x       y       z     vdW  Elec       q    Type
REMARK                         _______ _______ _______ _____ _____    ______ ____
ROOT
ATOM      1  C   UNL     1      45.472   3.055  12.306  0.00  0.00    +0.000 C 
ATOM      2  C   UNL     1      44.637   3.334  11.062  0.00  0.00    +0.000 C 
ATOM      3  C   UNL     1      45.107   4.562  10.259  0.00  0.00    +0.000 C 
ATOM      4  N   UNL     1      44.519   5.816  10.731  0.00  0.00    +0.000 N 
ATOM      5  C   UNL     1      45.304   6.791  11.312  0.00  0.00    +0.000 A 
ATOM      6  C   UNL     1      44.904   8.123  11.236  0.00  0.00    +0.000 A 
ATOM      7  C   UNL     1      45.699   9.139  11.772  0.00  0.00    +0.000 A 
ATOM      8  C   UNL     1      46.889   8.783  12.404  0.00  0.00    +0.000 A 
ATOM      9  C   UNL     1      47.241   7.441  12.465  0.00  0.00    +0.000 A 
ATOM     10  N   UNL     1      46.473   6.463  11.912  0.00  0.00    +0.000 NA
ATOM     11  C   UNL     1      43.071   5.770  10.962  0.00  0.00    +0.000 C 
ATOM     12  C   UNL     1      42.687   4.563  11.841  0.00  0.00    +0.000 C 
ATOM     13  C   UNL     1      42.994   4.780  13.321  0.00  0.00    +0.000 C 
ATOM     14  O   UNL     1      43.228   3.328  11.348  0.00  0.00    +0.000 OA
ENDROOT
BRANCH   7  15
ATOM     15  C   UNL     1      45.291  10.580  11.659  0.00  0.00    +0.000 C 
ATOM     16  F   UNL     1      44.025  10.826  12.098  0.00  0.00    +0.000 F 
ATOM     17  F   UNL     1      46.100  11.403  12.382  0.00  0.00    +0.000 F 
ATOM     18  F   UNL     1      45.338  11.037  10.379  0.00  0.00    +0.000 F 
ENDBRANCH   7  15
BRANCH   9  19
ATOM     19  C   UNL     1      48.520   7.028  13.166  0.00  0.00    +0.000 C 
BRANCH  19  20
ATOM     20  C   UNL     1      48.618   7.674  14.550  0.00  0.00    +0.000 C 
BRANCH  20  21
ATOM     21  N   UNL     1      48.193   6.759  15.606  0.00  0.00    +0.000 N 
ATOM     22  C   UNL     1      49.149   5.954  16.216  0.00  0.00    +0.000 A 
ATOM     23  C   UNL     1      50.482   6.337  16.418  0.00  0.00    +0.000 A 
ATOM     24  N   UNL     1      51.413   5.586  17.064  0.00  0.00    +0.000 NA
ATOM     25  C   UNL     1      50.943   4.405  17.541  0.00  0.00    +0.000 A 
ATOM     26  C   UNL     1      49.629   4.002  17.359  0.00  0.00    +0.000 A 
ATOM     27  N   UNL     1      48.715   4.765  16.688  0.00  0.00    +0.000 NA
ATOM     28  H   UNL     1      47.369   6.189  15.426  0.00  0.00    +0.000 HD
BRANCH  25  29
ATOM     29  C   UNL     1      51.903   3.553  18.297  0.00  0.00    +0.000 C 
ATOM     30  N   UNL     1      51.784   2.201  18.085  0.00  0.00    +0.000 N 
ATOM     31  O   UNL     1      52.753   4.021  19.040  0.00  0.00    +0.000 OA
ATOM     32  H   UNL     1      51.082   1.853  17.442  0.00  0.00    +0.000 HD
ATOM     33  H   UNL     1      52.424   1.565  18.538  0.00  0.00    +0.000 HD
ENDBRANCH  25  29
ENDBRANCH  20  21
ENDBRANCH  19  20
ENDBRANCH   9  19
TORSDOF 5
ENDMDL
MODEL 6
REMARK VINA RESULT:    -6.955      5.064      7.081
REMARK INTER + INTRA:          -9.333
REMARK INTER:                  -8.297
REMARK INTRA:                  -1.036
REMARK UNBOUND:                -0.345
REMARK  Name = 
REMARK  7 active torsions:
REMARK  status: ('A' for Active; 'I' for Inactive)
REMARK    1  A    between atoms: C_1  and  C_2
REMARK    2  A    between atoms: C_7  and  C_8
REMARK    3  A    between atoms: C_13  and  C_14
REMARK    4  A    between atoms: C_14  and  C_15
REMARK    5  A    between atoms: C_15  and  N_16
REMARK    6  A    between atoms: C_20  and  C_21
REMARK    7  A    between atoms: C_28  and  C_29
REMARK                            x       y       z     vdW  Elec       q    Type
REMARK                         _______ _______ _______ _____ _____    ______ ____
ROOT
ATOM      1  C   UNL     1      49.549   3.475  17.379  0.00  0.00    +0.000 C 
ATOM      2  C   UNL     1      48.307   3.452  18.264  0.00  0.00    +0.000 C 
ATOM      3  C   UNL     1      47.316   4.596  17.976  0.00  0.00    +0.000 C 
ATOM      4  N   UNL     1      47.620   5.819  18.721  0.00  0.00    +0.000 N 
ATOM      5  C   UNL     1      48.023   6.964  18.066  0.00  0.00    +0.000 A 
ATOM      6  C   UNL     1      47.766   8.206  18.643  0.00  0.00    +0.000 A 
ATOM      7  C   UNL     1      48.118   9.386  17.983  0.00  0.00    +0.000 A 
ATOM      8  C   UNL     1      48.752   9.288  16.746  0.00  0.00    +0.000 A 
ATOM      9  C   UNL     1      48.997   8.028  16.215  0.00  0.00    +0.000 A 
ATOM     10  N   UNL     1      48.621   6.886  16.853  0.00  0.00    +0.000 NA
ATOM     11  C   UNL     1      47.907   5.619  20.146  0.00  0.00    +0.000 C 
ATOM     12  C   UNL     1      48.967   4.518  20.349  0.00  0.00    +0.000 C 
ATOM     13  C   UNL     1      50.387   4.993  20.050  0.00  0.00    +0.000 C 
ATOM     14  O   UNL     1      48.642   3.305  19.655  0.00  0.00    +0.000 OA
ENDROOT
BRANCH   7  15
ATOM     15  C   UNL     1      47.809  10.727  18.584  0.00  0.00    +0.000 C 
ATOM     16  F   UNL     1      48.917  11.450  18.909  0.00  0.00    +0.000 F 
ATOM     17  F   UNL     1      47.087  11.515  17.741  0.00  0.00    +0.000 F 
ATOM     18  F   UNL     1      47.078  10.631  19.727  0.00  0.00    +0.000 F 
ENDBRANCH   7  15
BRANCH   9  19
ATOM     19  C   UNL     1      49.704   7.897  14.881  0.00  0.00    +0.000 C 
BRANCH  19  20
ATOM     20  C   UNL     1      48.916   6.991  13.932  0.00  0.00    +0.000 C 
BRANCH  20  21
ATOM     21  N   UNL     1      47.483   7.272  13.981  0.00  0.00    +0.000 N 
ATOM     22  C   UNL     1      46.603   6.346  13.432  0.00  0.00    +0.000 A 
ATOM     23  C   UNL     1      46.823   4.962  13.430  0.00  0.00    +0.000 A 
ATOM     24  N   UNL     1      45.947   4.041  12.951  0.00  0.00    +0.000 NA
ATOM     25  C   UNL     1      44.787   4.567  12.478  0.00  0.00    +0.000 A 
ATOM     26  C   UNL     1      44.542   5.931  12.470  0.00  0.00    +0.000 A 
ATOM     27  N   UNL     1      45.446   6.841  12.939  0.00  0.00    +0.000 NA
ATOM     28  H   UNL     1      47.181   8.202  13.699  0.00  0.00    +0.000 HD
BRANCH  25  29
ATOM     29  C   UNL     1      43.766   3.606  11.976  0.00  0.00    +0.000 C 
ATOM     30  N   UNL     1      43.699   2.411  12.651  0.00  0.00    +0.000 N 
ATOM     31  O   UNL     1      43.023   3.865  11.041  0.00  0.00    +0.000 OA
ATOM     32  H   UNL     1      44.316   2.243  13.437  0.00  0.00    +0.000 HD
ATOM     33  H   UNL     1      43.006   1.726  12.387  0.00  0.00    +0.000 HD
ENDBRANCH  25  29
ENDBRANCH  20  21
ENDBRANCH  19  20
ENDBRANCH   9  19
TORSDOF 5
ENDMDL
MODEL 7
REMARK VINA RESULT:    -6.896      5.570      7.403
REMARK INTER + INTRA:          -9.256
REMARK INTER:                  -8.522
REMARK INTRA:                  -0.734
REMARK UNBOUND:                -0.345
REMARK  Name = 
REMARK  7 active torsions:
REMARK  status: ('A' for Active; 'I' for Inactive)
REMARK    1  A    between atoms: C_1  and  C_2
REMARK    2  A    between atoms: C_7  and  C_8
REMARK    3  A    between atoms: C_13  and  C_14
REMARK    4  A    between atoms: C_14  and  C_15
REMARK    5  A    between atoms: C_15  and  N_16
REMARK    6  A    between atoms: C_20  and  C_21
REMARK    7  A    between atoms: C_28  and  C_29
REMARK                            x       y       z     vdW  Elec       q    Type
REMARK                         _______ _______ _______ _____ _____    ______ ____
ROOT
ATOM      1  C   UNL     1      53.179   8.690  17.206  0.00  0.00    +0.000 C 
ATOM      2  C   UNL     1      54.005   7.409  17.228  0.00  0.00    +0.000 C 
ATOM      3  C   UNL     1      53.342   6.228  16.495  0.00  0.00    +0.000 C 
ATOM      4  N   UNL     1      52.434   5.459  17.348  0.00  0.00    +0.000 N 
ATOM      5  C   UNL     1      51.077   5.443  17.103  0.00  0.00    +0.000 A 
ATOM      6  C   UNL     1      50.325   4.340  17.502  0.00  0.00    +0.000 A 
ATOM      7  C   UNL     1      48.957   4.272  17.226  0.00  0.00    +0.000 A 
ATOM      8  C   UNL     1      48.361   5.343  16.564  0.00  0.00    +0.000 A 
ATOM      9  C   UNL     1      49.149   6.426  16.195  0.00  0.00    +0.000 A 
ATOM     10  N   UNL     1      50.487   6.467  16.442  0.00  0.00    +0.000 NA
ATOM     11  C   UNL     1      52.970   5.118  18.671  0.00  0.00    +0.000 C 
ATOM     12  C   UNL     1      53.541   6.365  19.377  0.00  0.00    +0.000 C 
ATOM     13  C   UNL     1      52.458   7.268  19.962  0.00  0.00    +0.000 C 
ATOM     14  O   UNL     1      54.466   7.090  18.553  0.00  0.00    +0.000 OA
ENDROOT
BRANCH   7  15
ATOM     15  C   UNL     1      48.150   3.068  17.621  0.00  0.00    +0.000 C 
ATOM     16  F   UNL     1      46.812   3.213  17.412  0.00  0.00    +0.000 F 
ATOM     17  F   UNL     1      48.514   1.954  16.929  0.00  0.00    +0.000 F 
ATOM     18  F   UNL     1      48.290   2.755  18.938  0.00  0.00    +0.000 F 
ENDBRANCH   7  15
BRANCH   9  19
ATOM     19  C   UNL     1      48.519   7.612  15.492  0.00  0.00    +0.000 C 
BRANCH  19  20
ATOM     20  C   UNL     1      48.311   7.318  14.005  0.00  0.00    +0.000 C 
BRANCH  20  21
ATOM     21  N   UNL     1      46.911   7.464  13.615  0.00  0.00    +0.000 N 
ATOM     22  C   UNL     1      46.279   6.398  12.983  0.00  0.00    +0.000 A 
ATOM     23  C   UNL     1      46.568   5.051  13.242  0.00  0.00    +0.000 A 
ATOM     24  N   UNL     1      45.920   3.999  12.677  0.00  0.00    +0.000 NA
ATOM     25  C   UNL     1      44.918   4.351  11.831  0.00  0.00    +0.000 A 
ATOM     26  C   UNL     1      44.608   5.674  11.559  0.00  0.00    +0.000 A 
ATOM     27  N   UNL     1      45.286   6.716  12.124  0.00  0.00    +0.000 NA
ATOM     28  H   UNL     1      46.649   8.319  13.129  0.00  0.00    +0.000 HD
BRANCH  25  29
ATOM     29  C   UNL     1      44.139   3.243  11.211  0.00  0.00    +0.000 C 
ATOM     30  N   UNL     1      44.834   2.462  10.319  0.00  0.00    +0.000 N 
ATOM     31  O   UNL     1      42.968   3.027  11.487  0.00  0.00    +0.000 OA
ATOM     32  H   UNL     1      45.810   2.658  10.135  0.00  0.00    +0.000 HD
ATOM     33  H   UNL     1      44.378   1.672   9.886  0.00  0.00    +0.000 HD
ENDBRANCH  25  29
ENDBRANCH  20  21
ENDBRANCH  19  20
ENDBRANCH   9  19
TORSDOF 5
ENDMDL
MODEL 8
REMARK VINA RESULT:    -6.849      4.772      6.405
REMARK INTER + INTRA:          -9.196
REMARK INTER:                  -8.354
REMARK INTRA:                  -0.842
REMARK UNBOUND:                -0.345
REMARK  Name = 
REMARK  7 active torsions:
REMARK  status: ('A' for Active; 'I' for Inactive)
REMARK    1  A    between atoms: C_1  and  C_2
REMARK    2  A    between atoms: C_7  and  C_8
REMARK    3  A    between atoms: C_13  and  C_14
REMARK    4  A    between atoms: C_14  and  C_15
REMARK    5  A    between atoms: C_15  and  N_16
REMARK    6  A    between atoms: C_20  and  C_21
REMARK    7  A    between atoms: C_28  and  C_29
REMARK                            x       y       z     vdW  Elec       q    Type
REMARK                         _______ _______ _______ _____ _____    ______ ____
ROOT
ATOM      1  C   UNL     1      49.637  10.775  17.643  0.00  0.00    +0.000 C 
ATOM      2  C   UNL     1      50.479   9.945  18.605  0.00  0.00    +0.000 C 
ATOM      3  C   UNL     1      50.936   8.592  18.026  0.00  0.00    +0.000 C 
ATOM      4  N   UNL     1      49.956   7.523  18.225  0.00  0.00    +0.000 N 
ATOM      5  C   UNL     1      49.306   6.951  17.151  0.00  0.00    +0.000 A 
ATOM      6  C   UNL     1      48.850   5.638  17.250  0.00  0.00    +0.000 A 
ATOM      7  C   UNL     1      48.230   5.014  16.165  0.00  0.00    +0.000 A 
ATOM      8  C   UNL     1      48.060   5.743  14.990  0.00  0.00    +0.000 A 
ATOM      9  C   UNL     1      48.522   7.052  14.941  0.00  0.00    +0.000 A 
ATOM     10  N   UNL     1      49.152   7.640  15.995  0.00  0.00    +0.000 NA
ATOM     11  C   UNL     1      49.402   7.437  19.580  0.00  0.00    +0.000 C 
ATOM     12  C   UNL     1      48.890   8.811  20.058  0.00  0.00    +0.000 C 
ATOM     13  C   UNL     1      47.544   9.193  19.448  0.00  0.00    +0.000 C 
ATOM     14  O   UNL     1      49.871   9.848  19.905  0.00  0.00    +0.000 OA
ENDROOT
BRANCH   7  15
ATOM     15  C   UNL     1      47.770   3.587  16.255  0.00  0.00    +0.000 C 
ATOM     16  F   UNL     1      47.261   3.100  15.090  0.00  0.00    +0.000 F 
ATOM     17  F   UNL     1      48.780   2.741  16.601  0.00  0.00    +0.000 F 
ATOM     18  F   UNL     1      46.797   3.411  17.190  0.00  0.00    +0.000 F 
ENDBRANCH   7  15
BRANCH   9  19
ATOM     19  C   UNL     1      48.330   7.873  13.681  0.00  0.00    +0.000 C 
BRANCH  19  20
ATOM     20  C   UNL     1      46.854   8.216  13.473  0.00  0.00    +0.000 C 
BRANCH  20  21
ATOM     21  N   UNL     1      46.404   7.875  12.125  0.00  0.00    +0.000 N 
ATOM     22  C   UNL     1      45.833   6.626  11.909  0.00  0.00    +0.000 A 
ATOM     23  C   UNL     1      45.066   5.939  12.861  0.00  0.00    +0.000 A 
ATOM     24  N   UNL     1      44.453   4.746  12.645  0.00  0.00    +0.000 NA
ATOM     25  C   UNL     1      44.617   4.254  11.390  0.00  0.00    +0.000 A 
ATOM     26  C   UNL     1      45.366   4.913  10.428  0.00  0.00    +0.000 A 
ATOM     27  N   UNL     1      45.991   6.103  10.673  0.00  0.00    +0.000 NA
ATOM     28  H   UNL     1      47.043   8.068  11.358  0.00  0.00    +0.000 HD
BRANCH  25  29
ATOM     29  C   UNL     1      43.934   2.969  11.075  0.00  0.00    +0.000 C 
ATOM     30  N   UNL     1      44.458   2.266  10.017  0.00  0.00    +0.000 N 
ATOM     31  O   UNL     1      42.985   2.552  11.723  0.00  0.00    +0.000 OA
ATOM     32  H   UNL     1      45.261   2.633   9.520  0.00  0.00    +0.000 HD
ATOM     33  H   UNL     1      44.066   1.370   9.769  0.00  0.00    +0.000 HD
ENDBRANCH  25  29
ENDBRANCH  20  21
ENDBRANCH  19  20
ENDBRANCH   9  19
TORSDOF 5
ENDMDL
MODEL 9
REMARK VINA RESULT:    -6.737      5.264      7.081
REMARK INTER + INTRA:          -9.051
REMARK INTER:                  -8.340
REMARK INTRA:                  -0.711
REMARK UNBOUND:                -0.345
REMARK  Name = 
REMARK  7 active torsions:
REMARK  status: ('A' for Active; 'I' for Inactive)
REMARK    1  A    between atoms: C_1  and  C_2
REMARK    2  A    between atoms: C_7  and  C_8
REMARK    3  A    between atoms: C_13  and  C_14
REMARK    4  A    between atoms: C_14  and  C_15
REMARK    5  A    between atoms: C_15  and  N_16
REMARK    6  A    between atoms: C_20  and  C_21
REMARK    7  A    between atoms: C_28  and  C_29
REMARK                            x       y       z     vdW  Elec       q    Type
REMARK                         _______ _______ _______ _____ _____    ______ ____
ROOT
ATOM      1  C   UNL     1      47.139   3.682  16.357  0.00  0.00    +0.000 C 
ATOM      2  C   UNL     1      47.436   4.087  17.797  0.00  0.00    +0.000 C 
ATOM      3  C   UNL     1      47.938   5.537  17.945  0.00  0.00    +0.000 C 
ATOM      4  N   UNL     1      49.387   5.661  17.787  0.00  0.00    +0.000 N 
ATOM      5  C   UNL     1      49.926   6.343  16.716  0.00  0.00    +0.000 A 
ATOM      6  C   UNL     1      51.179   6.937  16.847  0.00  0.00    +0.000 A 
ATOM      7  C   UNL     1      51.732   7.675  15.797  0.00  0.00    +0.000 A 
ATOM      8  C   UNL     1      51.010   7.782  14.611  0.00  0.00    +0.000 A 
ATOM      9  C   UNL     1      49.769   7.163  14.523  0.00  0.00    +0.000 A 
ATOM     10  N   UNL     1      49.227   6.473  15.564  0.00  0.00    +0.000 NA
ATOM     11  C   UNL     1      50.177   4.675  18.533  0.00  0.00    +0.000 C 
ATOM     12  C   UNL     1      49.669   3.243  18.269  0.00  0.00    +0.000 C 
ATOM     13  C   UNL     1      50.113   2.691  16.917  0.00  0.00    +0.000 C 
ATOM     14  O   UNL     1      48.253   3.114  18.470  0.00  0.00    +0.000 OA
ENDROOT
BRANCH   7  15
ATOM     15  C   UNL     1      53.067   8.349  15.946  0.00  0.00    +0.000 C 
ATOM     16  F   UNL     1      53.078   9.341  16.880  0.00  0.00    +0.000 F 
ATOM     17  F   UNL     1      54.044   7.478  16.319  0.00  0.00    +0.000 F 
ATOM     18  F   UNL     1      53.494   8.920  14.788  0.00  0.00    +0.000 F 
ENDBRANCH   7  15
BRANCH   9  19
ATOM     19  C   UNL     1      48.974   7.248  13.236  0.00  0.00    +0.000 C 
BRANCH  19  20
ATOM     20  C   UNL     1      47.536   7.694  13.510  0.00  0.00    +0.000 C 
BRANCH  20  21
ATOM     21  N   UNL     1      46.710   7.634  12.307  0.00  0.00    +0.000 N 
ATOM     22  C   UNL     1      46.104   6.428  11.974  0.00  0.00    +0.000 A 
ATOM     23  C   UNL     1      45.653   5.491  12.914  0.00  0.00    +0.000 A 
ATOM     24  N   UNL     1      45.007   4.337  12.607  0.00  0.00    +0.000 NA
ATOM     25  C   UNL     1      44.795   4.153  11.278  0.00  0.00    +0.000 A 
ATOM     26  C   UNL     1      45.227   5.063  10.327  0.00  0.00    +0.000 A 
ATOM     27  N   UNL     1      45.893   6.208  10.657  0.00  0.00    +0.000 NA
ATOM     28  H   UNL     1      47.096   8.039  11.457  0.00  0.00    +0.000 HD
BRANCH  25  29
ATOM     29  C   UNL     1      44.053   2.925  10.877  0.00  0.00    +0.000 C 
ATOM     30  N   UNL     1      44.638   2.182   9.881  0.00  0.00    +0.000 N 
ATOM     31  O   UNL     1      43.005   2.587  11.408  0.00  0.00    +0.000 OA
ATOM     32  H   UNL     1      45.520   2.482   9.483  0.00  0.00    +0.000 HD
ATOM     33  H   UNL     1      44.208   1.318   9.583  0.00  0.00    +0.000 HD
ENDBRANCH  25  29
ENDBRANCH  20  21
ENDBRANCH  19  20
ENDBRANCH   9  19
TORSDOF 5
ENDMDL
