MODEL 1
REMARK VINA RESULT:    -7.784      0.000      0.000
REMARK INTER + INTRA:         -10.023
REMARK INTER:                  -9.605
REMARK INTRA:                  -0.418
REMARK UNBOUND:                -0.418
REMARK  Name = 
REMARK  5 active torsions:
REMARK  status: ('A' for Active; 'I' for Inactive)
REMARK    1  A    between atoms: C_1  and  C_2
REMARK    2  A    between atoms: C_5  and  C_6
REMARK    3  A    between atoms: C_6  and  O_7
REMARK    4  A    between atoms: O_7  and  C_8
REMARK    5  A    between atoms: C_11  and  C_12
REMARK                            x       y       z     vdW  Elec       q    Type
REMARK                         _______ _______ _______ _____ _____    ______ ____
ROOT
ATOM      1  C   UNL     1      45.190   4.799  11.614  0.00  0.00    +0.000 A 
ATOM      2  C   UNL     1      45.929   5.916  11.992  0.00  0.00    +0.000 A 
ATOM      3  C   UNL     1      46.672   5.879  13.171  0.00  0.00    +0.000 A 
ATOM      4  C   UNL     1      46.653   4.718  13.933  0.00  0.00    +0.000 A 
ATOM      5  N   UNL     1      45.945   3.604  13.601  0.00  0.00    +0.000 NA
ATOM      6  C   UNL     1      45.236   3.682  12.446  0.00  0.00    +0.000 A 
ENDROOT
BRANCH   4   7
ATOM      7  C   UNL     1      47.434   4.665  15.209  0.00  0.00    +0.000 C 
ATOM      8  N   UNL     1      47.104   3.660  16.073  0.00  0.00    +0.000 N 
ATOM      9  O   UNL     1      48.321   5.474  15.472  0.00  0.00    +0.000 OA
ATOM     10  H   UNL     1      46.360   3.012  15.832  0.00  0.00    +0.000 HD
ATOM     11  H   UNL     1      47.592   3.580  16.953  0.00  0.00    +0.000 HD
ENDBRANCH   4   7
BRANCH   1  12
ATOM     12  O   UNL     1      44.389   4.710  10.514  0.00  0.00    +0.000 OA
BRANCH  12  13
ATOM     13  C   UNL     1      44.146   3.394  10.002  0.00  0.00    +0.000 C 
BRANCH  13  18
ATOM     14  C   UNL     1      47.990   2.172   5.781  0.00  0.00    +0.000 C 
ATOM     15  C   UNL     1      46.993   2.476   6.861  0.00  0.00    +0.000 A 
ATOM     16  C   UNL     1      46.543   1.468   7.717  0.00  0.00    +0.000 A 
ATOM     17  C   UNL     1      45.624   1.756   8.730  0.00  0.00    +0.000 A 
ATOM     18  C   UNL     1      45.149   3.059   8.919  0.00  0.00    +0.000 A 
ATOM     19  C   UNL     1      45.586   4.064   8.044  0.00  0.00    +0.000 A 
ATOM     20  C   UNL     1      46.504   3.775   7.029  0.00  0.00    +0.000 A 
ENDBRANCH  13  18
ENDBRANCH  12  13
ENDBRANCH   1  12
TORSDOF 4
ENDMDL
MODEL 2
REMARK VINA RESULT:    -7.622      2.953      6.182
REMARK INTER + INTRA:          -9.822
REMARK INTER:                  -9.253
REMARK INTRA:                  -0.569
REMARK UNBOUND:                -0.418
REMARK  Name = 
REMARK  5 active torsions:
REMARK  status: ('A' for Active; 'I' for Inactive)
REMARK    1  A    between atoms: C_1  and  C_2
REMARK    2  A    between atoms: C_5  and  C_6
REMARK    3  A    between atoms: C_6  and  O_7
REMARK    4  A    between atoms: O_7  and  C_8
REMARK    5  A    between atoms: C_11  and  C_12
REMARK                            x       y       z     vdW  Elec       q    Type
REMARK                         _______ _______ _______ _____ _____    ______ ____
ROOT
ATOM      1  C   UNL     1      44.527   3.917   9.217  0.00  0.00    +0.000 A 
ATOM      2  C   UNL     1      45.453   4.484   8.346  0.00  0.00    +0.000 A 
ATOM      3  C   UNL     1      46.359   3.661   7.681  0.00  0.00    +0.000 A 
ATOM      4  C   UNL     1      46.306   2.291   7.907  0.00  0.00    +0.000 A 
ATOM      5  N   UNL     1      45.417   1.696   8.750  0.00  0.00    +0.000 NA
ATOM      6  C   UNL     1      44.553   2.533   9.378  0.00  0.00    +0.000 A 
ENDROOT
BRANCH   4   7
ATOM      7  C   UNL     1      47.280   1.393   7.211  0.00  0.00    +0.000 C 
ATOM      8  N   UNL     1      48.347   2.008   6.620  0.00  0.00    +0.000 N 
ATOM      9  O   UNL     1      47.135   0.173   7.168  0.00  0.00    +0.000 OA
ATOM     10  H   UNL     1      48.434   3.019   6.665  0.00  0.00    +0.000 HD
ATOM     11  H   UNL     1      49.031   1.453   6.129  0.00  0.00    +0.000 HD
ENDBRANCH   4   7
BRANCH   1  12
ATOM     12  O   UNL     1      43.615   4.603   9.964  0.00  0.00    +0.000 OA
BRANCH  12  13
ATOM     13  C   UNL     1      43.592   4.318  11.369  0.00  0.00    +0.000 C 
BRANCH  13  18
ATOM     14  C   UNL     1      48.271   6.698  13.922  0.00  0.00    +0.000 C 
ATOM     15  C   UNL     1      47.077   6.076  13.260  0.00  0.00    +0.000 A 
ATOM     16  C   UNL     1      46.778   4.726  13.454  0.00  0.00    +0.000 A 
ATOM     17  C   UNL     1      45.658   4.151  12.847  0.00  0.00    +0.000 A 
ATOM     18  C   UNL     1      44.804   4.919  12.045  0.00  0.00    +0.000 A 
ATOM     19  C   UNL     1      45.119   6.269  11.834  0.00  0.00    +0.000 A 
ATOM     20  C   UNL     1      46.241   6.843  12.441  0.00  0.00    +0.000 A 
ENDBRANCH  13  18
ENDBRANCH  12  13
ENDBRANCH   1  12
TORSDOF 4
ENDMDL
MODEL 3
REMARK VINA RESULT:    -7.367      1.429      2.015
REMARK INTER + INTRA:          -9.508
REMARK INTER:                  -8.966
REMARK INTRA:                  -0.542
REMARK UNBOUND:                -0.418
REMARK  Name = 
REMARK  5 active torsions:
REMARK  status: ('A' for Active; 'I' for Inactive)
REMARK    1  A    between atoms: C_1  and  C_2
REMARK    2  A    between atoms: C_5  and  C_6
REMARK    3  A    between atoms: C_6  and  O_7
REMARK    4  A    between atoms: O_7  and  C_8
REMARK    5  A    between atoms: C_11  and  C_12
REMARK                            x       y       z     vdW  Elec       q    Type
REMARK                         _______ _______ _______ _____ _____    ______ ____
ROOT
ATOM      1  C   UNL     1      45.044   3.864  12.214  0.00  0.00    +0.000 A 
ATOM      2  C   UNL     1      46.063   3.239  12.928  0.00  0.00    +0.000 A 
ATOM      3  C   UNL     1      46.963   4.014  13.657  0.00  0.00    +0.000 A 
ATOM      4  C   UNL     1      46.811   5.395  13.650  0.00  0.00    +0.000 A 
ATOM      5  N   UNL     1      45.831   6.046  12.966  0.00  0.00    +0.000 NA
ATOM      6  C   UNL     1      44.975   5.255  12.270  0.00  0.00    +0.000 A 
ENDROOT
BRANCH   4   7
ATOM      7  C   UNL     1      47.777   6.244  14.416  0.00  0.00    +0.000 C 
ATOM      8  N   UNL     1      47.647   7.594  14.255  0.00  0.00    +0.000 N 
ATOM      9  O   UNL     1      48.638   5.763  15.149  0.00  0.00    +0.000 OA
ATOM     10  H   UNL     1      46.931   7.961  13.636  0.00  0.00    +0.000 HD
ATOM     11  H   UNL     1      48.276   8.215  14.741  0.00  0.00    +0.000 HD
ENDBRANCH   4   7
BRANCH   1  12
ATOM     12  O   UNL     1      44.124   3.237  11.428  0.00  0.00    +0.000 OA
BRANCH  12  13
ATOM     13  C   UNL     1      43.863   3.829  10.149  0.00  0.00    +0.000 C 
BRANCH  13  18
ATOM     14  C   UNL     1      47.841   1.989   6.294  0.00  0.00    +0.000 C 
ATOM     15  C   UNL     1      46.828   2.471   7.291  0.00  0.00    +0.000 A 
ATOM     16  C   UNL     1      46.544   3.833   7.414  0.00  0.00    +0.000 A 
ATOM     17  C   UNL     1      45.591   4.278   8.334  0.00  0.00    +0.000 A 
ATOM     18  C   UNL     1      44.891   3.371   9.139  0.00  0.00    +0.000 A 
ATOM     19  C   UNL     1      45.195   2.006   9.028  0.00  0.00    +0.000 A 
ATOM     20  C   UNL     1      46.150   1.561   8.108  0.00  0.00    +0.000 A 
ENDBRANCH  13  18
ENDBRANCH  12  13
ENDBRANCH   1  12
TORSDOF 4
ENDMDL
MODEL 4
REMARK VINA RESULT:    -5.959      3.089      7.584
REMARK INTER + INTRA:          -7.771
REMARK INTER:                  -7.443
REMARK INTRA:                  -0.328
REMARK UNBOUND:                -0.418
REMARK  Name = 
REMARK  5 active torsions:
REMARK  status: ('A' for Active; 'I' for Inactive)
REMARK    1  A    between atoms: C_1  and  C_2
REMARK    2  A    between atoms: C_5  and  C_6
REMARK    3  A    between atoms: C_6  and  O_7
REMARK    4  A    between atoms: O_7  and  C_8
REMARK    5  A    between atoms: C_11  and  C_12
REMARK                            x       y       z     vdW  Elec       q    Type
REMARK                         _______ _______ _______ _____ _____    ______ ____
ROOT
ATOM      1  C   UNL     1      46.781   4.904  13.983  0.00  0.00    +0.000 A 
ATOM      2  C   UNL     1      46.134   5.918  13.283  0.00  0.00    +0.000 A 
ATOM      3  C   UNL     1      45.217   5.586  12.288  0.00  0.00    +0.000 A 
ATOM      4  C   UNL     1      44.974   4.243  12.028  0.00  0.00    +0.000 A 
ATOM      5  N   UNL     1      45.584   3.221  12.687  0.00  0.00    +0.000 NA
ATOM      6  C   UNL     1      46.470   3.587  13.648  0.00  0.00    +0.000 A 
ENDROOT
BRANCH   4   7
ATOM      7  C   UNL     1      44.001   3.868  10.954  0.00  0.00    +0.000 C 
ATOM      8  N   UNL     1      43.908   4.732   9.900  0.00  0.00    +0.000 N 
ATOM      9  O   UNL     1      43.323   2.844  11.008  0.00  0.00    +0.000 OA
ATOM     10  H   UNL     1      44.475   5.575   9.888  0.00  0.00    +0.000 HD
ATOM     11  H   UNL     1      43.262   4.535   9.151  0.00  0.00    +0.000 HD
ENDBRANCH   4   7
BRANCH   1  12
ATOM     12  O   UNL     1      47.729   5.082  14.948  0.00  0.00    +0.000 OA
BRANCH  12  13
ATOM     13  C   UNL     1      47.519   4.393  16.187  0.00  0.00    +0.000 C 
BRANCH  13  18
ATOM     14  C   UNL     1      52.597   2.294  18.160  0.00  0.00    +0.000 C 
ATOM     15  C   UNL     1      51.294   2.827  17.641  0.00  0.00    +0.000 A 
ATOM     16  C   UNL     1      50.327   1.962  17.124  0.00  0.00    +0.000 A 
ATOM     17  C   UNL     1      49.109   2.459  16.652  0.00  0.00    +0.000 A 
ATOM     18  C   UNL     1      48.826   3.830  16.701  0.00  0.00    +0.000 A 
ATOM     19  C   UNL     1      49.808   4.698  17.200  0.00  0.00    +0.000 A 
ATOM     20  C   UNL     1      51.027   4.200  17.671  0.00  0.00    +0.000 A 
ENDBRANCH  13  18
ENDBRANCH  12  13
ENDBRANCH   1  12
TORSDOF 4
ENDMDL
MODEL 5
REMARK VINA RESULT:    -5.583      2.226      3.770
REMARK INTER + INTRA:          -7.307
REMARK INTER:                  -6.909
REMARK INTRA:                  -0.398
REMARK UNBOUND:                -0.418
REMARK  Name = 
REMARK  5 active torsions:
REMARK  status: ('A' for Active; 'I' for Inactive)
REMARK    1  A    between atoms: C_1  and  C_2
REMARK    2  A    between atoms: C_5  and  C_6
REMARK    3  A    between atoms: C_6  and  O_7
REMARK    4  A    between atoms: O_7  and  C_8
REMARK    5  A    between atoms: C_11  and  C_12
REMARK                            x       y       z     vdW  Elec       q    Type
REMARK                         _______ _______ _______ _____ _____    ______ ____
ROOT
ATOM      1  C   UNL     1      47.295   5.404  14.456  0.00  0.00    +0.000 A 
ATOM      2  C   UNL     1      46.912   4.189  15.018  0.00  0.00    +0.000 A 
ATOM      3  C   UNL     1      47.513   3.762  16.201  0.00  0.00    +0.000 A 
ATOM      4  C   UNL     1      48.480   4.570  16.786  0.00  0.00    +0.000 A 
ATOM      5  N   UNL     1      48.884   5.764  16.270  0.00  0.00    +0.000 NA
ATOM      6  C   UNL     1      48.274   6.143  15.119  0.00  0.00    +0.000 A 
ENDROOT
BRANCH   4   7
ATOM      7  C   UNL     1      49.146   4.122  18.049  0.00  0.00    +0.000 C 
ATOM      8  N   UNL     1      48.315   3.694  19.046  0.00  0.00    +0.000 N 
ATOM      9  O   UNL     1      50.367   4.135  18.190  0.00  0.00    +0.000 OA
ATOM     10  H   UNL     1      47.310   3.703  18.903  0.00  0.00    +0.000 HD
ATOM     11  H   UNL     1      48.708   3.388  19.923  0.00  0.00    +0.000 HD
ENDBRANCH   4   7
BRANCH   1  12
ATOM     12  O   UNL     1      46.824   5.923  13.286  0.00  0.00    +0.000 OA
BRANCH  12  13
ATOM     13  C   UNL     1      45.451   5.654  12.972  0.00  0.00    +0.000 C 
BRANCH  13  18
ATOM     14  C   UNL     1      45.012   3.228   7.681  0.00  0.00    +0.000 C 
ATOM     15  C   UNL     1      45.139   3.853   9.039  0.00  0.00    +0.000 A 
ATOM     16  C   UNL     1      45.698   5.125   9.187  0.00  0.00    +0.000 A 
ATOM     17  C   UNL     1      45.804   5.711  10.451  0.00  0.00    +0.000 A 
ATOM     18  C   UNL     1      45.339   5.045  11.592  0.00  0.00    +0.000 A 
ATOM     19  C   UNL     1      44.798   3.760  11.443  0.00  0.00    +0.000 A 
ATOM     20  C   UNL     1      44.694   3.173  10.177  0.00  0.00    +0.000 A 
ENDBRANCH  13  18
ENDBRANCH  12  13
ENDBRANCH   1  12
TORSDOF 4
ENDMDL
MODEL 6
REMARK VINA RESULT:    -5.489      3.732      6.321
REMARK INTER + INTRA:          -7.190
REMARK INTER:                  -6.804
REMARK INTRA:                  -0.386
REMARK UNBOUND:                -0.418
REMARK  Name = 
REMARK  5 active torsions:
REMARK  status: ('A' for Active; 'I' for Inactive)
REMARK    1  A    between atoms: C_1  and  C_2
REMARK    2  A    between atoms: C_5  and  C_6
REMARK    3  A    between atoms: C_6  and  O_7
REMARK    4  A    between atoms: O_7  and  C_8
REMARK    5  A    between atoms: C_11  and  C_12
REMARK                            x       y       z     vdW  Elec       q    Type
REMARK                         _______ _______ _______ _____ _____    ______ ____
ROOT
ATOM      1  C   UNL     1      46.467   6.348  12.619  0.00  0.00    +0.000 A 
ATOM      2  C   UNL     1      46.021   6.276  11.302  0.00  0.00    +0.000 A 
ATOM      3  C   UNL     1      45.210   5.212  10.911  0.00  0.00    +0.000 A 
ATOM      4  C   UNL     1      44.869   4.253  11.857  0.00  0.00    +0.000 A 
ATOM      5  N   UNL     1      45.283   4.285  13.153  0.00  0.00    +0.000 NA
ATOM      6  C   UNL     1      46.070   5.337  13.493  0.00  0.00    +0.000 A 
ENDROOT
BRANCH   4   7
ATOM      7  C   UNL     1      44.009   3.096  11.452  0.00  0.00    +0.000 C 
ATOM      8  N   UNL     1      43.615   2.260  12.458  0.00  0.00    +0.000 N 
ATOM      9  O   UNL     1      43.675   2.901  10.285  0.00  0.00    +0.000 OA
ATOM     10  H   UNL     1      43.915   2.442  13.411  0.00  0.00    +0.000 HD
ATOM     11  H   UNL     1      43.042   1.459  12.242  0.00  0.00    +0.000 HD
ENDBRANCH   4   7
BRANCH   1  12
ATOM     12  O   UNL     1      47.295   7.305  13.127  0.00  0.00    +0.000 OA
BRANCH  12  13
ATOM     13  C   UNL     1      47.344   8.551  12.420  0.00  0.00    +0.000 C 
BRANCH  13  18
ATOM     14  C   UNL     1      52.716   9.365  10.285  0.00  0.00    +0.000 C 
ATOM     15  C   UNL     1      51.339   9.165  10.845  0.00  0.00    +0.000 A 
ATOM     16  C   UNL     1      50.493  10.256  11.059  0.00  0.00    +0.000 A 
ATOM     17  C   UNL     1      49.205  10.067  11.569  0.00  0.00    +0.000 A 
ATOM     18  C   UNL     1      48.730   8.781  11.859  0.00  0.00    +0.000 A 
ATOM     19  C   UNL     1      49.589   7.690  11.663  0.00  0.00    +0.000 A 
ATOM     20  C   UNL     1      50.879   7.881  11.154  0.00  0.00    +0.000 A 
ENDBRANCH  13  18
ENDBRANCH  12  13
ENDBRANCH   1  12
TORSDOF 4
ENDMDL
MODEL 7
REMARK VINA RESULT:    -5.383      3.601      7.802
REMARK INTER + INTRA:          -7.060
REMARK INTER:                  -6.700
REMARK INTRA:                  -0.359
REMARK UNBOUND:                -0.418
REMARK  Name = 
REMARK  5 active torsions:
REMARK  status: ('A' for Active; 'I' for Inactive)
REMARK    1  A    between atoms: C_1  and  C_2
REMARK    2  A    between atoms: C_5  and  C_6
REMARK    3  A    between atoms: C_6  and  O_7
REMARK    4  A    between atoms: O_7  and  C_8
REMARK    5  A    between atoms: C_11  and  C_12
REMARK                            x       y       z     vdW  Elec       q    Type
REMARK                         _______ _______ _______ _____ _____    ______ ____
ROOT
ATOM      1  C   UNL     1      47.080   5.515  13.094  0.00  0.00    +0.000 A 
ATOM      2  C   UNL     1      46.489   6.178  12.021  0.00  0.00    +0.000 A 
ATOM      3  C   UNL     1      45.232   5.775  11.576  0.00  0.00    +0.000 A 
ATOM      4  C   UNL     1      44.603   4.720  12.224  0.00  0.00    +0.000 A 
ATOM      5  N   UNL     1      45.144   4.045  13.275  0.00  0.00    +0.000 NA
ATOM      6  C   UNL     1      46.369   4.468  13.678  0.00  0.00    +0.000 A 
ENDROOT
BRANCH   4   7
ATOM      7  C   UNL     1      43.257   4.265  11.752  0.00  0.00    +0.000 C 
ATOM      8  N   UNL     1      42.246   5.178  11.853  0.00  0.00    +0.000 N 
ATOM      9  O   UNL     1      43.065   3.139  11.299  0.00  0.00    +0.000 OA
ATOM     10  H   UNL     1      42.434   6.098  12.240  0.00  0.00    +0.000 HD
ATOM     11  H   UNL     1      41.316   4.924  11.557  0.00  0.00    +0.000 HD
ENDBRANCH   4   7
BRANCH   1  12
ATOM     12  O   UNL     1      48.318   5.774  13.604  0.00  0.00    +0.000 OA
BRANCH  12  13
ATOM     13  C   UNL     1      48.403   6.817  14.584  0.00  0.00    +0.000 C 
BRANCH  13  18
ATOM     14  C   UNL     1      50.973   4.838  19.437  0.00  0.00    +0.000 C 
ATOM     15  C   UNL     1      50.314   5.360  18.194  0.00  0.00    +0.000 A 
ATOM     16  C   UNL     1      50.984   6.254  17.356  0.00  0.00    +0.000 A 
ATOM     17  C   UNL     1      50.375   6.730  16.193  0.00  0.00    +0.000 A 
ATOM     18  C   UNL     1      49.088   6.309  15.833  0.00  0.00    +0.000 A 
ATOM     19  C   UNL     1      48.409   5.428  16.687  0.00  0.00    +0.000 A 
ATOM     20  C   UNL     1      49.020   4.953  17.854  0.00  0.00    +0.000 A 
ENDBRANCH  13  18
ENDBRANCH  12  13
ENDBRANCH   1  12
TORSDOF 4
ENDMDL
MODEL 8
REMARK VINA RESULT:    -5.122      3.497      8.090
REMARK INTER + INTRA:          -6.738
REMARK INTER:                  -6.361
REMARK INTRA:                  -0.378
REMARK UNBOUND:                -0.418
REMARK  Name = 
REMARK  5 active torsions:
REMARK  status: ('A' for Active; 'I' for Inactive)
REMARK    1  A    between atoms: C_1  and  C_2
REMARK    2  A    between atoms: C_5  and  C_6
REMARK    3  A    between atoms: C_6  and  O_7
REMARK    4  A    between atoms: O_7  and  C_8
REMARK    5  A    between atoms: C_11  and  C_12
REMARK                            x       y       z     vdW  Elec       q    Type
REMARK                         _______ _______ _______ _____ _____    ______ ____
ROOT
ATOM      1  C   UNL     1      47.200   5.257  13.421  0.00  0.00    +0.000 A 
ATOM      2  C   UNL     1      46.285   5.991  12.670  0.00  0.00    +0.000 A 
ATOM      3  C   UNL     1      45.158   5.355  12.153  0.00  0.00    +0.000 A 
ATOM      4  C   UNL     1      44.981   4.001  12.409  0.00  0.00    +0.000 A 
ATOM      5  N   UNL     1      45.850   3.247  13.137  0.00  0.00    +0.000 NA
ATOM      6  C   UNL     1      46.934   3.904  13.622  0.00  0.00    +0.000 A 
ENDROOT
BRANCH   4   7
ATOM      7  C   UNL     1      43.782   3.299  11.851  0.00  0.00    +0.000 C 
ATOM      8  N   UNL     1      43.541   2.045  12.336  0.00  0.00    +0.000 N 
ATOM      9  O   UNL     1      43.054   3.812  11.004  0.00  0.00    +0.000 OA
ATOM     10  H   UNL     1      44.167   1.644  13.029  0.00  0.00    +0.000 HD
ATOM     11  H   UNL     1      42.752   1.521  11.990  0.00  0.00    +0.000 HD
ENDBRANCH   4   7
BRANCH   1  12
ATOM     12  O   UNL     1      48.362   5.737  13.949  0.00  0.00    +0.000 OA
BRANCH  12  13
ATOM     13  C   UNL     1      48.327   7.073  14.467  0.00  0.00    +0.000 C 
BRANCH  13  18
ATOM     14  C   UNL     1      50.074   7.056  20.038  0.00  0.00    +0.000 C 
ATOM     15  C   UNL     1      49.614   7.069  18.610  0.00  0.00    +0.000 A 
ATOM     16  C   UNL     1      49.448   8.276  17.927  0.00  0.00    +0.000 A 
ATOM     17  C   UNL     1      49.031   8.286  16.593  0.00  0.00    +0.000 A 
ATOM     18  C   UNL     1      48.788   7.089  15.908  0.00  0.00    +0.000 A 
ATOM     19  C   UNL     1      48.935   5.879  16.603  0.00  0.00    +0.000 A 
ATOM     20  C   UNL     1      49.350   5.870  17.939  0.00  0.00    +0.000 A 
ENDBRANCH  13  18
ENDBRANCH  12  13
ENDBRANCH   1  12
TORSDOF 4
ENDMDL
MODEL 9
REMARK VINA RESULT:    -5.077      4.431      8.281
REMARK INTER + INTRA:          -6.682
REMARK INTER:                  -6.124
REMARK INTRA:                  -0.558
REMARK UNBOUND:                -0.418
REMARK  Name = 
REMARK  5 active torsions:
REMARK  status: ('A' for Active; 'I' for Inactive)
REMARK    1  A    between atoms: C_1  and  C_2
REMARK    2  A    between atoms: C_5  and  C_6
REMARK    3  A    between atoms: C_6  and  O_7
REMARK    4  A    between atoms: O_7  and  C_8
REMARK    5  A    between atoms: C_11  and  C_12
REMARK                            x       y       z     vdW  Elec       q    Type
REMARK                         _______ _______ _______ _____ _____    ______ ____
ROOT
ATOM      1  C   UNL     1      47.262   6.680  13.393  0.00  0.00    +0.000 A 
ATOM      2  C   UNL     1      47.225   5.322  13.697  0.00  0.00    +0.000 A 
ATOM      3  C   UNL     1      46.027   4.623  13.563  0.00  0.00    +0.000 A 
ATOM      4  C   UNL     1      44.902   5.308  13.123  0.00  0.00    +0.000 A 
ATOM      5  N   UNL     1      44.893   6.634  12.815  0.00  0.00    +0.000 NA
ATOM      6  C   UNL     1      46.079   7.278  12.959  0.00  0.00    +0.000 A 
ENDROOT
BRANCH   4   7
ATOM      7  C   UNL     1      43.603   4.575  12.986  0.00  0.00    +0.000 C 
ATOM      8  N   UNL     1      43.678   3.212  13.011  0.00  0.00    +0.000 N 
ATOM      9  O   UNL     1      42.529   5.159  12.857  0.00  0.00    +0.000 OA
ATOM     10  H   UNL     1      44.582   2.758  13.109  0.00  0.00    +0.000 HD
ATOM     11  H   UNL     1      42.836   2.665  12.913  0.00  0.00    +0.000 HD
ENDBRANCH   4   7
BRANCH   1  12
ATOM     12  O   UNL     1      48.348   7.494  13.518  0.00  0.00    +0.000 OA
BRANCH  12  13
ATOM     13  C   UNL     1      49.280   7.165  14.556  0.00  0.00    +0.000 C 
BRANCH  13  18
ATOM     14  C   UNL     1      47.456   9.263  19.689  0.00  0.00    +0.000 C 
ATOM     15  C   UNL     1      47.913   8.728  18.364  0.00  0.00    +0.000 A 
ATOM     16  C   UNL     1      47.926   9.547  17.233  0.00  0.00    +0.000 A 
ATOM     17  C   UNL     1      48.363   9.050  16.002  0.00  0.00    +0.000 A 
ATOM     18  C   UNL     1      48.812   7.729  15.880  0.00  0.00    +0.000 A 
ATOM     19  C   UNL     1      48.776   6.903  17.012  0.00  0.00    +0.000 A 
ATOM     20  C   UNL     1      48.337   7.400  18.244  0.00  0.00    +0.000 A 
ENDBRANCH  13  18
ENDBRANCH  12  13
ENDBRANCH   1  12
TORSDOF 4
ENDMDL
