MODEL 1
REMARK VINA RESULT:    -8.307      0.000      0.000
REMARK INTER + INTRA:         -12.799
REMARK INTER:                 -11.707
REMARK INTRA:                  -1.092
REMARK UNBOUND:                -1.092
REMARK  Name = 
REMARK  7 active torsions:
REMARK  status: ('A' for Active; 'I' for Inactive)
REMARK    1  A    between atoms: C_2  and  C_3
REMARK    2  A    between atoms: C_3  and  N_4
REMARK    3  A    between atoms: C_3  and  C_22
REMARK    4  A    between atoms: C_5  and  C_7
REMARK    5  A    between atoms: C_10  and  C_11
REMARK    6  A    between atoms: C_11  and  N_12
REMARK    7  A    between atoms: C_13  and  C_15
REMARK                            x       y       z     vdW  Elec       q    Type
REMARK                         _______ _______ _______ _____ _____    ______ ____
ROOT
ATOM      1  N   UNL     1      46.378   6.381  13.777  0.00  0.00    +0.000 N 
ATOM      2  C   UNL     1      45.355   5.709  13.186  0.00  0.00    +0.000 C 
ATOM      3  O   UNL     1      44.222   6.177  13.279  0.00  0.00    +0.000 OA
ATOM      4  H   UNL     1      46.086   7.221  14.266  0.00  0.00    +0.000 HD
ENDROOT
BRANCH   2   5
ATOM      5  C   UNL     1      45.677   4.433  12.410  0.00  0.00    +0.000 C 
ATOM      6  C   UNL     1      44.613   3.342  12.620  0.00  0.00    +0.000 C 
ATOM      7  C   UNL     1      43.369   3.532  11.773  0.00  0.00    +0.000 C 
ATOM      8  C   UNL     1      43.723   3.583  10.294  0.00  0.00    +0.000 C 
ATOM      9  C   UNL     1      44.674   4.772  10.068  0.00  0.00    +0.000 C 
ATOM     10  C   UNL     1      45.942   4.722  10.924  0.00  0.00    +0.000 C 
BRANCH   8  11
ATOM     11  C   UNL     1      44.305   2.243   9.790  0.00  0.00    +0.000 C 
BRANCH  11  12
ATOM     12  N   UNL     1      45.218   2.417   8.683  0.00  0.00    +0.000 N 
ATOM     13  C   UNL     1      46.007   1.437   8.095  0.00  0.00    +0.000 C 
ATOM     14  O   UNL     1      46.013   0.260   8.417  0.00  0.00    +0.000 OA
ATOM     15  H   UNL     1      45.343   3.341   8.273  0.00  0.00    +0.000 HD
BRANCH  13  16
ATOM     16  C   UNL     1      46.853   1.991   7.021  0.00  0.00    +0.000 A 
ATOM     17  C   UNL     1      46.481   2.898   5.988  0.00  0.00    +0.000 A 
ATOM     18  C   UNL     1      47.609   3.063   5.224  0.00  0.00    +0.000 A 
ATOM     19  N   UNL     1      48.574   2.302   5.810  0.00  0.00    +0.000 N 
ATOM     20  N   UNL     1      48.158   1.650   6.905  0.00  0.00    +0.000 NA
ATOM     21  H   UNL     1      49.539   2.178   5.516  0.00  0.00    +0.000 HD
ENDBRANCH  13  16
ENDBRANCH  11  12
ENDBRANCH   8  11
ENDBRANCH   2   5
BRANCH   1  22
ATOM     22  C   UNL     1      47.780   5.995  13.871  0.00  0.00    +0.000 C 
BRANCH  22  23
ATOM     23  C   UNL     1      48.247   6.227  15.295  0.00  0.00    +0.000 A 
ATOM     24  C   UNL     1      48.751   7.410  15.822  0.00  0.00    +0.000 A 
ATOM     25  S   UNL     1      49.259   7.264  17.448  0.00  0.00    +0.000 S 
ATOM     26  C   UNL     1      48.749   5.644  17.523  0.00  0.00    +0.000 A 
ATOM     27  N   UNL     1      48.911   4.893  18.644  0.00  0.00    +0.000 NA
ATOM     28  C   UNL     1      48.441   3.693  18.550  0.00  0.00    +0.000 A 
ATOM     29  N   UNL     1      47.805   3.178  17.446  0.00  0.00    +0.000 N 
ATOM     30  C   UNL     1      47.591   3.909  16.303  0.00  0.00    +0.000 A 
ATOM     31  O   UNL     1      46.957   3.478  15.348  0.00  0.00    +0.000 OA
ATOM     32  C   UNL     1      48.165   5.238  16.341  0.00  0.00    +0.000 A 
ATOM     33  H   UNL     1      47.427   2.242  17.456  0.00  0.00    +0.000 HD
ENDBRANCH  22  23
BRANCH  22  35
ATOM     34  N   UNL     1      49.224   7.338  12.124  0.00  0.00    +0.000 NA
ATOM     35  C   UNL     1      48.600   6.733  12.902  0.00  0.00    +0.000 C 
ENDBRANCH  22  35
ENDBRANCH   1  22
TORSDOF 7
ENDMDL
MODEL 2
REMARK VINA RESULT:    -6.932      3.118      4.417
REMARK INTER + INTRA:         -10.860
REMARK INTER:                 -10.187
REMARK INTRA:                  -0.674
REMARK UNBOUND:                -1.092
REMARK  Name = 
REMARK  7 active torsions:
REMARK  status: ('A' for Active; 'I' for Inactive)
REMARK    1  A    between atoms: C_2  and  C_3
REMARK    2  A    between atoms: C_3  and  N_4
REMARK    3  A    between atoms: C_3  and  C_22
REMARK    4  A    between atoms: C_5  and  C_7
REMARK    5  A    between atoms: C_10  and  C_11
REMARK    6  A    between atoms: C_11  and  N_12
REMARK    7  A    between atoms: C_13  and  C_15
REMARK                            x       y       z     vdW  Elec       q    Type
REMARK                         _______ _______ _______ _____ _____    ______ ____
ROOT
ATOM      1  N   UNL     1      46.777   7.598  13.404  0.00  0.00    +0.000 N 
ATOM      2  C   UNL     1      46.298   6.326  13.406  0.00  0.00    +0.000 C 
ATOM      3  O   UNL     1      46.472   5.641  14.412  0.00  0.00    +0.000 OA
ATOM      4  H   UNL     1      47.261   7.853  14.258  0.00  0.00    +0.000 HD
ENDROOT
BRANCH   2   5
ATOM      5  C   UNL     1      45.541   5.834  12.174  0.00  0.00    +0.000 C 
ATOM      6  C   UNL     1      46.065   4.476  11.674  0.00  0.00    +0.000 C 
ATOM      7  C   UNL     1      45.538   3.291  12.460  0.00  0.00    +0.000 C 
ATOM      8  C   UNL     1      44.016   3.259  12.437  0.00  0.00    +0.000 C 
ATOM      9  C   UNL     1      43.499   4.560  13.076  0.00  0.00    +0.000 C 
ATOM     10  C   UNL     1      44.021   5.831  12.403  0.00  0.00    +0.000 C 
BRANCH   8  11
ATOM     11  C   UNL     1      43.463   3.026  11.014  0.00  0.00    +0.000 C 
BRANCH  11  12
ATOM     12  N   UNL     1      44.470   2.536  10.101  0.00  0.00    +0.000 N 
ATOM     13  C   UNL     1      44.824   3.090   8.878  0.00  0.00    +0.000 C 
ATOM     14  O   UNL     1      44.345   4.110   8.409  0.00  0.00    +0.000 OA
ATOM     15  H   UNL     1      44.986   1.688  10.328  0.00  0.00    +0.000 HD
BRANCH  13  16
ATOM     16  C   UNL     1      45.859   2.291   8.196  0.00  0.00    +0.000 A 
ATOM     17  C   UNL     1      46.845   2.734   7.270  0.00  0.00    +0.000 A 
ATOM     18  C   UNL     1      47.527   1.605   6.894  0.00  0.00    +0.000 A 
ATOM     19  N   UNL     1      46.967   0.578   7.590  0.00  0.00    +0.000 N 
ATOM     20  N   UNL     1      45.964   0.956   8.397  0.00  0.00    +0.000 NA
ATOM     21  H   UNL     1      47.214  -0.407   7.563  0.00  0.00    +0.000 HD
ENDBRANCH  13  16
ENDBRANCH  11  12
ENDBRANCH   8  11
ENDBRANCH   2   5
BRANCH   1  22
ATOM     22  C   UNL     1      46.763   8.568  12.317  0.00  0.00    +0.000 C 
BRANCH  22  23
ATOM     23  C   UNL     1      47.997   9.442  12.439  0.00  0.00    +0.000 A 
ATOM     24  C   UNL     1      48.040  10.765  12.861  0.00  0.00    +0.000 A 
ATOM     25  S   UNL     1      49.605  11.450  12.782  0.00  0.00    +0.000 S 
ATOM     26  C   UNL     1      50.285   9.982  12.261  0.00  0.00    +0.000 A 
ATOM     27  N   UNL     1      51.609   9.866  11.977  0.00  0.00    +0.000 NA
ATOM     28  C   UNL     1      51.973   8.677  11.626  0.00  0.00    +0.000 A 
ATOM     29  N   UNL     1      51.141   7.586  11.551  0.00  0.00    +0.000 N 
ATOM     30  C   UNL     1      49.804   7.648  11.858  0.00  0.00    +0.000 A 
ATOM     31  O   UNL     1      49.078   6.661  11.867  0.00  0.00    +0.000 OA
ATOM     32  C   UNL     1      49.340   8.979  12.189  0.00  0.00    +0.000 A 
ATOM     33  H   UNL     1      51.503   6.676  11.307  0.00  0.00    +0.000 HD
ENDBRANCH  22  23
BRANCH  22  35
ATOM     34  N   UNL     1      44.531   9.966  12.343  0.00  0.00    +0.000 NA
ATOM     35  C   UNL     1      45.529   9.364  12.330  0.00  0.00    +0.000 C 
ENDBRANCH  22  35
ENDBRANCH   1  22
TORSDOF 7
ENDMDL
MODEL 3
REMARK VINA RESULT:    -6.906      1.737      2.083
REMARK INTER + INTRA:         -10.824
REMARK INTER:                 -10.124
REMARK INTRA:                  -0.700
REMARK UNBOUND:                -1.092
REMARK  Name = 
REMARK  7 active torsions:
REMARK  status: ('A' for Active; 'I' for Inactive)
REMARK    1  A    between atoms: C_2  and  C_3
REMARK    2  A    between atoms: C_3  and  N_4
REMARK    3  A    between atoms: C_3  and  C_22
REMARK    4  A    between atoms: C_5  and  C_7
REMARK    5  A    between atoms: C_10  and  C_11
REMARK    6  A    between atoms: C_11  and  N_12
REMARK    7  A    between atoms: C_13  and  C_15
REMARK                            x       y       z     vdW  Elec       q    Type
REMARK                         _______ _______ _______ _____ _____    ______ ____
ROOT
ATOM      1  N   UNL     1      47.317   8.314  13.704  0.00  0.00    +0.000 N 
ATOM      2  C   UNL     1      46.143   7.846  13.203  0.00  0.00    +0.000 C 
ATOM      3  O   UNL     1      45.286   8.661  12.873  0.00  0.00    +0.000 OA
ATOM      4  H   UNL     1      47.357   9.326  13.771  0.00  0.00    +0.000 HD
ENDROOT
BRANCH   2   5
ATOM      5  C   UNL     1      45.973   6.335  13.045  0.00  0.00    +0.000 C 
ATOM      6  C   UNL     1      44.505   5.898  13.191  0.00  0.00    +0.000 C 
ATOM      7  C   UNL     1      43.678   6.113  11.938  0.00  0.00    +0.000 C 
ATOM      8  C   UNL     1      44.286   5.376  10.753  0.00  0.00    +0.000 C 
ATOM      9  C   UNL     1      45.705   5.926  10.522  0.00  0.00    +0.000 C 
ATOM     10  C   UNL     1      46.616   5.822  11.746  0.00  0.00    +0.000 C 
BRANCH   8  11
ATOM     11  C   UNL     1      44.260   3.844  10.948  0.00  0.00    +0.000 C 
BRANCH  11  12
ATOM     12  N   UNL     1      45.115   3.151  10.010  0.00  0.00    +0.000 N 
ATOM     13  C   UNL     1      45.052   3.214   8.625  0.00  0.00    +0.000 C 
ATOM     14  O   UNL     1      44.268   3.904   7.992  0.00  0.00    +0.000 OA
ATOM     15  H   UNL     1      45.841   2.527  10.357  0.00  0.00    +0.000 HD
BRANCH  13  16
ATOM     16  C   UNL     1      46.052   2.334   7.993  0.00  0.00    +0.000 A 
ATOM     17  C   UNL     1      47.034   2.676   7.019  0.00  0.00    +0.000 A 
ATOM     18  C   UNL     1      47.679   1.501   6.724  0.00  0.00    +0.000 A 
ATOM     19  N   UNL     1      47.104   0.549   7.509  0.00  0.00    +0.000 N 
ATOM     20  N   UNL     1      46.127   1.017   8.298  0.00  0.00    +0.000 NA
ATOM     21  H   UNL     1      47.326  -0.441   7.558  0.00  0.00    +0.000 HD
ENDBRANCH  13  16
ENDBRANCH  11  12
ENDBRANCH   8  11
ENDBRANCH   2   5
BRANCH   1  22
ATOM     22  C   UNL     1      48.444   7.555  14.229  0.00  0.00    +0.000 C 
BRANCH  22  23
ATOM     23  C   UNL     1      48.574   7.851  15.710  0.00  0.00    +0.000 A 
ATOM     24  C   UNL     1      48.595   9.106  16.309  0.00  0.00    +0.000 A 
ATOM     25  S   UNL     1      48.844   9.045  17.999  0.00  0.00    +0.000 S 
ATOM     26  C   UNL     1      48.852   7.345  17.996  0.00  0.00    +0.000 A 
ATOM     27  N   UNL     1      49.048   6.627  19.133  0.00  0.00    +0.000 NA
ATOM     28  C   UNL     1      48.991   5.347  18.967  0.00  0.00    +0.000 A 
ATOM     29  N   UNL     1      48.738   4.716  17.774  0.00  0.00    +0.000 N 
ATOM     30  C   UNL     1      48.503   5.399  16.606  0.00  0.00    +0.000 A 
ATOM     31  O   UNL     1      48.200   4.841  15.559  0.00  0.00    +0.000 OA
ATOM     32  C   UNL     1      48.626   6.836  16.734  0.00  0.00    +0.000 A 
ATOM     33  H   UNL     1      48.669   3.710  17.725  0.00  0.00    +0.000 HD
ENDBRANCH  22  23
BRANCH  22  35
ATOM     34  N   UNL     1      50.662   8.148  12.936  0.00  0.00    +0.000 NA
ATOM     35  C   UNL     1      49.681   7.867  13.501  0.00  0.00    +0.000 C 
ENDBRANCH  22  35
ENDBRANCH   1  22
TORSDOF 7
ENDMDL
MODEL 4
REMARK VINA RESULT:    -6.470      2.607      4.635
REMARK INTER + INTRA:         -10.209
REMARK INTER:                  -8.845
REMARK INTRA:                  -1.364
REMARK UNBOUND:                -1.092
REMARK  Name = 
REMARK  7 active torsions:
REMARK  status: ('A' for Active; 'I' for Inactive)
REMARK    1  A    between atoms: C_2  and  C_3
REMARK    2  A    between atoms: C_3  and  N_4
REMARK    3  A    between atoms: C_3  and  C_22
REMARK    4  A    between atoms: C_5  and  C_7
REMARK    5  A    between atoms: C_10  and  C_11
REMARK    6  A    between atoms: C_11  and  N_12
REMARK    7  A    between atoms: C_13  and  C_15
REMARK                            x       y       z     vdW  Elec       q    Type
REMARK                         _______ _______ _______ _____ _____    ______ ____
ROOT
ATOM      1  N   UNL     1      51.236   7.602  14.996  0.00  0.00    +0.000 N 
ATOM      2  C   UNL     1      50.311   8.007  14.086  0.00  0.00    +0.000 C 
ATOM      3  O   UNL     1      50.623   8.892  13.294  0.00  0.00    +0.000 OA
ATOM      4  H   UNL     1      52.115   8.105  14.935  0.00  0.00    +0.000 HD
ENDROOT
BRANCH   2   5
ATOM      5  C   UNL     1      48.950   7.312  14.077  0.00  0.00    +0.000 C 
ATOM      6  C   UNL     1      47.804   8.274  14.436  0.00  0.00    +0.000 C 
ATOM      7  C   UNL     1      47.356   9.147  13.279  0.00  0.00    +0.000 C 
ATOM      8  C   UNL     1      46.919   8.296  12.095  0.00  0.00    +0.000 C 
ATOM      9  C   UNL     1      48.120   7.443  11.648  0.00  0.00    +0.000 C 
ATOM     10  C   UNL     1      48.702   6.564  12.757  0.00  0.00    +0.000 C 
BRANCH   8  11
ATOM     11  C   UNL     1      45.668   7.451  12.418  0.00  0.00    +0.000 C 
BRANCH  11  12
ATOM     12  N   UNL     1      45.390   6.460  11.403  0.00  0.00    +0.000 N 
ATOM     13  C   UNL     1      45.145   5.108  11.606  0.00  0.00    +0.000 C 
ATOM     14  O   UNL     1      45.096   4.564  12.697  0.00  0.00    +0.000 OA
ATOM     15  H   UNL     1      45.383   6.733  10.421  0.00  0.00    +0.000 HD
BRANCH  13  16
ATOM     16  C   UNL     1      44.951   4.393  10.331  0.00  0.00    +0.000 A 
ATOM     17  C   UNL     1      45.502   4.704   9.055  0.00  0.00    +0.000 A 
ATOM     18  C   UNL     1      44.982   3.769   8.196  0.00  0.00    +0.000 A 
ATOM     19  N   UNL     1      44.195   2.958   8.953  0.00  0.00    +0.000 N 
ATOM     20  N   UNL     1      44.162   3.296  10.251  0.00  0.00    +0.000 NA
ATOM     21  H   UNL     1      43.648   2.156   8.654  0.00  0.00    +0.000 HD
ENDBRANCH  13  16
ENDBRANCH  11  12
ENDBRANCH   8  11
ENDBRANCH   2   5
BRANCH   1  22
ATOM     22  C   UNL     1      51.082   6.635  16.075  0.00  0.00    +0.000 C 
BRANCH  22  23
ATOM     23  C   UNL     1      50.213   7.253  17.153  0.00  0.00    +0.000 A 
ATOM     24  C   UNL     1      50.396   8.489  17.761  0.00  0.00    +0.000 A 
ATOM     25  S   UNL     1      49.261   8.809  18.999  0.00  0.00    +0.000 S 
ATOM     26  C   UNL     1      48.444   7.347  18.708  0.00  0.00    +0.000 A 
ATOM     27  N   UNL     1      47.366   6.969  19.445  0.00  0.00    +0.000 NA
ATOM     28  C   UNL     1      46.839   5.848  19.076  0.00  0.00    +0.000 A 
ATOM     29  N   UNL     1      47.277   5.078  18.027  0.00  0.00    +0.000 N 
ATOM     30  C   UNL     1      48.340   5.434  17.235  0.00  0.00    +0.000 A 
ATOM     31  O   UNL     1      48.683   4.788  16.252  0.00  0.00    +0.000 OA
ATOM     32  C   UNL     1      49.004   6.650  17.658  0.00  0.00    +0.000 A 
ATOM     33  H   UNL     1      46.791   4.231  17.769  0.00  0.00    +0.000 HD
ENDBRANCH  22  23
BRANCH  22  35
ATOM     34  N   UNL     1      53.405   5.854  17.039  0.00  0.00    +0.000 NA
ATOM     35  C   UNL     1      52.386   6.214  16.602  0.00  0.00    +0.000 C 
ENDBRANCH  22  35
ENDBRANCH   1  22
TORSDOF 7
ENDMDL
MODEL 5
REMARK VINA RESULT:    -6.396      3.480      8.743
REMARK INTER + INTRA:         -10.105
REMARK INTER:                  -9.447
REMARK INTRA:                  -0.658
REMARK UNBOUND:                -1.092
REMARK  Name = 
REMARK  7 active torsions:
REMARK  status: ('A' for Active; 'I' for Inactive)
REMARK    1  A    between atoms: C_2  and  C_3
REMARK    2  A    between atoms: C_3  and  N_4
REMARK    3  A    between atoms: C_3  and  C_22
REMARK    4  A    between atoms: C_5  and  C_7
REMARK    5  A    between atoms: C_10  and  C_11
REMARK    6  A    between atoms: C_11  and  N_12
REMARK    7  A    between atoms: C_13  and  C_15
REMARK                            x       y       z     vdW  Elec       q    Type
REMARK                         _______ _______ _______ _____ _____    ______ ____
ROOT
ATOM      1  N   UNL     1      47.407   7.024  11.553  0.00  0.00    +0.000 N 
ATOM      2  C   UNL     1      48.392   7.268  12.457  0.00  0.00    +0.000 C 
ATOM      3  O   UNL     1      49.547   7.362  12.048  0.00  0.00    +0.000 OA
ATOM      4  H   UNL     1      47.744   6.923  10.601  0.00  0.00    +0.000 HD
ENDROOT
BRANCH   2   5
ATOM      5  C   UNL     1      48.002   7.449  13.924  0.00  0.00    +0.000 C 
ATOM      6  C   UNL     1      48.918   6.653  14.870  0.00  0.00    +0.000 C 
ATOM      7  C   UNL     1      50.245   7.333  15.149  0.00  0.00    +0.000 C 
ATOM      8  C   UNL     1      50.031   8.720  15.737  0.00  0.00    +0.000 C 
ATOM      9  C   UNL     1      49.240   9.557  14.717  0.00  0.00    +0.000 C 
ATOM     10  C   UNL     1      47.904   8.935  14.308  0.00  0.00    +0.000 C 
BRANCH   8  11
ATOM     11  C   UNL     1      49.353   8.664  17.124  0.00  0.00    +0.000 C 
BRANCH  11  12
ATOM     12  N   UNL     1      49.167   7.310  17.595  0.00  0.00    +0.000 N 
ATOM     13  C   UNL     1      48.274   6.885  18.569  0.00  0.00    +0.000 C 
ATOM     14  O   UNL     1      47.481   7.607  19.152  0.00  0.00    +0.000 OA
ATOM     15  H   UNL     1      49.743   6.560  17.215  0.00  0.00    +0.000 HD
BRANCH  13  16
ATOM     16  C   UNL     1      48.397   5.438  18.827  0.00  0.00    +0.000 A 
ATOM     17  C   UNL     1      48.481   4.380  17.878  0.00  0.00    +0.000 A 
ATOM     18  C   UNL     1      48.533   3.227  18.620  0.00  0.00    +0.000 A 
ATOM     19  N   UNL     1      48.500   3.617  19.924  0.00  0.00    +0.000 N 
ATOM     20  N   UNL     1      48.431   4.946  20.088  0.00  0.00    +0.000 NA
ATOM     21  H   UNL     1      48.519   3.033  20.754  0.00  0.00    +0.000 HD
ENDBRANCH  13  16
ENDBRANCH  11  12
ENDBRANCH   8  11
ENDBRANCH   2   5
BRANCH   1  22
ATOM     22  C   UNL     1      45.989   6.799  11.798  0.00  0.00    +0.000 C 
BRANCH  22  23
ATOM     23  C   UNL     1      45.524   5.658  10.914  0.00  0.00    +0.000 A 
ATOM     24  C   UNL     1      45.739   5.525   9.547  0.00  0.00    +0.000 A 
ATOM     25  S   UNL     1      44.986   4.145   8.875  0.00  0.00    +0.000 S 
ATOM     26  C   UNL     1      44.421   3.640  10.397  0.00  0.00    +0.000 A 
ATOM     27  N   UNL     1      43.667   2.519  10.546  0.00  0.00    +0.000 NA
ATOM     28  C   UNL     1      43.345   2.256  11.770  0.00  0.00    +0.000 A 
ATOM     29  N   UNL     1      43.724   2.998  12.862  0.00  0.00    +0.000 N 
ATOM     30  C   UNL     1      44.510   4.118  12.764  0.00  0.00    +0.000 A 
ATOM     31  O   UNL     1      44.913   4.736  13.743  0.00  0.00    +0.000 OA
ATOM     32  C   UNL     1      44.835   4.489  11.402  0.00  0.00    +0.000 A 
ATOM     33  H   UNL     1      43.469   2.710  13.796  0.00  0.00    +0.000 HD
ENDBRANCH  22  23
BRANCH  22  35
ATOM     34  N   UNL     1      44.618   9.008  11.375  0.00  0.00    +0.000 NA
ATOM     35  C   UNL     1      45.208   8.021  11.565  0.00  0.00    +0.000 C 
ENDBRANCH  22  35
ENDBRANCH   1  22
TORSDOF 7
ENDMDL
MODEL 6
REMARK VINA RESULT:    -6.328      4.030      7.337
REMARK INTER + INTRA:         -10.010
REMARK INTER:                  -9.244
REMARK INTRA:                  -0.766
REMARK UNBOUND:                -1.092
REMARK  Name = 
REMARK  7 active torsions:
REMARK  status: ('A' for Active; 'I' for Inactive)
REMARK    1  A    between atoms: C_2  and  C_3
REMARK    2  A    between atoms: C_3  and  N_4
REMARK    3  A    between atoms: C_3  and  C_22
REMARK    4  A    between atoms: C_5  and  C_7
REMARK    5  A    between atoms: C_10  and  C_11
REMARK    6  A    between atoms: C_11  and  N_12
REMARK    7  A    between atoms: C_13  and  C_15
REMARK                            x       y       z     vdW  Elec       q    Type
REMARK                         _______ _______ _______ _____ _____    ______ ____
ROOT
ATOM      1  N   UNL     1      45.979   6.658  13.267  0.00  0.00    +0.000 N 
ATOM      2  C   UNL     1      46.730   7.779  13.426  0.00  0.00    +0.000 C 
ATOM      3  O   UNL     1      46.162   8.868  13.395  0.00  0.00    +0.000 OA
ATOM      4  H   UNL     1      44.993   6.845  13.117  0.00  0.00    +0.000 HD
ENDROOT
BRANCH   2   5
ATOM      5  C   UNL     1      48.230   7.619  13.670  0.00  0.00    +0.000 C 
ATOM      6  C   UNL     1      48.949   6.985  12.466  0.00  0.00    +0.000 C 
ATOM      7  C   UNL     1      49.245   7.965  11.347  0.00  0.00    +0.000 C 
ATOM      8  C   UNL     1      50.085   9.129  11.853  0.00  0.00    +0.000 C 
ATOM      9  C   UNL     1      49.292   9.849  12.958  0.00  0.00    +0.000 C 
ATOM     10  C   UNL     1      48.879   8.939  14.117  0.00  0.00    +0.000 C 
BRANCH   8  11
ATOM     11  C   UNL     1      51.486   8.674  12.318  0.00  0.00    +0.000 C 
BRANCH  11  12
ATOM     12  N   UNL     1      52.106   7.753  11.391  0.00  0.00    +0.000 N 
ATOM     13  C   UNL     1      52.700   8.071  10.177  0.00  0.00    +0.000 C 
ATOM     14  O   UNL     1      52.814   9.200   9.730  0.00  0.00    +0.000 OA
ATOM     15  H   UNL     1      52.113   6.756  11.601  0.00  0.00    +0.000 HD
BRANCH  13  16
ATOM     16  C   UNL     1      53.183   6.866   9.476  0.00  0.00    +0.000 A 
ATOM     17  C   UNL     1      53.055   6.542   8.096  0.00  0.00    +0.000 A 
ATOM     18  C   UNL     1      53.623   5.300   7.958  0.00  0.00    +0.000 A 
ATOM     19  N   UNL     1      54.069   4.952   9.196  0.00  0.00    +0.000 N 
ATOM     20  N   UNL     1      53.832   5.879  10.136  0.00  0.00    +0.000 NA
ATOM     21  H   UNL     1      54.541   4.097   9.475  0.00  0.00    +0.000 HD
ENDBRANCH  13  16
ENDBRANCH  11  12
ENDBRANCH   8  11
ENDBRANCH   2   5
BRANCH   1  22
ATOM     22  C   UNL     1      46.425   5.273  13.190  0.00  0.00    +0.000 C 
BRANCH  22  23
ATOM     23  C   UNL     1      45.360   4.465  12.473  0.00  0.00    +0.000 A 
ATOM     24  C   UNL     1      44.408   3.640  13.057  0.00  0.00    +0.000 A 
ATOM     25  S   UNL     1      43.430   2.821  11.919  0.00  0.00    +0.000 S 
ATOM     26  C   UNL     1      44.192   3.603  10.615  0.00  0.00    +0.000 A 
ATOM     27  N   UNL     1      43.852   3.343   9.325  0.00  0.00    +0.000 NA
ATOM     28  C   UNL     1      44.501   4.044   8.455  0.00  0.00    +0.000 A 
ATOM     29  N   UNL     1      45.446   4.995   8.754  0.00  0.00    +0.000 N 
ATOM     30  C   UNL     1      45.800   5.313  10.042  0.00  0.00    +0.000 A 
ATOM     31  O   UNL     1      46.585   6.214  10.312  0.00  0.00    +0.000 OA
ATOM     32  C   UNL     1      45.146   4.501  11.047  0.00  0.00    +0.000 A 
ATOM     33  H   UNL     1      45.886   5.534   8.022  0.00  0.00    +0.000 HD
ENDBRANCH  22  23
BRANCH  22  35
ATOM     34  N   UNL     1      46.928   4.270  15.573  0.00  0.00    +0.000 NA
ATOM     35  C   UNL     1      46.711   4.731  14.525  0.00  0.00    +0.000 C 
ENDBRANCH  22  35
ENDBRANCH   1  22
TORSDOF 7
ENDMDL
MODEL 7
REMARK VINA RESULT:    -6.232      2.399      3.868
REMARK INTER + INTRA:          -9.874
REMARK INTER:                  -9.857
REMARK INTRA:                  -0.018
REMARK UNBOUND:                -1.092
REMARK  Name = 
REMARK  7 active torsions:
REMARK  status: ('A' for Active; 'I' for Inactive)
REMARK    1  A    between atoms: C_2  and  C_3
REMARK    2  A    between atoms: C_3  and  N_4
REMARK    3  A    between atoms: C_3  and  C_22
REMARK    4  A    between atoms: C_5  and  C_7
REMARK    5  A    between atoms: C_10  and  C_11
REMARK    6  A    between atoms: C_11  and  N_12
REMARK    7  A    between atoms: C_13  and  C_15
REMARK                            x       y       z     vdW  Elec       q    Type
REMARK                         _______ _______ _______ _____ _____    ______ ____
ROOT
ATOM      1  N   UNL     1      47.703   5.892  14.604  0.00  0.00    +0.000 N 
ATOM      2  C   UNL     1      46.690   5.056  14.253  0.00  0.00    +0.000 C 
ATOM      3  O   UNL     1      46.386   4.154  15.030  0.00  0.00    +0.000 OA
ATOM      4  H   UNL     1      48.129   5.665  15.496  0.00  0.00    +0.000 HD
ENDROOT
BRANCH   2   5
ATOM      5  C   UNL     1      45.965   5.309  12.932  0.00  0.00    +0.000 C 
ATOM      6  C   UNL     1      46.213   4.185  11.910  0.00  0.00    +0.000 C 
ATOM      7  C   UNL     1      45.355   2.955  12.135  0.00  0.00    +0.000 C 
ATOM      8  C   UNL     1      43.876   3.313  12.110  0.00  0.00    +0.000 C 
ATOM      9  C   UNL     1      43.609   4.329  13.234  0.00  0.00    +0.000 C 
ATOM     10  C   UNL     1      44.469   5.591  13.148  0.00  0.00    +0.000 C 
BRANCH   8  11
ATOM     11  C   UNL     1      43.427   3.821  10.722  0.00  0.00    +0.000 C 
BRANCH  11  12
ATOM     12  N   UNL     1      44.453   3.666   9.716  0.00  0.00    +0.000 N 
ATOM     13  C   UNL     1      44.749   2.513   9.001  0.00  0.00    +0.000 C 
ATOM     14  O   UNL     1      44.149   1.456   9.102  0.00  0.00    +0.000 OA
ATOM     15  H   UNL     1      45.059   4.453   9.489  0.00  0.00    +0.000 HD
BRANCH  13  16
ATOM     16  C   UNL     1      45.895   2.714   8.094  0.00  0.00    +0.000 A 
ATOM     17  C   UNL     1      46.830   1.745   7.631  0.00  0.00    +0.000 A 
ATOM     18  C   UNL     1      47.722   2.441   6.854  0.00  0.00    +0.000 A 
ATOM     19  N   UNL     1      47.298   3.734   6.862  0.00  0.00    +0.000 N 
ATOM     20  N   UNL     1      46.189   3.935   7.589  0.00  0.00    +0.000 NA
ATOM     21  H   UNL     1      47.715   4.534   6.395  0.00  0.00    +0.000 HD
ENDBRANCH  13  16
ENDBRANCH  11  12
ENDBRANCH   8  11
ENDBRANCH   2   5
BRANCH   1  22
ATOM     22  C   UNL     1      48.291   6.976  13.828  0.00  0.00    +0.000 C 
BRANCH  22  23
ATOM     23  C   UNL     1      49.545   7.448  14.538  0.00  0.00    +0.000 A 
ATOM     24  C   UNL     1      49.837   7.311  15.890  0.00  0.00    +0.000 A 
ATOM     25  S   UNL     1      51.312   8.049  16.342  0.00  0.00    +0.000 S 
ATOM     26  C   UNL     1      51.645   8.502  14.738  0.00  0.00    +0.000 A 
ATOM     27  N   UNL     1      52.762   9.203  14.408  0.00  0.00    +0.000 NA
ATOM     28  C   UNL     1      52.884   9.440  13.143  0.00  0.00    +0.000 A 
ATOM     29  N   UNL     1      52.003   9.026  12.174  0.00  0.00    +0.000 N 
ATOM     30  C   UNL     1      50.879   8.290  12.455  0.00  0.00    +0.000 A 
ATOM     31  O   UNL     1      50.135   7.854  11.586  0.00  0.00    +0.000 OA
ATOM     32  C   UNL     1      50.667   8.062  13.870  0.00  0.00    +0.000 A 
ATOM     33  H   UNL     1      52.183   9.213  11.198  0.00  0.00    +0.000 HD
ENDBRANCH  22  23
BRANCH  22  35
ATOM     34  N   UNL     1      46.553   8.929  13.504  0.00  0.00    +0.000 NA
ATOM     35  C   UNL     1      47.332   8.071  13.631  0.00  0.00    +0.000 C 
ENDBRANCH  22  35
ENDBRANCH   1  22
TORSDOF 7
ENDMDL
MODEL 8
REMARK VINA RESULT:    -5.959      3.050      5.315
REMARK INTER + INTRA:          -9.489
REMARK INTER:                  -9.000
REMARK INTRA:                  -0.489
REMARK UNBOUND:                -1.092
REMARK  Name = 
REMARK  7 active torsions:
REMARK  status: ('A' for Active; 'I' for Inactive)
REMARK    1  A    between atoms: C_2  and  C_3
REMARK    2  A    between atoms: C_3  and  N_4
REMARK    3  A    between atoms: C_3  and  C_22
REMARK    4  A    between atoms: C_5  and  C_7
REMARK    5  A    between atoms: C_10  and  C_11
REMARK    6  A    between atoms: C_11  and  N_12
REMARK    7  A    between atoms: C_13  and  C_15
REMARK                            x       y       z     vdW  Elec       q    Type
REMARK                         _______ _______ _______ _____ _____    ______ ____
ROOT
ATOM      1  N   UNL     1      50.490   7.215  16.768  0.00  0.00    +0.000 N 
ATOM      2  C   UNL     1      50.094   7.588  15.523  0.00  0.00    +0.000 C 
ATOM      3  O   UNL     1      50.947   7.998  14.740  0.00  0.00    +0.000 OA
ATOM      4  H   UNL     1      51.484   7.335  16.933  0.00  0.00    +0.000 HD
ENDROOT
BRANCH   2   5
ATOM      5  C   UNL     1      48.617   7.441  15.157  0.00  0.00    +0.000 C 
ATOM      6  C   UNL     1      47.996   8.774  14.705  0.00  0.00    +0.000 C 
ATOM      7  C   UNL     1      48.307   9.134  13.264  0.00  0.00    +0.000 C 
ATOM      8  C   UNL     1      47.840   8.038  12.318  0.00  0.00    +0.000 C 
ATOM      9  C   UNL     1      48.580   6.739  12.685  0.00  0.00    +0.000 C 
ATOM     10  C   UNL     1      48.392   6.310  14.141  0.00  0.00    +0.000 C 
BRANCH   8  11
ATOM     11  C   UNL     1      46.304   7.878  12.329  0.00  0.00    +0.000 C 
BRANCH  11  12
ATOM     12  N   UNL     1      45.870   6.645  11.711  0.00  0.00    +0.000 N 
ATOM     13  C   UNL     1      45.001   5.706  12.250  0.00  0.00    +0.000 C 
ATOM     14  O   UNL     1      44.445   5.810  13.331  0.00  0.00    +0.000 OA
ATOM     15  H   UNL     1      46.229   6.388  10.793  0.00  0.00    +0.000 HD
BRANCH  13  16
ATOM     16  C   UNL     1      44.828   4.547  11.355  0.00  0.00    +0.000 A 
ATOM     17  C   UNL     1      44.598   4.548   9.950  0.00  0.00    +0.000 A 
ATOM     18  C   UNL     1      44.460   3.228   9.602  0.00  0.00    +0.000 A 
ATOM     19  N   UNL     1      44.625   2.517  10.750  0.00  0.00    +0.000 N 
ATOM     20  N   UNL     1      44.862   3.279  11.828  0.00  0.00    +0.000 NA
ATOM     21  H   UNL     1      44.588   1.510  10.876  0.00  0.00    +0.000 HD
ENDBRANCH  13  16
ENDBRANCH  11  12
ENDBRANCH   8  11
ENDBRANCH   2   5
BRANCH   1  22
ATOM     22  C   UNL     1      49.667   6.773  17.886  0.00  0.00    +0.000 C 
BRANCH  22  23
ATOM     23  C   UNL     1      49.156   5.378  17.583  0.00  0.00    +0.000 A 
ATOM     24  C   UNL     1      47.840   5.012  17.326  0.00  0.00    +0.000 A 
ATOM     25  S   UNL     1      47.635   3.328  17.115  0.00  0.00    +0.000 S 
ATOM     26  C   UNL     1      49.303   3.045  17.279  0.00  0.00    +0.000 A 
ATOM     27  N   UNL     1      49.826   1.791  17.227  0.00  0.00    +0.000 NA
ATOM     28  C   UNL     1      51.113   1.750  17.335  0.00  0.00    +0.000 A 
ATOM     29  N   UNL     1      51.929   2.846  17.473  0.00  0.00    +0.000 N 
ATOM     30  C   UNL     1      51.450   4.132  17.500  0.00  0.00    +0.000 A 
ATOM     31  O   UNL     1      52.182   5.113  17.544  0.00  0.00    +0.000 OA
ATOM     32  C   UNL     1      50.005   4.220  17.451  0.00  0.00    +0.000 A 
ATOM     33  H   UNL     1      52.933   2.742  17.513  0.00  0.00    +0.000 HD
ENDBRANCH  22  23
BRANCH  22  35
ATOM     34  N   UNL     1      47.717   8.481  18.354  0.00  0.00    +0.000 NA
ATOM     35  C   UNL     1      48.567   7.712  18.140  0.00  0.00    +0.000 C 
ENDBRANCH  22  35
ENDBRANCH   1  22
TORSDOF 7
ENDMDL
MODEL 9
REMARK VINA RESULT:    -5.955      4.504      7.280
REMARK INTER + INTRA:          -9.483
REMARK INTER:                  -8.499
REMARK INTRA:                  -0.984
REMARK UNBOUND:                -1.092
REMARK  Name = 
REMARK  7 active torsions:
REMARK  status: ('A' for Active; 'I' for Inactive)
REMARK    1  A    between atoms: C_2  and  C_3
REMARK    2  A    between atoms: C_3  and  N_4
REMARK    3  A    between atoms: C_3  and  C_22
REMARK    4  A    between atoms: C_5  and  C_7
REMARK    5  A    between atoms: C_10  and  C_11
REMARK    6  A    between atoms: C_11  and  N_12
REMARK    7  A    between atoms: C_13  and  C_15
REMARK                            x       y       z     vdW  Elec       q    Type
REMARK                         _______ _______ _______ _____ _____    ______ ____
ROOT
ATOM      1  N   UNL     1      51.522   4.192  19.195  0.00  0.00    +0.000 N 
ATOM      2  C   UNL     1      50.227   4.088  18.796  0.00  0.00    +0.000 C 
ATOM      3  O   UNL     1      49.348   4.137  19.654  0.00  0.00    +0.000 OA
ATOM      4  H   UNL     1      51.633   4.286  20.199  0.00  0.00    +0.000 HD
ENDROOT
BRANCH   2   5
ATOM      5  C   UNL     1      49.936   3.953  17.302  0.00  0.00    +0.000 C 
ATOM      6  C   UNL     1      48.947   2.813  17.004  0.00  0.00    +0.000 C 
ATOM      7  C   UNL     1      47.496   3.187  17.243  0.00  0.00    +0.000 C 
ATOM      8  C   UNL     1      47.104   4.398  16.408  0.00  0.00    +0.000 C 
ATOM      9  C   UNL     1      48.003   5.577  16.820  0.00  0.00    +0.000 C 
ATOM     10  C   UNL     1      49.500   5.291  16.683  0.00  0.00    +0.000 C 
BRANCH   8  11
ATOM     11  C   UNL     1      47.158   4.101  14.893  0.00  0.00    +0.000 C 
BRANCH  11  12
ATOM     12  N   UNL     1      46.004   4.611  14.187  0.00  0.00    +0.000 N 
ATOM     13  C   UNL     1      45.346   4.006  13.124  0.00  0.00    +0.000 C 
ATOM     14  O   UNL     1      45.638   2.920  12.650  0.00  0.00    +0.000 OA
ATOM     15  H   UNL     1      45.611   5.513  14.449  0.00  0.00    +0.000 HD
BRANCH  13  16
ATOM     16  C   UNL     1      44.240   4.841  12.622  0.00  0.00    +0.000 A 
ATOM     17  C   UNL     1      44.163   5.551  11.390  0.00  0.00    +0.000 A 
ATOM     18  C   UNL     1      42.958   6.207  11.421  0.00  0.00    +0.000 A 
ATOM     19  N   UNL     1      42.375   5.867  12.603  0.00  0.00    +0.000 N 
ATOM     20  N   UNL     1      43.114   5.033  13.350  0.00  0.00    +0.000 NA
ATOM     21  H   UNL     1      41.476   6.166  12.969  0.00  0.00    +0.000 HD
ENDBRANCH  13  16
ENDBRANCH  11  12
ENDBRANCH   8  11
ENDBRANCH   2   5
BRANCH   1  22
ATOM     22  C   UNL     1      52.729   4.088  18.387  0.00  0.00    +0.000 C 
BRANCH  22  23
ATOM     23  C   UNL     1      53.700   3.161  19.092  0.00  0.00    +0.000 A 
ATOM     24  C   UNL     1      54.556   3.492  20.136  0.00  0.00    +0.000 A 
ATOM     25  S   UNL     1      55.569   2.201  20.616  0.00  0.00    +0.000 S 
ATOM     26  C   UNL     1      54.843   1.141  19.503  0.00  0.00    +0.000 A 
ATOM     27  N   UNL     1      55.255  -0.147  19.367  0.00  0.00    +0.000 NA
ATOM     28  C   UNL     1      54.580  -0.831  18.503  0.00  0.00    +0.000 A 
ATOM     29  N   UNL     1      53.517  -0.353  17.775  0.00  0.00    +0.000 N 
ATOM     30  C   UNL     1      53.046   0.930  17.901  0.00  0.00    +0.000 A 
ATOM     31  O   UNL     1      52.052   1.334  17.311  0.00  0.00    +0.000 OA
ATOM     32  C   UNL     1      53.820   1.752  18.809  0.00  0.00    +0.000 A 
ATOM     33  H   UNL     1      53.009  -0.956  17.145  0.00  0.00    +0.000 HD
ENDBRANCH  22  23
BRANCH  22  35
ATOM     34  N   UNL     1      53.757   6.473  17.946  0.00  0.00    +0.000 NA
ATOM     35  C   UNL     1      53.320   5.409  18.139  0.00  0.00    +0.000 C 
ENDBRANCH  22  35
ENDBRANCH   1  22
TORSDOF 7
ENDMDL
