MODEL 1
REMARK VINA RESULT:    -8.435      0.000      0.000
REMARK INTER + INTRA:         -12.500
REMARK INTER:                 -11.393
REMARK INTRA:                  -1.107
REMARK UNBOUND:                -1.107
REMARK  Name = 
REMARK  9 active torsions:
REMARK  status: ('A' for Active; 'I' for Inactive)
REMARK    1  A    between atoms: C_1  and  C_2
REMARK    2  A    between atoms: C_6  and  O_7
REMARK    3  A    between atoms: O_7  and  C_8
REMARK    4  A    between atoms: C_12  and  C_13
REMARK    5  A    between atoms: C_13  and  C_14
REMARK    6  A    between atoms: C_13  and  C_15
REMARK    7  A    between atoms: C_13  and  C_16
REMARK    8  A    between atoms: C_16  and  N_17
REMARK    9  A    between atoms: C_21  and  C_22
REMARK                            x       y       z     vdW  Elec       q    Type
REMARK                         _______ _______ _______ _____ _____    ______ ____
ROOT
ATOM      1  C   UNL     1      43.621   5.892  11.796  0.00  0.00    +0.000 C 
ATOM      2  C   UNL     1      42.775   5.108  12.823  0.00  0.00    +0.000 C 
ATOM      3  C   UNL     1      43.049   7.331  11.729  0.00  0.00    +0.000 C 
ENDROOT
BRANCH   1   8
ATOM      4  C   UNL     1      47.083   5.194  13.451  0.00  0.00    +0.000 A 
ATOM      5  C   UNL     1      47.888   6.093  12.752  0.00  0.00    +0.000 A 
ATOM      6  C   UNL     1      47.343   6.892  11.753  0.00  0.00    +0.000 A 
ATOM      7  C   UNL     1      45.982   6.817  11.463  0.00  0.00    +0.000 A 
ATOM      8  C   UNL     1      45.123   5.958  12.178  0.00  0.00    +0.000 A 
ATOM      9  C   UNL     1      45.704   5.159  13.187  0.00  0.00    +0.000 A 
BRANCH   4  10
ATOM     10  O   UNL     1      47.554   4.305  14.395  0.00  0.00    +0.000 OA
BRANCH  10  16
ATOM     11  C   UNL     1      48.404   2.418  16.432  0.00  0.00    +0.000 C 
ATOM     12  C   UNL     1      47.474   3.574  16.781  0.00  0.00    +0.000 C 
ATOM     13  C   UNL     1      47.932   4.323  18.031  0.00  0.00    +0.000 C 
ATOM     14  N   UNL     1      48.848   5.368  17.566  0.00  0.00    +0.000 NA
ATOM     15  C   UNL     1      48.382   5.756  16.226  0.00  0.00    +0.000 C 
ATOM     16  C   UNL     1      47.355   4.712  15.754  0.00  0.00    +0.000 C 
ATOM     17  H   UNL     1      49.786   4.975  17.472  0.00  0.00    +0.000 HD
ENDBRANCH  10  16
ENDBRANCH   4  10
ENDBRANCH   1   8
BRANCH   1  18
ATOM     18  C   UNL     1      43.508   5.197  10.401  0.00  0.00    +0.000 C 
BRANCH  18  19
ATOM     19  N   UNL     1      43.868   3.769  10.424  0.00  0.00    +0.000 N 
ATOM     20  C   UNL     1      44.777   3.424   9.398  0.00  0.00    +0.000 A 
ATOM     21  C   UNL     1      45.190   2.104   9.282  0.00  0.00    +0.000 A 
ATOM     22  C   UNL     1      46.080   1.747   8.269  0.00  0.00    +0.000 A 
ATOM     23  C   UNL     1      46.537   2.723   7.392  0.00  0.00    +0.000 A 
ATOM     24  N   UNL     1      46.138   4.004   7.538  0.00  0.00    +0.000 NA
ATOM     25  N   UNL     1      45.268   4.346   8.548  0.00  0.00    +0.000 NA
ATOM     26  H   UNL     1      43.056   3.159  10.338  0.00  0.00    +0.000 HD
BRANCH  23  27
ATOM     27  C   UNL     1      47.472   2.404   6.252  0.00  0.00    +0.000 C 
ATOM     28  F   UNL     1      47.580   1.064   6.006  0.00  0.00    +0.000 F 
ATOM     29  F   UNL     1      47.077   2.956   5.069  0.00  0.00    +0.000 F 
ATOM     30  F   UNL     1      48.748   2.835   6.461  0.00  0.00    +0.000 F 
ENDBRANCH  23  27
ENDBRANCH  18  19
ENDBRANCH   1  18
TORSDOF 6
ENDMDL
MODEL 2
REMARK VINA RESULT:    -7.812      2.533      3.603
REMARK INTER + INTRA:         -11.659
REMARK INTER:                 -10.518
REMARK INTRA:                  -1.140
REMARK UNBOUND:                -1.107
REMARK  Name = 
REMARK  9 active torsions:
REMARK  status: ('A' for Active; 'I' for Inactive)
REMARK    1  A    between atoms: C_1  and  C_2
REMARK    2  A    between atoms: C_6  and  O_7
REMARK    3  A    between atoms: O_7  and  C_8
REMARK    4  A    between atoms: C_12  and  C_13
REMARK    5  A    between atoms: C_13  and  C_14
REMARK    6  A    between atoms: C_13  and  C_15
REMARK    7  A    between atoms: C_13  and  C_16
REMARK    8  A    between atoms: C_16  and  N_17
REMARK    9  A    between atoms: C_21  and  C_22
REMARK                            x       y       z     vdW  Elec       q    Type
REMARK                         _______ _______ _______ _____ _____    ______ ____
ROOT
ATOM      1  C   UNL     1      44.112   5.231  12.208  0.00  0.00    +0.000 C 
ATOM      2  C   UNL     1      45.139   4.219  12.762  0.00  0.00    +0.000 C 
ATOM      3  C   UNL     1      42.877   5.194  13.143  0.00  0.00    +0.000 C 
ENDROOT
BRANCH   1   8
ATOM      4  C   UNL     1      46.356   8.388  12.666  0.00  0.00    +0.000 A 
ATOM      5  C   UNL     1      45.636   9.325  11.926  0.00  0.00    +0.000 A 
ATOM      6  C   UNL     1      44.467   8.953  11.271  0.00  0.00    +0.000 A 
ATOM      7  C   UNL     1      43.995   7.646  11.372  0.00  0.00    +0.000 A 
ATOM      8  C   UNL     1      44.664   6.679  12.151  0.00  0.00    +0.000 A 
ATOM      9  C   UNL     1      45.849   7.086  12.805  0.00  0.00    +0.000 A 
BRANCH   4  10
ATOM     10  O   UNL     1      47.566   8.648  13.276  0.00  0.00    +0.000 OA
BRANCH  10  16
ATOM     11  C   UNL     1      49.317   9.976  11.377  0.00  0.00    +0.000 C 
ATOM     12  C   UNL     1      49.347   8.460  11.536  0.00  0.00    +0.000 C 
ATOM     13  C   UNL     1      50.771   7.925  11.673  0.00  0.00    +0.000 C 
ATOM     14  N   UNL     1      51.080   7.953  13.105  0.00  0.00    +0.000 NA
ATOM     15  C   UNL     1      49.806   7.728  13.804  0.00  0.00    +0.000 C 
ATOM     16  C   UNL     1      48.665   7.872  12.782  0.00  0.00    +0.000 C 
ATOM     17  H   UNL     1      51.418   8.883  13.357  0.00  0.00    +0.000 HD
ENDBRANCH  10  16
ENDBRANCH   4  10
ENDBRANCH   1   8
BRANCH   1  18
ATOM     18  C   UNL     1      43.708   4.811  10.757  0.00  0.00    +0.000 C 
BRANCH  18  19
ATOM     19  N   UNL     1      43.919   3.380  10.479  0.00  0.00    +0.000 N 
ATOM     20  C   UNL     1      44.829   3.164   9.419  0.00  0.00    +0.000 A 
ATOM     21  C   UNL     1      45.109   1.862   9.029  0.00  0.00    +0.000 A 
ATOM     22  C   UNL     1      45.998   1.633   7.979  0.00  0.00    +0.000 A 
ATOM     23  C   UNL     1      46.587   2.717   7.340  0.00  0.00    +0.000 A 
ATOM     24  N   UNL     1      46.315   3.973   7.752  0.00  0.00    +0.000 NA
ATOM     25  N   UNL     1      45.445   4.186   8.796  0.00  0.00    +0.000 NA
ATOM     26  H   UNL     1      43.053   2.893  10.250  0.00  0.00    +0.000 HD
BRANCH  23  27
ATOM     27  C   UNL     1      47.530   2.547   6.175  0.00  0.00    +0.000 C 
ATOM     28  F   UNL     1      47.175   3.290   5.084  0.00  0.00    +0.000 F 
ATOM     29  F   UNL     1      48.808   2.924   6.466  0.00  0.00    +0.000 F 
ATOM     30  F   UNL     1      47.610   1.263   5.726  0.00  0.00    +0.000 F 
ENDBRANCH  23  27
ENDBRANCH  18  19
ENDBRANCH   1  18
TORSDOF 6
ENDMDL
MODEL 3
REMARK VINA RESULT:    -7.462      4.693      8.400
REMARK INTER + INTRA:         -11.186
REMARK INTER:                 -10.236
REMARK INTRA:                  -0.950
REMARK UNBOUND:                -1.107
REMARK  Name = 
REMARK  9 active torsions:
REMARK  status: ('A' for Active; 'I' for Inactive)
REMARK    1  A    between atoms: C_1  and  C_2
REMARK    2  A    between atoms: C_6  and  O_7
REMARK    3  A    between atoms: O_7  and  C_8
REMARK    4  A    between atoms: C_12  and  C_13
REMARK    5  A    between atoms: C_13  and  C_14
REMARK    6  A    between atoms: C_13  and  C_15
REMARK    7  A    between atoms: C_13  and  C_16
REMARK    8  A    between atoms: C_16  and  N_17
REMARK    9  A    between atoms: C_21  and  C_22
REMARK                            x       y       z     vdW  Elec       q    Type
REMARK                         _______ _______ _______ _____ _____    ______ ____
ROOT
ATOM      1  C   UNL     1      45.786   6.236  11.690  0.00  0.00    +0.000 C 
ATOM      2  C   UNL     1      47.109   6.727  11.059  0.00  0.00    +0.000 C 
ATOM      3  C   UNL     1      44.768   7.399  11.588  0.00  0.00    +0.000 C 
ENDROOT
BRANCH   1   8
ATOM      4  C   UNL     1      44.865   3.570   8.996  0.00  0.00    +0.000 A 
ATOM      5  C   UNL     1      44.183   2.639   9.779  0.00  0.00    +0.000 A 
ATOM      6  C   UNL     1      44.039   2.844  11.147  0.00  0.00    +0.000 A 
ATOM      7  C   UNL     1      44.554   3.995  11.739  0.00  0.00    +0.000 A 
ATOM      8  C   UNL     1      45.207   4.987  10.977  0.00  0.00    +0.000 A 
ATOM      9  C   UNL     1      45.338   4.751   9.590  0.00  0.00    +0.000 A 
BRANCH   4  10
ATOM     10  O   UNL     1      45.128   3.407   7.652  0.00  0.00    +0.000 OA
BRANCH  10  16
ATOM     11  C   UNL     1      46.510   0.853   7.645  0.00  0.00    +0.000 C 
ATOM     12  C   UNL     1      47.292   2.162   7.653  0.00  0.00    +0.000 C 
ATOM     13  C   UNL     1      48.407   2.172   6.609  0.00  0.00    +0.000 C 
ATOM     14  N   UNL     1      47.804   2.687   5.376  0.00  0.00    +0.000 NA
ATOM     15  C   UNL     1      46.754   3.628   5.795  0.00  0.00    +0.000 C 
ATOM     16  C   UNL     1      46.517   3.442   7.303  0.00  0.00    +0.000 C 
ATOM     17  H   UNL     1      47.357   1.918   4.875  0.00  0.00    +0.000 HD
ENDBRANCH  10  16
ENDBRANCH   4  10
ENDBRANCH   1   8
BRANCH   1  18
ATOM     18  C   UNL     1      46.039   5.864  13.187  0.00  0.00    +0.000 C 
BRANCH  18  19
ATOM     19  N   UNL     1      47.091   6.674  13.825  0.00  0.00    +0.000 N 
ATOM     20  C   UNL     1      47.770   5.972  14.846  0.00  0.00    +0.000 A 
ATOM     21  C   UNL     1      48.775   6.618  15.552  0.00  0.00    +0.000 A 
ATOM     22  C   UNL     1      49.448   5.940  16.568  0.00  0.00    +0.000 A 
ATOM     23  C   UNL     1      49.098   4.626  16.856  0.00  0.00    +0.000 A 
ATOM     24  N   UNL     1      48.132   4.012  16.140  0.00  0.00    +0.000 NA
ATOM     25  N   UNL     1      47.483   4.688  15.133  0.00  0.00    +0.000 NA
ATOM     26  H   UNL     1      46.730   7.538  14.229  0.00  0.00    +0.000 HD
BRANCH  23  27
ATOM     27  C   UNL     1      49.758   3.843  17.963  0.00  0.00    +0.000 C 
ATOM     28  F   UNL     1      49.081   2.703  18.292  0.00  0.00    +0.000 F 
ATOM     29  F   UNL     1      51.020   3.433  17.645  0.00  0.00    +0.000 F 
ATOM     30  F   UNL     1      49.872   4.542  19.127  0.00  0.00    +0.000 F 
ENDBRANCH  23  27
ENDBRANCH  18  19
ENDBRANCH   1  18
TORSDOF 6
ENDMDL
MODEL 4
REMARK VINA RESULT:    -7.431      4.479      7.885
REMARK INTER + INTRA:         -11.144
REMARK INTER:                  -9.858
REMARK INTRA:                  -1.286
REMARK UNBOUND:                -1.107
REMARK  Name = 
REMARK  9 active torsions:
REMARK  status: ('A' for Active; 'I' for Inactive)
REMARK    1  A    between atoms: C_1  and  C_2
REMARK    2  A    between atoms: C_6  and  O_7
REMARK    3  A    between atoms: O_7  and  C_8
REMARK    4  A    between atoms: C_12  and  C_13
REMARK    5  A    between atoms: C_13  and  C_14
REMARK    6  A    between atoms: C_13  and  C_15
REMARK    7  A    between atoms: C_13  and  C_16
REMARK    8  A    between atoms: C_16  and  N_17
REMARK    9  A    between atoms: C_21  and  C_22
REMARK                            x       y       z     vdW  Elec       q    Type
REMARK                         _______ _______ _______ _____ _____    ______ ____
ROOT
ATOM      1  C   UNL     1      49.021   9.002  12.516  0.00  0.00    +0.000 C 
ATOM      2  C   UNL     1      49.672   9.782  11.352  0.00  0.00    +0.000 C 
ATOM      3  C   UNL     1      49.003   9.942  13.747  0.00  0.00    +0.000 C 
ENDROOT
BRANCH   1   8
ATOM      4  C   UNL     1      45.925   6.886  11.442  0.00  0.00    +0.000 A 
ATOM      5  C   UNL     1      44.892   7.776  11.732  0.00  0.00    +0.000 A 
ATOM      6  C   UNL     1      45.174   9.021  12.284  0.00  0.00    +0.000 A 
ATOM      7  C   UNL     1      46.494   9.396  12.526  0.00  0.00    +0.000 A 
ATOM      8  C   UNL     1      47.572   8.547  12.201  0.00  0.00    +0.000 A 
ATOM      9  C   UNL     1      47.256   7.289  11.641  0.00  0.00    +0.000 A 
BRANCH   4  10
ATOM     10  O   UNL     1      45.733   5.602  10.974  0.00  0.00    +0.000 OA
BRANCH  10  16
ATOM     11  C   UNL     1      44.439   3.519   9.420  0.00  0.00    +0.000 C 
ATOM     12  C   UNL     1      43.804   4.041  10.703  0.00  0.00    +0.000 C 
ATOM     13  C   UNL     1      43.348   2.908  11.621  0.00  0.00    +0.000 C 
ATOM     14  N   UNL     1      44.498   2.587  12.472  0.00  0.00    +0.000 NA
ATOM     15  C   UNL     1      45.240   3.844  12.650  0.00  0.00    +0.000 C 
ATOM     16  C   UNL     1      44.697   4.870  11.640  0.00  0.00    +0.000 C 
ATOM     17  H   UNL     1      45.105   1.929  11.980  0.00  0.00    +0.000 HD
ENDBRANCH  10  16
ENDBRANCH   4  10
ENDBRANCH   1   8
BRANCH   1  18
ATOM     18  C   UNL     1      49.872   7.726  12.819  0.00  0.00    +0.000 C 
BRANCH  18  19
ATOM     19  N   UNL     1      50.454   7.714  14.172  0.00  0.00    +0.000 N 
ATOM     20  C   UNL     1      49.747   6.870  15.057  0.00  0.00    +0.000 A 
ATOM     21  C   UNL     1      50.167   6.775  16.376  0.00  0.00    +0.000 A 
ATOM     22  C   UNL     1      49.474   5.952  17.263  0.00  0.00    +0.000 A 
ATOM     23  C   UNL     1      48.371   5.241  16.808  0.00  0.00    +0.000 A 
ATOM     24  N   UNL     1      47.994   5.332  15.515  0.00  0.00    +0.000 NA
ATOM     25  N   UNL     1      48.692   6.139  14.647  0.00  0.00    +0.000 NA
ATOM     26  H   UNL     1      50.490   8.644  14.591  0.00  0.00    +0.000 HD
BRANCH  23  27
ATOM     27  C   UNL     1      47.552   4.359  17.719  0.00  0.00    +0.000 C 
ATOM     28  F   UNL     1      46.819   3.424  17.044  0.00  0.00    +0.000 F 
ATOM     29  F   UNL     1      48.316   3.650  18.598  0.00  0.00    +0.000 F 
ATOM     30  F   UNL     1      46.651   5.048  18.473  0.00  0.00    +0.000 F 
ENDBRANCH  23  27
ENDBRANCH  18  19
ENDBRANCH   1  18
TORSDOF 6
ENDMDL
MODEL 5
REMARK VINA RESULT:    -7.072      2.578      4.011
REMARK INTER + INTRA:         -10.659
REMARK INTER:                  -9.703
REMARK INTRA:                  -0.957
REMARK UNBOUND:                -1.107
REMARK  Name = 
REMARK  9 active torsions:
REMARK  status: ('A' for Active; 'I' for Inactive)
REMARK    1  A    between atoms: C_1  and  C_2
REMARK    2  A    between atoms: C_6  and  O_7
REMARK    3  A    between atoms: O_7  and  C_8
REMARK    4  A    between atoms: C_12  and  C_13
REMARK    5  A    between atoms: C_13  and  C_14
REMARK    6  A    between atoms: C_13  and  C_15
REMARK    7  A    between atoms: C_13  and  C_16
REMARK    8  A    between atoms: C_16  and  N_17
REMARK    9  A    between atoms: C_21  and  C_22
REMARK                            x       y       z     vdW  Elec       q    Type
REMARK                         _______ _______ _______ _____ _____    ______ ____
ROOT
ATOM      1  C   UNL     1      47.528   8.450  12.723  0.00  0.00    +0.000 C 
ATOM      2  C   UNL     1      47.529   9.944  12.330  0.00  0.00    +0.000 C 
ATOM      3  C   UNL     1      48.454   7.710  11.725  0.00  0.00    +0.000 C 
ENDROOT
BRANCH   1   8
ATOM      4  C   UNL     1      49.183   6.860  15.877  0.00  0.00    +0.000 A 
ATOM      5  C   UNL     1      49.007   7.886  16.804  0.00  0.00    +0.000 A 
ATOM      6  C   UNL     1      48.392   9.075  16.426  0.00  0.00    +0.000 A 
ATOM      7  C   UNL     1      47.926   9.237  15.123  0.00  0.00    +0.000 A 
ATOM      8  C   UNL     1      48.038   8.207  14.167  0.00  0.00    +0.000 A 
ATOM      9  C   UNL     1      48.667   7.011  14.579  0.00  0.00    +0.000 A 
BRANCH   4  10
ATOM     10  O   UNL     1      49.856   5.685  16.140  0.00  0.00    +0.000 OA
BRANCH  10  16
ATOM     11  C   UNL     1      47.644   3.810  15.968  0.00  0.00    +0.000 C 
ATOM     12  C   UNL     1      48.108   4.346  17.318  0.00  0.00    +0.000 C 
ATOM     13  C   UNL     1      48.283   3.231  18.348  0.00  0.00    +0.000 C 
ATOM     14  N   UNL     1      49.664   2.759  18.204  0.00  0.00    +0.000 NA
ATOM     15  C   UNL     1      50.454   3.924  17.778  0.00  0.00    +0.000 C 
ATOM     16  C   UNL     1      49.479   5.039  17.363  0.00  0.00    +0.000 C 
ATOM     17  H   UNL     1      49.703   2.061  17.460  0.00  0.00    +0.000 HD
ENDBRANCH  10  16
ENDBRANCH   4  10
ENDBRANCH   1   8
BRANCH   1  18
ATOM     18  C   UNL     1      46.070   7.894  12.626  0.00  0.00    +0.000 C 
BRANCH  18  19
ATOM     19  N   UNL     1      45.908   6.559  13.226  0.00  0.00    +0.000 N 
ATOM     20  C   UNL     1      45.654   5.559  12.260  0.00  0.00    +0.000 A 
ATOM     21  C   UNL     1      45.456   4.252  12.681  0.00  0.00    +0.000 A 
ATOM     22  C   UNL     1      45.195   3.256  11.740  0.00  0.00    +0.000 A 
ATOM     23  C   UNL     1      45.137   3.594  10.394  0.00  0.00    +0.000 A 
ATOM     24  N   UNL     1      45.354   4.868  10.006  0.00  0.00    +0.000 NA
ATOM     25  N   UNL     1      45.621   5.840  10.943  0.00  0.00    +0.000 NA
ATOM     26  H   UNL     1      45.155   6.527  13.913  0.00  0.00    +0.000 HD
BRANCH  23  27
ATOM     27  C   UNL     1      44.825   2.576   9.324  0.00  0.00    +0.000 C 
ATOM     28  F   UNL     1      45.918   1.852   8.937  0.00  0.00    +0.000 F 
ATOM     29  F   UNL     1      43.904   1.653   9.721  0.00  0.00    +0.000 F 
ATOM     30  F   UNL     1      44.336   3.128   8.178  0.00  0.00    +0.000 F 
ENDBRANCH  23  27
ENDBRANCH  18  19
ENDBRANCH   1  18
TORSDOF 6
ENDMDL
MODEL 6
REMARK VINA RESULT:    -6.904      1.814      2.129
REMARK INTER + INTRA:         -10.433
REMARK INTER:                  -9.714
REMARK INTRA:                  -0.719
REMARK UNBOUND:                -1.107
REMARK  Name = 
REMARK  9 active torsions:
REMARK  status: ('A' for Active; 'I' for Inactive)
REMARK    1  A    between atoms: C_1  and  C_2
REMARK    2  A    between atoms: C_6  and  O_7
REMARK    3  A    between atoms: O_7  and  C_8
REMARK    4  A    between atoms: C_12  and  C_13
REMARK    5  A    between atoms: C_13  and  C_14
REMARK    6  A    between atoms: C_13  and  C_15
REMARK    7  A    between atoms: C_13  and  C_16
REMARK    8  A    between atoms: C_16  and  N_17
REMARK    9  A    between atoms: C_21  and  C_22
REMARK                            x       y       z     vdW  Elec       q    Type
REMARK                         _______ _______ _______ _____ _____    ______ ____
ROOT
ATOM      1  C   UNL     1      45.309   7.300  11.984  0.00  0.00    +0.000 C 
ATOM      2  C   UNL     1      44.431   6.459  12.936  0.00  0.00    +0.000 C 
ATOM      3  C   UNL     1      44.755   8.747  12.003  0.00  0.00    +0.000 C 
ENDROOT
BRANCH   1   8
ATOM      4  C   UNL     1      48.655   6.705  13.899  0.00  0.00    +0.000 A 
ATOM      5  C   UNL     1      49.556   7.340  13.045  0.00  0.00    +0.000 A 
ATOM      6  C   UNL     1      49.110   7.928  11.866  0.00  0.00    +0.000 A 
ATOM      7  C   UNL     1      47.754   7.907  11.544  0.00  0.00    +0.000 A 
ATOM      8  C   UNL     1      46.802   7.320  12.403  0.00  0.00    +0.000 A 
ATOM      9  C   UNL     1      47.284   6.731  13.593  0.00  0.00    +0.000 A 
BRANCH   4  10
ATOM     10  O   UNL     1      49.019   6.024  15.042  0.00  0.00    +0.000 OA
BRANCH  10  16
ATOM     11  C   UNL     1      50.836   5.550  17.257  0.00  0.00    +0.000 C 
ATOM     12  C   UNL     1      49.460   6.160  17.495  0.00  0.00    +0.000 C 
ATOM     13  C   UNL     1      49.526   7.394  18.393  0.00  0.00    +0.000 C 
ATOM     14  N   UNL     1      49.736   8.536  17.498  0.00  0.00    +0.000 NA
ATOM     15  C   UNL     1      49.065   8.196  16.234  0.00  0.00    +0.000 C 
ATOM     16  C   UNL     1      48.710   6.700  16.267  0.00  0.00    +0.000 C 
ATOM     17  H   UNL     1      50.735   8.635  17.309  0.00  0.00    +0.000 HD
ENDBRANCH  10  16
ENDBRANCH   4  10
ENDBRANCH   1   8
BRANCH   1  18
ATOM     18  C   UNL     1      45.220   6.704  10.542  0.00  0.00    +0.000 C 
BRANCH  18  19
ATOM     19  N   UNL     1      44.738   5.312  10.510  0.00  0.00    +0.000 N 
ATOM     20  C   UNL     1      45.303   4.569   9.449  0.00  0.00    +0.000 A 
ATOM     21  C   UNL     1      44.923   3.245   9.280  0.00  0.00    +0.000 A 
ATOM     22  C   UNL     1      45.466   2.501   8.233  0.00  0.00    +0.000 A 
ATOM     23  C   UNL     1      46.379   3.102   7.375  0.00  0.00    +0.000 A 
ATOM     24  N   UNL     1      46.749   4.385   7.573  0.00  0.00    +0.000 NA
ATOM     25  N   UNL     1      46.215   5.105   8.616  0.00  0.00    +0.000 NA
ATOM     26  H   UNL     1      43.723   5.251  10.427  0.00  0.00    +0.000 HD
BRANCH  23  27
ATOM     27  C   UNL     1      46.980   2.370   6.201  0.00  0.00    +0.000 C 
ATOM     28  F   UNL     1      46.789   1.018   6.256  0.00  0.00    +0.000 F 
ATOM     29  F   UNL     1      46.453   2.759   5.005  0.00  0.00    +0.000 F 
ATOM     30  F   UNL     1      48.328   2.538   6.090  0.00  0.00    +0.000 F 
ENDBRANCH  23  27
ENDBRANCH  18  19
ENDBRANCH   1  18
TORSDOF 6
ENDMDL
MODEL 7
REMARK VINA RESULT:    -6.779      2.553      3.167
REMARK INTER + INTRA:         -10.264
REMARK INTER:                  -9.742
REMARK INTRA:                  -0.522
REMARK UNBOUND:                -1.107
REMARK  Name = 
REMARK  9 active torsions:
REMARK  status: ('A' for Active; 'I' for Inactive)
REMARK    1  A    between atoms: C_1  and  C_2
REMARK    2  A    between atoms: C_6  and  O_7
REMARK    3  A    between atoms: O_7  and  C_8
REMARK    4  A    between atoms: C_12  and  C_13
REMARK    5  A    between atoms: C_13  and  C_14
REMARK    6  A    between atoms: C_13  and  C_15
REMARK    7  A    between atoms: C_13  and  C_16
REMARK    8  A    between atoms: C_16  and  N_17
REMARK    9  A    between atoms: C_21  and  C_22
REMARK                            x       y       z     vdW  Elec       q    Type
REMARK                         _______ _______ _______ _____ _____    ______ ____
ROOT
ATOM      1  C   UNL     1      44.144   5.019  12.283  0.00  0.00    +0.000 C 
ATOM      2  C   UNL     1      45.099   3.885  12.719  0.00  0.00    +0.000 C 
ATOM      3  C   UNL     1      42.972   5.048  13.295  0.00  0.00    +0.000 C 
ENDROOT
BRANCH   1   8
ATOM      4  C   UNL     1      46.726   7.912  12.711  0.00  0.00    +0.000 A 
ATOM      5  C   UNL     1      46.040   8.961  12.101  0.00  0.00    +0.000 A 
ATOM      6  C   UNL     1      44.785   8.746  11.540  0.00  0.00    +0.000 A 
ATOM      7  C   UNL     1      44.196   7.486  11.609  0.00  0.00    +0.000 A 
ATOM      8  C   UNL     1      44.832   6.409  12.260  0.00  0.00    +0.000 A 
ATOM      9  C   UNL     1      46.105   6.657  12.820  0.00  0.00    +0.000 A 
BRANCH   4  10
ATOM     10  O   UNL     1      48.006   8.013  13.216  0.00  0.00    +0.000 OA
BRANCH  10  16
ATOM     11  C   UNL     1      50.101   7.265  15.082  0.00  0.00    +0.000 C 
ATOM     12  C   UNL     1      48.980   8.207  15.506  0.00  0.00    +0.000 C 
ATOM     13  C   UNL     1      49.512   9.447  16.222  0.00  0.00    +0.000 C 
ATOM     14  N   UNL     1      49.776  10.439  15.175  0.00  0.00    +0.000 NA
ATOM     15  C   UNL     1      48.792  10.186  14.113  0.00  0.00    +0.000 C 
ATOM     16  C   UNL     1      48.126   8.827  14.389  0.00  0.00    +0.000 C 
ATOM     17  H   UNL     1      50.707  10.277  14.788  0.00  0.00    +0.000 HD
ENDBRANCH  10  16
ENDBRANCH   4  10
ENDBRANCH   1   8
BRANCH   1  18
ATOM     18  C   UNL     1      43.613   4.719  10.845  0.00  0.00    +0.000 C 
BRANCH  18  19
ATOM     19  N   UNL     1      44.460   5.277   9.776  0.00  0.00    +0.000 N 
ATOM     20  C   UNL     1      45.133   4.275   9.041  0.00  0.00    +0.000 A 
ATOM     21  C   UNL     1      45.987   4.654   8.015  0.00  0.00    +0.000 A 
ATOM     22  C   UNL     1      46.665   3.676   7.286  0.00  0.00    +0.000 A 
ATOM     23  C   UNL     1      46.473   2.338   7.605  0.00  0.00    +0.000 A 
ATOM     24  N   UNL     1      45.621   1.993   8.593  0.00  0.00    +0.000 NA
ATOM     25  N   UNL     1      44.949   2.966   9.297  0.00  0.00    +0.000 NA
ATOM     26  H   UNL     1      45.161   5.927  10.131  0.00  0.00    +0.000 HD
BRANCH  23  27
ATOM     27  C   UNL     1      47.199   1.229   6.884  0.00  0.00    +0.000 C 
ATOM     28  F   UNL     1      47.164   1.360   5.524  0.00  0.00    +0.000 F 
ATOM     29  F   UNL     1      48.523   1.164   7.204  0.00  0.00    +0.000 F 
ATOM     30  F   UNL     1      46.689  -0.008   7.139  0.00  0.00    +0.000 F 
ENDBRANCH  23  27
ENDBRANCH  18  19
ENDBRANCH   1  18
TORSDOF 6
ENDMDL
MODEL 8
REMARK VINA RESULT:    -6.523      4.271      6.655
REMARK INTER + INTRA:          -9.917
REMARK INTER:                  -9.042
REMARK INTRA:                  -0.875
REMARK UNBOUND:                -1.107
REMARK  Name = 
REMARK  9 active torsions:
REMARK  status: ('A' for Active; 'I' for Inactive)
REMARK    1  A    between atoms: C_1  and  C_2
REMARK    2  A    between atoms: C_6  and  O_7
REMARK    3  A    between atoms: O_7  and  C_8
REMARK    4  A    between atoms: C_12  and  C_13
REMARK    5  A    between atoms: C_13  and  C_14
REMARK    6  A    between atoms: C_13  and  C_15
REMARK    7  A    between atoms: C_13  and  C_16
REMARK    8  A    between atoms: C_16  and  N_17
REMARK    9  A    between atoms: C_21  and  C_22
REMARK                            x       y       z     vdW  Elec       q    Type
REMARK                         _______ _______ _______ _____ _____    ______ ____
ROOT
ATOM      1  C   UNL     1      48.438   5.007  17.145  0.00  0.00    +0.000 C 
ATOM      2  C   UNL     1      47.561   5.121  18.412  0.00  0.00    +0.000 C 
ATOM      3  C   UNL     1      48.945   6.431  16.806  0.00  0.00    +0.000 C 
ENDROOT
BRANCH   1   8
ATOM      4  C   UNL     1      51.944   3.591  18.104  0.00  0.00    +0.000 A 
ATOM      5  C   UNL     1      51.794   2.257  17.728  0.00  0.00    +0.000 A 
ATOM      6  C   UNL     1      50.588   1.808  17.200  0.00  0.00    +0.000 A 
ATOM      7  C   UNL     1      49.530   2.698  17.020  0.00  0.00    +0.000 A 
ATOM      8  C   UNL     1      49.655   4.065  17.339  0.00  0.00    +0.000 A 
ATOM      9  C   UNL     1      50.892   4.492  17.873  0.00  0.00    +0.000 A 
BRANCH   4  10
ATOM     10  O   UNL     1      53.072   4.102  18.712  0.00  0.00    +0.000 OA
BRANCH  10  16
ATOM     11  C   UNL     1      55.056   5.526  20.283  0.00  0.00    +0.000 C 
ATOM     12  C   UNL     1      54.299   6.229  19.162  0.00  0.00    +0.000 C 
ATOM     13  C   UNL     1      55.233   7.013  18.242  0.00  0.00    +0.000 C 
ATOM     14  N   UNL     1      55.654   6.076  17.196  0.00  0.00    +0.000 NA
ATOM     15  C   UNL     1      54.531   5.146  17.002  0.00  0.00    +0.000 C 
ATOM     16  C   UNL     1      53.541   5.340  18.164  0.00  0.00    +0.000 C 
ATOM     17  H   UNL     1      56.455   5.538  17.531  0.00  0.00    +0.000 HD
ENDBRANCH  10  16
ENDBRANCH   4  10
ENDBRANCH   1   8
BRANCH   1  18
ATOM     18  C   UNL     1      47.574   4.444  15.971  0.00  0.00    +0.000 C 
BRANCH  18  19
ATOM     19  N   UNL     1      47.189   5.465  14.982  0.00  0.00    +0.000 N 
ATOM     20  C   UNL     1      46.503   4.914  13.876  0.00  0.00    +0.000 A 
ATOM     21  C   UNL     1      46.097   5.756  12.850  0.00  0.00    +0.000 A 
ATOM     22  C   UNL     1      45.427   5.225  11.747  0.00  0.00    +0.000 A 
ATOM     23  C   UNL     1      45.180   3.859  11.696  0.00  0.00    +0.000 A 
ATOM     24  N   UNL     1      45.566   3.064  12.716  0.00  0.00    +0.000 NA
ATOM     25  N   UNL     1      46.216   3.600  13.804  0.00  0.00    +0.000 NA
ATOM     26  H   UNL     1      47.989   5.986  14.625  0.00  0.00    +0.000 HD
BRANCH  23  27
ATOM     27  C   UNL     1      44.493   3.211  10.520  0.00  0.00    +0.000 C 
ATOM     28  F   UNL     1      43.938   4.114   9.658  0.00  0.00    +0.000 F 
ATOM     29  F   UNL     1      45.338   2.460   9.758  0.00  0.00    +0.000 F 
ATOM     30  F   UNL     1      43.473   2.382  10.879  0.00  0.00    +0.000 F 
ENDBRANCH  23  27
ENDBRANCH  18  19
ENDBRANCH   1  18
TORSDOF 6
ENDMDL
MODEL 9
REMARK VINA RESULT:    -6.495      3.538      5.304
REMARK INTER + INTRA:          -9.880
REMARK INTER:                  -8.668
REMARK INTRA:                  -1.212
REMARK UNBOUND:                -1.107
REMARK  Name = 
REMARK  9 active torsions:
REMARK  status: ('A' for Active; 'I' for Inactive)
REMARK    1  A    between atoms: C_1  and  C_2
REMARK    2  A    between atoms: C_6  and  O_7
REMARK    3  A    between atoms: O_7  and  C_8
REMARK    4  A    between atoms: C_12  and  C_13
REMARK    5  A    between atoms: C_13  and  C_14
REMARK    6  A    between atoms: C_13  and  C_15
REMARK    7  A    between atoms: C_13  and  C_16
REMARK    8  A    between atoms: C_16  and  N_17
REMARK    9  A    between atoms: C_21  and  C_22
REMARK                            x       y       z     vdW  Elec       q    Type
REMARK                         _______ _______ _______ _____ _____    ______ ____
ROOT
ATOM      1  C   UNL     1      49.090   8.539  13.276  0.00  0.00    +0.000 C 
ATOM      2  C   UNL     1      49.302  10.049  13.024  0.00  0.00    +0.000 C 
ATOM      3  C   UNL     1      49.319   7.811  11.927  0.00  0.00    +0.000 C 
ENDROOT
BRANCH   1   8
ATOM      4  C   UNL     1      50.582   6.534  16.270  0.00  0.00    +0.000 A 
ATOM      5  C   UNL     1      51.924   6.902  16.183  0.00  0.00    +0.000 A 
ATOM      6  C   UNL     1      52.352   7.756  15.172  0.00  0.00    +0.000 A 
ATOM      7  C   UNL     1      51.437   8.270  14.256  0.00  0.00    +0.000 A 
ATOM      8  C   UNL     1      50.063   7.964  14.337  0.00  0.00    +0.000 A 
ATOM      9  C   UNL     1      49.657   7.094  15.374  0.00  0.00    +0.000 A 
BRANCH   4  10
ATOM     10  O   UNL     1      50.085   5.628  17.184  0.00  0.00    +0.000 OA
BRANCH  10  16
ATOM     11  C   UNL     1      49.470   2.797  17.382  0.00  0.00    +0.000 C 
ATOM     12  C   UNL     1      48.483   3.766  16.740  0.00  0.00    +0.000 C 
ATOM     13  C   UNL     1      47.063   3.574  17.269  0.00  0.00    +0.000 C 
ATOM     14  N   UNL     1      46.948   4.438  18.448  0.00  0.00    +0.000 NA
ATOM     15  C   UNL     1      47.824   5.592  18.197  0.00  0.00    +0.000 C 
ATOM     16  C   UNL     1      48.714   5.265  16.986  0.00  0.00    +0.000 C 
ATOM     17  H   UNL     1      47.306   3.940  19.264  0.00  0.00    +0.000 HD
ENDBRANCH  10  16
ENDBRANCH   4  10
ENDBRANCH   1   8
BRANCH   1  18
ATOM     18  C   UNL     1      47.630   8.303  13.779  0.00  0.00    +0.000 C 
BRANCH  18  19
ATOM     19  N   UNL     1      46.616   8.412  12.716  0.00  0.00    +0.000 N 
ATOM     20  C   UNL     1      46.000   7.173  12.427  0.00  0.00    +0.000 A 
ATOM     21  C   UNL     1      45.038   7.117  11.429  0.00  0.00    +0.000 A 
ATOM     22  C   UNL     1      44.428   5.899  11.126  0.00  0.00    +0.000 A 
ATOM     23  C   UNL     1      44.798   4.761  11.833  0.00  0.00    +0.000 A 
ATOM     24  N   UNL     1      45.721   4.845  12.814  0.00  0.00    +0.000 NA
ATOM     25  N   UNL     1      46.308   6.054  13.111  0.00  0.00    +0.000 NA
ATOM     26  H   UNL     1      46.999   8.780  11.846  0.00  0.00    +0.000 HD
BRANCH  23  27
ATOM     27  C   UNL     1      44.207   3.405  11.536  0.00  0.00    +0.000 C 
ATOM     28  F   UNL     1      42.924   3.469  11.071  0.00  0.00    +0.000 F 
ATOM     29  F   UNL     1      44.901   2.719  10.583  0.00  0.00    +0.000 F 
ATOM     30  F   UNL     1      44.155   2.588  12.625  0.00  0.00    +0.000 F 
ENDBRANCH  23  27
ENDBRANCH  18  19
ENDBRANCH   1  18
TORSDOF 6
ENDMDL
