MODEL 1
REMARK VINA RESULT:    -6.840      0.000      0.000
REMARK INTER + INTRA:         -10.689
REMARK INTER:                  -9.640
REMARK INTRA:                  -1.050
REMARK UNBOUND:                -1.050
REMARK  Name = 
REMARK  8 active torsions:
REMARK  status: ('A' for Active; 'I' for Inactive)
REMARK    1  A    between atoms: C_2  and  C_16
REMARK    2  A    between atoms: N_3  and  C_4
REMARK    3  A    between atoms: C_4  and  C_5
REMARK    4  A    between atoms: N_8  and  C_9
REMARK    5  A    between atoms: C_9  and  C_10
REMARK    6  A    between atoms: C_10  and  O_11
REMARK    7  A    between atoms: C_13  and  C_14
REMARK    8  A    between atoms: C_14  and  O_15
REMARK                            x       y       z     vdW  Elec       q    Type
REMARK                         _______ _______ _______ _____ _____    ______ ____
ROOT
ATOM      1  O   UNL     1      47.756   2.870  14.909  0.00  0.00    +0.000 OA
ATOM      2  C   UNL     1      47.289   3.970  15.168  0.00  0.00    +0.000 C 
ATOM      3  N   UNL     1      46.391   4.617  14.353  0.00  0.00    +0.000 N 
ATOM      4  H   UNL     1      46.004   5.503  14.653  0.00  0.00    +0.000 HD
ENDROOT
BRANCH   2   5
ATOM      5  C   UNL     1      47.705   4.728  16.352  0.00  0.00    +0.000 A 
ATOM      6  C   UNL     1      47.326   4.304  17.620  0.00  0.00    +0.000 A 
ATOM      7  S   UNL     1      47.955   5.278  18.874  0.00  0.00    +0.000 S 
ATOM      8  C   UNL     1      48.711   6.321  17.760  0.00  0.00    +0.000 A 
ATOM      9  N   UNL     1      49.432   7.394  18.186  0.00  0.00    +0.000 NA
ATOM     10  C   UNL     1      49.909   8.126  17.234  0.00  0.00    +0.000 A 
ATOM     11  N   UNL     1      49.733   7.883  15.897  0.00  0.00    +0.000 N 
ATOM     12  C   UNL     1      49.065   6.779  15.419  0.00  0.00    +0.000 A 
ATOM     13  O   UNL     1      49.025   6.538  14.221  0.00  0.00    +0.000 OA
ATOM     14  C   UNL     1      48.492   5.934  16.452  0.00  0.00    +0.000 A 
ATOM     15  H   UNL     1      50.148   8.484  15.203  0.00  0.00    +0.000 HD
ENDBRANCH   2   5
BRANCH   3  16
ATOM     16  C   UNL     1      45.839   4.036  13.152  0.00  0.00    +0.000 C 
BRANCH  16  17
ATOM     17  C   UNL     1      44.681   4.875  12.583  0.00  0.00    +0.000 C 
ATOM     18  C   UNL     1      43.574   3.993  11.971  0.00  0.00    +0.000 C 
ATOM     19  C   UNL     1      43.963   3.400  10.615  0.00  0.00    +0.000 C 
ATOM     20  N   UNL     1      44.299   4.466   9.662  0.00  0.00    +0.000 NA
ATOM     21  C   UNL     1      45.439   5.259  10.165  0.00  0.00    +0.000 C 
ATOM     22  C   UNL     1      45.136   5.913  11.526  0.00  0.00    +0.000 C 
BRANCH  20  23
ATOM     23  C   UNL     1      44.625   3.931   8.316  0.00  0.00    +0.000 C 
BRANCH  23  24
ATOM     24  C   UNL     1      46.118   3.624   8.105  0.00  0.00    +0.000 C 
BRANCH  24  25
ATOM     25  O   UNL     1      46.626   4.336   6.982  0.00  0.00    +0.000 OA
ATOM     26  H   UNL     1      47.169   5.057   7.356  0.00  0.00    +0.000 HD
ENDBRANCH  24  25
ENDBRANCH  23  24
ENDBRANCH  20  23
BRANCH  22  27
ATOM     27  C   UNL     1      46.332   6.770  11.964  0.00  0.00    +0.000 C 
BRANCH  27  28
ATOM     28  O   UNL     1      46.117   7.348  13.240  0.00  0.00    +0.000 OA
ATOM     29  H   UNL     1      46.511   8.237  13.243  0.00  0.00    +0.000 HD
ENDBRANCH  27  28
ENDBRANCH  22  27
ENDBRANCH  16  17
ENDBRANCH   3  16
TORSDOF 8
ENDMDL
MODEL 2
REMARK VINA RESULT:    -6.723      3.016      8.113
REMARK INTER + INTRA:         -10.525
REMARK INTER:                  -9.689
REMARK INTRA:                  -0.836
REMARK UNBOUND:                -1.050
REMARK  Name = 
REMARK  8 active torsions:
REMARK  status: ('A' for Active; 'I' for Inactive)
REMARK    1  A    between atoms: C_2  and  C_16
REMARK    2  A    between atoms: N_3  and  C_4
REMARK    3  A    between atoms: C_4  and  C_5
REMARK    4  A    between atoms: N_8  and  C_9
REMARK    5  A    between atoms: C_9  and  C_10
REMARK    6  A    between atoms: C_10  and  O_11
REMARK    7  A    between atoms: C_13  and  C_14
REMARK    8  A    between atoms: C_14  and  O_15
REMARK                            x       y       z     vdW  Elec       q    Type
REMARK                         _______ _______ _______ _____ _____    ______ ____
ROOT
ATOM      1  O   UNL     1      48.556   6.140  13.007  0.00  0.00    +0.000 OA
ATOM      2  C   UNL     1      47.482   5.924  13.550  0.00  0.00    +0.000 C 
ATOM      3  N   UNL     1      47.363   5.592  14.879  0.00  0.00    +0.000 N 
ATOM      4  H   UNL     1      46.439   5.478  15.276  0.00  0.00    +0.000 HD
ENDROOT
BRANCH   2   5
ATOM      5  C   UNL     1      46.220   5.937  12.802  0.00  0.00    +0.000 A 
ATOM      6  C   UNL     1      45.695   7.138  12.341  0.00  0.00    +0.000 A 
ATOM      7  S   UNL     1      44.257   6.946  11.442  0.00  0.00    +0.000 S 
ATOM      8  C   UNL     1      44.266   5.261  11.682  0.00  0.00    +0.000 A 
ATOM      9  N   UNL     1      43.283   4.475  11.163  0.00  0.00    +0.000 NA
ATOM     10  C   UNL     1      43.388   3.223  11.464  0.00  0.00    +0.000 A 
ATOM     11  N   UNL     1      44.386   2.685  12.234  0.00  0.00    +0.000 N 
ATOM     12  C   UNL     1      45.432   3.427  12.729  0.00  0.00    +0.000 A 
ATOM     13  O   UNL     1      46.361   2.892  13.317  0.00  0.00    +0.000 OA
ATOM     14  C   UNL     1      45.349   4.847  12.434  0.00  0.00    +0.000 A 
ATOM     15  H   UNL     1      44.420   1.694  12.416  0.00  0.00    +0.000 HD
ENDBRANCH   2   5
BRANCH   3  16
ATOM     16  C   UNL     1      48.479   5.545  15.793  0.00  0.00    +0.000 C 
BRANCH  16  17
ATOM     17  C   UNL     1      48.073   4.997  17.173  0.00  0.00    +0.000 C 
ATOM     18  C   UNL     1      48.512   5.930  18.319  0.00  0.00    +0.000 C 
ATOM     19  C   UNL     1      50.014   5.860  18.605  0.00  0.00    +0.000 C 
ATOM     20  N   UNL     1      50.414   4.486  18.935  0.00  0.00    +0.000 NA
ATOM     21  C   UNL     1      50.115   3.583  17.805  0.00  0.00    +0.000 C 
ATOM     22  C   UNL     1      48.616   3.572  17.452  0.00  0.00    +0.000 C 
BRANCH  20  23
ATOM     23  C   UNL     1      51.856   4.390  19.276  0.00  0.00    +0.000 C 
BRANCH  23  24
ATOM     24  C   UNL     1      52.636   3.368  18.433  0.00  0.00    +0.000 C 
BRANCH  24  25
ATOM     25  O   UNL     1      53.190   2.349  19.259  0.00  0.00    +0.000 OA
ATOM     26  H   UNL     1      53.498   1.655  18.643  0.00  0.00    +0.000 HD
ENDBRANCH  24  25
ENDBRANCH  23  24
ENDBRANCH  20  23
BRANCH  22  27
ATOM     27  C   UNL     1      48.362   2.571  16.315  0.00  0.00    +0.000 C 
BRANCH  27  28
ATOM     28  O   UNL     1      49.522   1.812  16.023  0.00  0.00    +0.000 OA
ATOM     29  H   UNL     1      49.460   1.502  15.104  0.00  0.00    +0.000 HD
ENDBRANCH  27  28
ENDBRANCH  22  27
ENDBRANCH  16  17
ENDBRANCH   3  16
TORSDOF 8
ENDMDL
MODEL 3
REMARK VINA RESULT:    -6.209      1.818      2.740
REMARK INTER + INTRA:          -9.800
REMARK INTER:                  -9.038
REMARK INTRA:                  -0.762
REMARK UNBOUND:                -1.050
REMARK  Name = 
REMARK  8 active torsions:
REMARK  status: ('A' for Active; 'I' for Inactive)
REMARK    1  A    between atoms: C_2  and  C_16
REMARK    2  A    between atoms: N_3  and  C_4
REMARK    3  A    between atoms: C_4  and  C_5
REMARK    4  A    between atoms: N_8  and  C_9
REMARK    5  A    between atoms: C_9  and  C_10
REMARK    6  A    between atoms: C_10  and  O_11
REMARK    7  A    between atoms: C_13  and  C_14
REMARK    8  A    between atoms: C_14  and  O_15
REMARK                            x       y       z     vdW  Elec       q    Type
REMARK                         _______ _______ _______ _____ _____    ______ ____
ROOT
ATOM      1  O   UNL     1      49.045   6.775  13.699  0.00  0.00    +0.000 OA
ATOM      2  C   UNL     1      48.281   6.255  14.499  0.00  0.00    +0.000 C 
ATOM      3  N   UNL     1      47.030   5.798  14.159  0.00  0.00    +0.000 N 
ATOM      4  H   UNL     1      46.470   5.331  14.860  0.00  0.00    +0.000 HD
ENDROOT
BRANCH   2   5
ATOM      5  C   UNL     1      48.615   6.137  15.923  0.00  0.00    +0.000 A 
ATOM      6  C   UNL     1      49.162   7.218  16.603  0.00  0.00    +0.000 A 
ATOM      7  S   UNL     1      49.427   6.909  18.261  0.00  0.00    +0.000 S 
ATOM      8  C   UNL     1      48.865   5.309  18.110  0.00  0.00    +0.000 A 
ATOM      9  N   UNL     1      48.832   4.475  19.185  0.00  0.00    +0.000 NA
ATOM     10  C   UNL     1      48.429   3.277  18.917  0.00  0.00    +0.000 A 
ATOM     11  N   UNL     1      48.056   2.837  17.674  0.00  0.00    +0.000 N 
ATOM     12  C   UNL     1      48.015   3.658  16.571  0.00  0.00    +0.000 A 
ATOM     13  O   UNL     1      47.570   3.256  15.505  0.00  0.00    +0.000 OA
ATOM     14  C   UNL     1      48.478   5.012  16.817  0.00  0.00    +0.000 A 
ATOM     15  H   UNL     1      47.733   1.892  17.536  0.00  0.00    +0.000 HD
ENDBRANCH   2   5
BRANCH   3  16
ATOM     16  C   UNL     1      46.518   5.803  12.809  0.00  0.00    +0.000 C 
BRANCH  16  17
ATOM     17  C   UNL     1      45.021   5.450  12.758  0.00  0.00    +0.000 C 
ATOM     18  C   UNL     1      44.786   3.926  12.742  0.00  0.00    +0.000 C 
ATOM     19  C   UNL     1      45.101   3.286  11.388  0.00  0.00    +0.000 C 
ATOM     20  N   UNL     1      44.294   3.900  10.325  0.00  0.00    +0.000 NA
ATOM     21  C   UNL     1      44.585   5.345  10.234  0.00  0.00    +0.000 C 
ATOM     22  C   UNL     1      44.281   6.083  11.551  0.00  0.00    +0.000 C 
BRANCH  20  23
ATOM     23  C   UNL     1      44.531   3.264   9.005  0.00  0.00    +0.000 C 
BRANCH  23  24
ATOM     24  C   UNL     1      45.280   1.923   9.077  0.00  0.00    +0.000 C 
BRANCH  24  25
ATOM     25  O   UNL     1      46.254   1.832   8.042  0.00  0.00    +0.000 OA
ATOM     26  H   UNL     1      46.878   1.138   8.334  0.00  0.00    +0.000 HD
ENDBRANCH  24  25
ENDBRANCH  23  24
ENDBRANCH  20  23
BRANCH  22  27
ATOM     27  C   UNL     1      44.545   7.585  11.374  0.00  0.00    +0.000 C 
BRANCH  27  28
ATOM     28  O   UNL     1      43.369   8.277  10.990  0.00  0.00    +0.000 OA
ATOM     29  H   UNL     1      42.830   7.682  10.442  0.00  0.00    +0.000 HD
ENDBRANCH  27  28
ENDBRANCH  22  27
ENDBRANCH  16  17
ENDBRANCH   3  16
TORSDOF 8
ENDMDL
MODEL 4
REMARK VINA RESULT:    -6.084      3.120      4.523
REMARK INTER + INTRA:          -9.624
REMARK INTER:                  -8.955
REMARK INTRA:                  -0.669
REMARK UNBOUND:                -1.050
REMARK  Name = 
REMARK  8 active torsions:
REMARK  status: ('A' for Active; 'I' for Inactive)
REMARK    1  A    between atoms: C_2  and  C_16
REMARK    2  A    between atoms: N_3  and  C_4
REMARK    3  A    between atoms: C_4  and  C_5
REMARK    4  A    between atoms: N_8  and  C_9
REMARK    5  A    between atoms: C_9  and  C_10
REMARK    6  A    between atoms: C_10  and  O_11
REMARK    7  A    between atoms: C_13  and  C_14
REMARK    8  A    between atoms: C_14  and  O_15
REMARK                            x       y       z     vdW  Elec       q    Type
REMARK                         _______ _______ _______ _____ _____    ______ ____
ROOT
ATOM      1  O   UNL     1      46.736   3.336  17.066  0.00  0.00    +0.000 OA
ATOM      2  C   UNL     1      47.593   4.104  16.651  0.00  0.00    +0.000 C 
ATOM      3  N   UNL     1      47.446   4.846  15.503  0.00  0.00    +0.000 N 
ATOM      4  H   UNL     1      48.173   5.502  15.245  0.00  0.00    +0.000 HD
ENDROOT
BRANCH   2   5
ATOM      5  C   UNL     1      48.891   4.249  17.318  0.00  0.00    +0.000 A 
ATOM      6  C   UNL     1      49.192   5.413  18.014  0.00  0.00    +0.000 A 
ATOM      7  S   UNL     1      50.721   5.371  18.772  0.00  0.00    +0.000 S 
ATOM      8  C   UNL     1      51.047   3.818  18.154  0.00  0.00    +0.000 A 
ATOM      9  N   UNL     1      52.221   3.188  18.430  0.00  0.00    +0.000 NA
ATOM     10  C   UNL     1      52.355   2.038  17.857  0.00  0.00    +0.000 A 
ATOM     11  N   UNL     1      51.423   1.459  17.037  0.00  0.00    +0.000 N 
ATOM     12  C   UNL     1      50.198   2.029  16.778  0.00  0.00    +0.000 A 
ATOM     13  O   UNL     1      49.350   1.431  16.131  0.00  0.00    +0.000 OA
ATOM     14  C   UNL     1      50.006   3.335  17.384  0.00  0.00    +0.000 A 
ATOM     15  H   UNL     1      51.581   0.548  16.635  0.00  0.00    +0.000 HD
ENDBRANCH   2   5
BRANCH   3  16
ATOM     16  C   UNL     1      46.239   4.864  14.712  0.00  0.00    +0.000 C 
BRANCH  16  17
ATOM     17  C   UNL     1      46.537   4.948  13.205  0.00  0.00    +0.000 C 
ATOM     18  C   UNL     1      47.812   5.764  12.911  0.00  0.00    +0.000 C 
ATOM     19  C   UNL     1      47.608   7.272  13.072  0.00  0.00    +0.000 C 
ATOM     20  N   UNL     1      46.532   7.745  12.192  0.00  0.00    +0.000 NA
ATOM     21  C   UNL     1      45.263   7.067  12.528  0.00  0.00    +0.000 C 
ATOM     22  C   UNL     1      45.365   5.537  12.378  0.00  0.00    +0.000 C 
BRANCH  20  23
ATOM     23  C   UNL     1      46.344   9.215  12.278  0.00  0.00    +0.000 C 
BRANCH  23  24
ATOM     24  C   UNL     1      44.872   9.659  12.344  0.00  0.00    +0.000 C 
BRANCH  24  25
ATOM     25  O   UNL     1      44.759  11.062  12.133  0.00  0.00    +0.000 OA
ATOM     26  H   UNL     1      43.803  11.257  12.196  0.00  0.00    +0.000 HD
ENDBRANCH  24  25
ENDBRANCH  23  24
ENDBRANCH  20  23
BRANCH  22  27
ATOM     27  C   UNL     1      44.002   4.897  12.681  0.00  0.00    +0.000 C 
BRANCH  27  28
ATOM     28  O   UNL     1      43.120   5.821  13.293  0.00  0.00    +0.000 OA
ATOM     29  H   UNL     1      42.258   5.761  12.848  0.00  0.00    +0.000 HD
ENDBRANCH  27  28
ENDBRANCH  22  27
ENDBRANCH  16  17
ENDBRANCH   3  16
TORSDOF 8
ENDMDL
MODEL 5
REMARK VINA RESULT:    -5.983      3.003      8.200
REMARK INTER + INTRA:          -9.481
REMARK INTER:                  -8.641
REMARK INTRA:                  -0.840
REMARK UNBOUND:                -1.050
REMARK  Name = 
REMARK  8 active torsions:
REMARK  status: ('A' for Active; 'I' for Inactive)
REMARK    1  A    between atoms: C_2  and  C_16
REMARK    2  A    between atoms: N_3  and  C_4
REMARK    3  A    between atoms: C_4  and  C_5
REMARK    4  A    between atoms: N_8  and  C_9
REMARK    5  A    between atoms: C_9  and  C_10
REMARK    6  A    between atoms: C_10  and  O_11
REMARK    7  A    between atoms: C_13  and  C_14
REMARK    8  A    between atoms: C_14  and  O_15
REMARK                            x       y       z     vdW  Elec       q    Type
REMARK                         _______ _______ _______ _____ _____    ______ ____
ROOT
ATOM      1  O   UNL     1      48.876   6.337  13.269  0.00  0.00    +0.000 OA
ATOM      2  C   UNL     1      47.777   6.130  13.764  0.00  0.00    +0.000 C 
ATOM      3  N   UNL     1      47.588   5.882  15.103  0.00  0.00    +0.000 N 
ATOM      4  H   UNL     1      46.646   5.771  15.454  0.00  0.00    +0.000 HD
ENDROOT
BRANCH   2   5
ATOM      5  C   UNL     1      46.561   6.062  12.946  0.00  0.00    +0.000 A 
ATOM      6  C   UNL     1      46.016   7.222  12.409  0.00  0.00    +0.000 A 
ATOM      7  S   UNL     1      44.641   6.936  11.439  0.00  0.00    +0.000 S 
ATOM      8  C   UNL     1      44.702   5.263  11.747  0.00  0.00    +0.000 A 
ATOM      9  N   UNL     1      43.783   4.418  11.207  0.00  0.00    +0.000 NA
ATOM     10  C   UNL     1      43.919   3.183  11.563  0.00  0.00    +0.000 A 
ATOM     11  N   UNL     1      44.892   2.717  12.408  0.00  0.00    +0.000 N 
ATOM     12  C   UNL     1      45.878   3.520  12.930  0.00  0.00    +0.000 A 
ATOM     13  O   UNL     1      46.792   3.047  13.590  0.00  0.00    +0.000 OA
ATOM     14  C   UNL     1      45.756   4.923  12.574  0.00  0.00    +0.000 A 
ATOM     15  H   UNL     1      44.955   1.736  12.632  0.00  0.00    +0.000 HD
ENDBRANCH   2   5
BRANCH   3  16
ATOM     16  C   UNL     1      48.650   5.923  16.080  0.00  0.00    +0.000 C 
BRANCH  16  17
ATOM     17  C   UNL     1      48.594   4.726  17.045  0.00  0.00    +0.000 C 
ATOM     18  C   UNL     1      47.258   4.663  17.811  0.00  0.00    +0.000 C 
ATOM     19  C   UNL     1      47.155   5.710  18.922  0.00  0.00    +0.000 C 
ATOM     20  N   UNL     1      48.257   5.557  19.881  0.00  0.00    +0.000 NA
ATOM     21  C   UNL     1      49.555   5.733  19.198  0.00  0.00    +0.000 C 
ATOM     22  C   UNL     1      49.759   4.706  18.067  0.00  0.00    +0.000 C 
BRANCH  20  23
ATOM     23  C   UNL     1      48.157   6.521  21.006  0.00  0.00    +0.000 C 
BRANCH  23  24
ATOM     24  C   UNL     1      48.466   7.977  20.618  0.00  0.00    +0.000 C 
BRANCH  24  25
ATOM     25  O   UNL     1      47.294   8.781  20.701  0.00  0.00    +0.000 OA
ATOM     26  H   UNL     1      46.618   8.211  21.118  0.00  0.00    +0.000 HD
ENDBRANCH  24  25
ENDBRANCH  23  24
ENDBRANCH  20  23
BRANCH  22  27
ATOM     27  C   UNL     1      51.147   4.900  17.440  0.00  0.00    +0.000 C 
BRANCH  27  28
ATOM     28  O   UNL     1      52.018   3.830  17.766  0.00  0.00    +0.000 OA
ATOM     29  H   UNL     1      51.827   3.088  17.168  0.00  0.00    +0.000 HD
ENDBRANCH  27  28
ENDBRANCH  22  27
ENDBRANCH  16  17
ENDBRANCH   3  16
TORSDOF 8
ENDMDL
MODEL 6
REMARK VINA RESULT:    -5.842      2.843      8.441
REMARK INTER + INTRA:          -9.283
REMARK INTER:                  -8.429
REMARK INTRA:                  -0.853
REMARK UNBOUND:                -1.050
REMARK  Name = 
REMARK  8 active torsions:
REMARK  status: ('A' for Active; 'I' for Inactive)
REMARK    1  A    between atoms: C_2  and  C_16
REMARK    2  A    between atoms: N_3  and  C_4
REMARK    3  A    between atoms: C_4  and  C_5
REMARK    4  A    between atoms: N_8  and  C_9
REMARK    5  A    between atoms: C_9  and  C_10
REMARK    6  A    between atoms: C_10  and  O_11
REMARK    7  A    between atoms: C_13  and  C_14
REMARK    8  A    between atoms: C_14  and  O_15
REMARK                            x       y       z     vdW  Elec       q    Type
REMARK                         _______ _______ _______ _____ _____    ______ ____
ROOT
ATOM      1  O   UNL     1      49.250   6.719  13.966  0.00  0.00    +0.000 OA
ATOM      2  C   UNL     1      48.142   6.327  14.305  0.00  0.00    +0.000 C 
ATOM      3  N   UNL     1      47.858   5.879  15.574  0.00  0.00    +0.000 N 
ATOM      4  H   UNL     1      46.907   5.618  15.801  0.00  0.00    +0.000 HD
ENDROOT
BRANCH   2   5
ATOM      5  C   UNL     1      47.028   6.239  13.355  0.00  0.00    +0.000 A 
ATOM      6  C   UNL     1      46.520   7.391  12.768  0.00  0.00    +0.000 A 
ATOM      7  S   UNL     1      45.270   7.083  11.647  0.00  0.00    +0.000 S 
ATOM      8  C   UNL     1      45.337   5.408  11.948  0.00  0.00    +0.000 A 
ATOM      9  N   UNL     1      44.505   4.548  11.301  0.00  0.00    +0.000 NA
ATOM     10  C   UNL     1      44.631   3.313  11.661  0.00  0.00    +0.000 A 
ATOM     11  N   UNL     1      45.513   2.861  12.607  0.00  0.00    +0.000 N 
ATOM     12  C   UNL     1      46.414   3.682  13.243  0.00  0.00    +0.000 A 
ATOM     13  O   UNL     1      47.259   3.223  13.998  0.00  0.00    +0.000 OA
ATOM     14  C   UNL     1      46.299   5.085  12.886  0.00  0.00    +0.000 A 
ATOM     15  H   UNL     1      45.574   1.879  12.829  0.00  0.00    +0.000 HD
ENDBRANCH   2   5
BRANCH   3  16
ATOM     16  C   UNL     1      48.808   5.902  16.660  0.00  0.00    +0.000 C 
BRANCH  16  17
ATOM     17  C   UNL     1      48.122   6.100  18.023  0.00  0.00    +0.000 C 
ATOM     18  C   UNL     1      48.182   7.567  18.493  0.00  0.00    +0.000 C 
ATOM     19  C   UNL     1      49.566   7.977  19.001  0.00  0.00    +0.000 C 
ATOM     20  N   UNL     1      49.989   7.109  20.108  0.00  0.00    +0.000 NA
ATOM     21  C   UNL     1      50.058   5.704  19.656  0.00  0.00    +0.000 C 
ATOM     22  C   UNL     1      48.700   5.193  19.139  0.00  0.00    +0.000 C 
BRANCH  20  23
ATOM     23  C   UNL     1      51.304   7.513  20.665  0.00  0.00    +0.000 C 
BRANCH  23  24
ATOM     24  C   UNL     1      52.190   8.300  19.683  0.00  0.00    +0.000 C 
BRANCH  24  25
ATOM     25  O   UNL     1      53.130   7.439  19.050  0.00  0.00    +0.000 OA
ATOM     26  H   UNL     1      53.890   8.009  18.821  0.00  0.00    +0.000 HD
ENDBRANCH  24  25
ENDBRANCH  23  24
ENDBRANCH  20  23
BRANCH  22  27
ATOM     27  C   UNL     1      48.822   3.714  18.744  0.00  0.00    +0.000 C 
BRANCH  27  28
ATOM     28  O   UNL     1      48.313   2.863  19.756  0.00  0.00    +0.000 OA
ATOM     29  H   UNL     1      48.653   3.169  20.613  0.00  0.00    +0.000 HD
ENDBRANCH  27  28
ENDBRANCH  22  27
ENDBRANCH  16  17
ENDBRANCH   3  16
TORSDOF 8
ENDMDL
MODEL 7
REMARK VINA RESULT:    -5.759      2.860      7.334
REMARK INTER + INTRA:          -9.166
REMARK INTER:                  -8.754
REMARK INTRA:                  -0.412
REMARK UNBOUND:                -1.050
REMARK  Name = 
REMARK  8 active torsions:
REMARK  status: ('A' for Active; 'I' for Inactive)
REMARK    1  A    between atoms: C_2  and  C_16
REMARK    2  A    between atoms: N_3  and  C_4
REMARK    3  A    between atoms: C_4  and  C_5
REMARK    4  A    between atoms: N_8  and  C_9
REMARK    5  A    between atoms: C_9  and  C_10
REMARK    6  A    between atoms: C_10  and  O_11
REMARK    7  A    between atoms: C_13  and  C_14
REMARK    8  A    between atoms: C_14  and  O_15
REMARK                            x       y       z     vdW  Elec       q    Type
REMARK                         _______ _______ _______ _____ _____    ______ ____
ROOT
ATOM      1  O   UNL     1      47.505   3.224  13.390  0.00  0.00    +0.000 OA
ATOM      2  C   UNL     1      46.977   4.090  14.073  0.00  0.00    +0.000 C 
ATOM      3  N   UNL     1      47.032   4.104  15.447  0.00  0.00    +0.000 N 
ATOM      4  H   UNL     1      46.616   4.879  15.947  0.00  0.00    +0.000 HD
ENDROOT
BRANCH   2   5
ATOM      5  C   UNL     1      46.173   5.163  13.477  0.00  0.00    +0.000 A 
ATOM      6  C   UNL     1      46.641   6.471  13.483  0.00  0.00    +0.000 A 
ATOM      7  S   UNL     1      45.598   7.566  12.692  0.00  0.00    +0.000 S 
ATOM      8  C   UNL     1      44.468   6.336  12.360  0.00  0.00    +0.000 A 
ATOM      9  N   UNL     1      43.314   6.608  11.692  0.00  0.00    +0.000 NA
ATOM     10  C   UNL     1      42.528   5.593  11.552  0.00  0.00    +0.000 A 
ATOM     11  N   UNL     1      42.790   4.331  12.017  0.00  0.00    +0.000 N 
ATOM     12  C   UNL     1      43.968   3.994  12.642  0.00  0.00    +0.000 A 
ATOM     13  O   UNL     1      44.211   2.833  12.942  0.00  0.00    +0.000 OA
ATOM     14  C   UNL     1      44.879   5.107  12.841  0.00  0.00    +0.000 A 
ATOM     15  H   UNL     1      42.141   3.576  11.857  0.00  0.00    +0.000 HD
ENDBRANCH   2   5
BRANCH   3  16
ATOM     16  C   UNL     1      47.786   3.151  16.225  0.00  0.00    +0.000 C 
BRANCH  16  17
ATOM     17  C   UNL     1      48.072   3.664  17.647  0.00  0.00    +0.000 C 
ATOM     18  C   UNL     1      47.449   5.051  17.898  0.00  0.00    +0.000 C 
ATOM     19  C   UNL     1      48.215   6.184  17.212  0.00  0.00    +0.000 C 
ATOM     20  N   UNL     1      49.615   6.207  17.659  0.00  0.00    +0.000 NA
ATOM     21  C   UNL     1      50.277   4.930  17.324  0.00  0.00    +0.000 C 
ATOM     22  C   UNL     1      49.584   3.725  17.987  0.00  0.00    +0.000 C 
BRANCH  20  23
ATOM     23  C   UNL     1      50.375   7.331  17.057  0.00  0.00    +0.000 C 
BRANCH  23  24
ATOM     24  C   UNL     1      51.200   6.942  15.818  0.00  0.00    +0.000 C 
BRANCH  24  25
ATOM     25  O   UNL     1      50.402   7.003  14.641  0.00  0.00    +0.000 OA
ATOM     26  H   UNL     1      51.037   7.006  13.897  0.00  0.00    +0.000 HD
ENDBRANCH  24  25
ENDBRANCH  23  24
ENDBRANCH  20  23
BRANCH  22  27
ATOM     27  C   UNL     1      50.353   2.439  17.652  0.00  0.00    +0.000 C 
BRANCH  27  28
ATOM     28  O   UNL     1      51.645   2.441  18.234  0.00  0.00    +0.000 OA
ATOM     29  H   UNL     1      52.148   1.697  17.863  0.00  0.00    +0.000 HD
ENDBRANCH  27  28
ENDBRANCH  22  27
ENDBRANCH  16  17
ENDBRANCH   3  16
TORSDOF 8
ENDMDL
MODEL 8
REMARK VINA RESULT:    -5.492      1.974      3.693
REMARK INTER + INTRA:          -8.789
REMARK INTER:                  -8.156
REMARK INTRA:                  -0.633
REMARK UNBOUND:                -1.050
REMARK  Name = 
REMARK  8 active torsions:
REMARK  status: ('A' for Active; 'I' for Inactive)
REMARK    1  A    between atoms: C_2  and  C_16
REMARK    2  A    between atoms: N_3  and  C_4
REMARK    3  A    between atoms: C_4  and  C_5
REMARK    4  A    between atoms: N_8  and  C_9
REMARK    5  A    between atoms: C_9  and  C_10
REMARK    6  A    between atoms: C_10  and  O_11
REMARK    7  A    between atoms: C_13  and  C_14
REMARK    8  A    between atoms: C_14  and  O_15
REMARK                            x       y       z     vdW  Elec       q    Type
REMARK                         _______ _______ _______ _____ _____    ______ ____
ROOT
ATOM      1  O   UNL     1      49.688   7.013  13.217  0.00  0.00    +0.000 OA
ATOM      2  C   UNL     1      48.665   6.642  13.775  0.00  0.00    +0.000 C 
ATOM      3  N   UNL     1      47.475   6.448  13.114  0.00  0.00    +0.000 N 
ATOM      4  H   UNL     1      46.681   6.089  13.627  0.00  0.00    +0.000 HD
ENDROOT
BRANCH   2   5
ATOM      5  C   UNL     1      48.606   6.435  15.226  0.00  0.00    +0.000 A 
ATOM      6  C   UNL     1      49.117   7.397  16.088  0.00  0.00    +0.000 A 
ATOM      7  S   UNL     1      48.904   7.007  17.737  0.00  0.00    +0.000 S 
ATOM      8  C   UNL     1      48.168   5.522  17.348  0.00  0.00    +0.000 A 
ATOM      9  N   UNL     1      47.740   4.676  18.325  0.00  0.00    +0.000 NA
ATOM     10  C   UNL     1      47.246   3.565  17.889  0.00  0.00    +0.000 A 
ATOM     11  N   UNL     1      47.140   3.223  16.567  0.00  0.00    +0.000 N 
ATOM     12  C   UNL     1      47.501   4.067  15.543  0.00  0.00    +0.000 A 
ATOM     13  O   UNL     1      47.288   3.770  14.377  0.00  0.00    +0.000 OA
ATOM     14  C   UNL     1      48.082   5.324  15.983  0.00  0.00    +0.000 A 
ATOM     15  H   UNL     1      46.726   2.345  16.292  0.00  0.00    +0.000 HD
ENDBRANCH   2   5
BRANCH   3  16
ATOM     16  C   UNL     1      47.326   6.578  11.684  0.00  0.00    +0.000 C 
BRANCH  16  17
ATOM     17  C   UNL     1      45.898   6.993  11.288  0.00  0.00    +0.000 C 
ATOM     18  C   UNL     1      45.001   7.228  12.520  0.00  0.00    +0.000 C 
ATOM     19  C   UNL     1      44.559   5.928  13.195  0.00  0.00    +0.000 C 
ATOM     20  N   UNL     1      43.840   5.069  12.245  0.00  0.00    +0.000 NA
ATOM     21  C   UNL     1      44.716   4.725  11.106  0.00  0.00    +0.000 C 
ATOM     22  C   UNL     1      45.201   5.976  10.348  0.00  0.00    +0.000 C 
BRANCH  20  23
ATOM     23  C   UNL     1      43.346   3.823  12.881  0.00  0.00    +0.000 C 
BRANCH  23  24
ATOM     24  C   UNL     1      43.920   2.533  12.271  0.00  0.00    +0.000 C 
BRANCH  24  25
ATOM     25  O   UNL     1      42.895   1.772  11.640  0.00  0.00    +0.000 OA
ATOM     26  H   UNL     1      42.217   1.629  12.330  0.00  0.00    +0.000 HD
ENDBRANCH  24  25
ENDBRANCH  23  24
ENDBRANCH  20  23
BRANCH  22  27
ATOM     27  C   UNL     1      46.053   5.551   9.144  0.00  0.00    +0.000 C 
BRANCH  27  28
ATOM     28  O   UNL     1      45.316   4.737   8.248  0.00  0.00    +0.000 OA
ATOM     29  H   UNL     1      45.945   4.219   7.719  0.00  0.00    +0.000 HD
ENDBRANCH  27  28
ENDBRANCH  22  27
ENDBRANCH  16  17
ENDBRANCH   3  16
TORSDOF 8
ENDMDL
MODEL 9
REMARK VINA RESULT:    -5.239      2.258      2.952
REMARK INTER + INTRA:          -8.433
REMARK INTER:                  -8.007
REMARK INTRA:                  -0.426
REMARK UNBOUND:                -1.050
REMARK  Name = 
REMARK  8 active torsions:
REMARK  status: ('A' for Active; 'I' for Inactive)
REMARK    1  A    between atoms: C_2  and  C_16
REMARK    2  A    between atoms: N_3  and  C_4
REMARK    3  A    between atoms: C_4  and  C_5
REMARK    4  A    between atoms: N_8  and  C_9
REMARK    5  A    between atoms: C_9  and  C_10
REMARK    6  A    between atoms: C_10  and  O_11
REMARK    7  A    between atoms: C_13  and  C_14
REMARK    8  A    between atoms: C_14  and  O_15
REMARK                            x       y       z     vdW  Elec       q    Type
REMARK                         _______ _______ _______ _____ _____    ______ ____
ROOT
ATOM      1  O   UNL     1      48.269   4.633  15.495  0.00  0.00    +0.000 OA
ATOM      2  C   UNL     1      48.242   5.853  15.582  0.00  0.00    +0.000 C 
ATOM      3  N   UNL     1      47.831   6.673  14.558  0.00  0.00    +0.000 N 
ATOM      4  H   UNL     1      47.785   7.671  14.716  0.00  0.00    +0.000 HD
ENDROOT
BRANCH   2   5
ATOM      5  C   UNL     1      48.718   6.553  16.781  0.00  0.00    +0.000 A 
ATOM      6  C   UNL     1      49.741   7.488  16.683  0.00  0.00    +0.000 A 
ATOM      7  S   UNL     1      50.115   8.239  18.169  0.00  0.00    +0.000 S 
ATOM      8  C   UNL     1      48.956   7.304  18.996  0.00  0.00    +0.000 A 
ATOM      9  N   UNL     1      48.765   7.453  20.335  0.00  0.00    +0.000 NA
ATOM     10  C   UNL     1      47.891   6.647  20.841  0.00  0.00    +0.000 A 
ATOM     11  N   UNL     1      47.190   5.708  20.130  0.00  0.00    +0.000 N 
ATOM     12  C   UNL     1      47.304   5.562  18.768  0.00  0.00    +0.000 A 
ATOM     13  O   UNL     1      46.581   4.790  18.155  0.00  0.00    +0.000 OA
ATOM     14  C   UNL     1      48.291   6.434  18.154  0.00  0.00    +0.000 A 
ATOM     15  H   UNL     1      46.506   5.121  20.583  0.00  0.00    +0.000 HD
ENDBRANCH   2   5
BRANCH   3  16
ATOM     16  C   UNL     1      47.308   6.184  13.305  0.00  0.00    +0.000 C 
BRANCH  16  17
ATOM     17  C   UNL     1      45.794   5.918  13.376  0.00  0.00    +0.000 C 
ATOM     18  C   UNL     1      45.467   4.412  13.313  0.00  0.00    +0.000 C 
ATOM     19  C   UNL     1      45.621   3.825  11.908  0.00  0.00    +0.000 C 
ATOM     20  N   UNL     1      44.761   4.535  10.953  0.00  0.00    +0.000 NA
ATOM     21  C   UNL     1      45.130   5.964  10.900  0.00  0.00    +0.000 C 
ATOM     22  C   UNL     1      44.990   6.651  12.272  0.00  0.00    +0.000 C 
BRANCH  20  23
ATOM     23  C   UNL     1      44.841   3.954   9.589  0.00  0.00    +0.000 C 
BRANCH  23  24
ATOM     24  C   UNL     1      44.751   2.418   9.552  0.00  0.00    +0.000 C 
BRANCH  24  25
ATOM     25  O   UNL     1      43.709   1.953  10.402  0.00  0.00    +0.000 OA
ATOM     26  H   UNL     1      44.038   1.113  10.780  0.00  0.00    +0.000 HD
ENDBRANCH  24  25
ENDBRANCH  23  24
ENDBRANCH  20  23
BRANCH  22  27
ATOM     27  C   UNL     1      45.326   8.143  12.138  0.00  0.00    +0.000 C 
BRANCH  27  28
ATOM     28  O   UNL     1      44.205   8.891  11.701  0.00  0.00    +0.000 OA
ATOM     29  H   UNL     1      44.238   8.954  10.732  0.00  0.00    +0.000 HD
ENDBRANCH  27  28
ENDBRANCH  22  27
ENDBRANCH  16  17
ENDBRANCH   3  16
TORSDOF 8
ENDMDL
