MODEL 1
REMARK VINA RESULT:    -8.797      0.000      0.000
REMARK INTER + INTRA:         -12.080
REMARK INTER:                 -11.369
REMARK INTRA:                  -0.711
REMARK UNBOUND:                -0.711
REMARK  Name = 
REMARK  5 active torsions:
REMARK  status: ('A' for Active; 'I' for Inactive)
REMARK    1  A    between atoms: C_2  and  C_4
REMARK    2  A    between atoms: C_7  and  O_8
REMARK    3  A    between atoms: O_8  and  C_9
REMARK    4  A    between atoms: C_9  and  C_10
REMARK    5  A    between atoms: C_14  and  C_15
REMARK                            x       y       z     vdW  Elec       q    Type
REMARK                         _______ _______ _______ _____ _____    ______ ____
ROOT
ATOM      1  C   UNL     1      43.680   3.483  11.596  0.00  0.00    +0.000 C 
ENDROOT
BRANCH   1   2
ATOM      2  C   UNL     1      44.867   4.097  12.306  0.00  0.00    +0.000 A 
ATOM      3  N   UNL     1      45.665   3.282  13.025  0.00  0.00    +0.000 NA
ATOM      4  C   UNL     1      46.740   3.848  13.595  0.00  0.00    +0.000 A 
ATOM      5  C   UNL     1      47.054   5.180  13.470  0.00  0.00    +0.000 A 
ATOM      6  C   UNL     1      46.191   5.950  12.711  0.00  0.00    +0.000 A 
ATOM      7  N   UNL     1      45.093   5.416  12.132  0.00  0.00    +0.000 NA
BRANCH   6   8
ATOM      8  C   UNL     1      46.392   7.399  12.494  0.00  0.00    +0.000 A 
ATOM      9  C   UNL     1      45.317   8.311  12.475  0.00  0.00    +0.000 A 
ATOM     10  C   UNL     1      45.525   9.675  12.247  0.00  0.00    +0.000 A 
ATOM     11  C   UNL     1      46.814  10.146  12.039  0.00  0.00    +0.000 A 
ATOM     12  F   UNL     1      47.012  11.450  11.813  0.00  0.00    +0.000 F 
ATOM     13  C   UNL     1      47.899   9.283  12.066  0.00  0.00    +0.000 A 
ATOM     14  C   UNL     1      47.688   7.920  12.295  0.00  0.00    +0.000 A 
ENDBRANCH   6   8
ENDBRANCH   1   2
BRANCH   1  15
ATOM     15  O   UNL     1      43.538   4.001  10.262  0.00  0.00    +0.000 OA
BRANCH  15  19
ATOM     16  C   UNL     1      46.402   2.462   7.724  0.00  0.00    +0.000 A 
ATOM     17  C   UNL     1      46.169   3.841   7.743  0.00  0.00    +0.000 A 
ATOM     18  C   UNL     1      45.198   4.358   8.603  0.00  0.00    +0.000 A 
ATOM     19  C   UNL     1      44.499   3.477   9.420  0.00  0.00    +0.000 A 
ATOM     20  N   UNL     1      44.709   2.142   9.419  0.00  0.00    +0.000 NA
ATOM     21  C   UNL     1      45.645   1.664   8.567  0.00  0.00    +0.000 A 
BRANCH  16  23
ATOM     22  N   UNL     1      48.473   2.542   6.459  0.00  0.00    +0.000 N 
ATOM     23  C   UNL     1      47.387   1.807   6.841  0.00  0.00    +0.000 C 
ATOM     24  O   UNL     1      47.258   0.641   6.495  0.00  0.00    +0.000 OA
ATOM     25  H   UNL     1      49.189   2.046   5.941  0.00  0.00    +0.000 HD
ATOM     26  H   UNL     1      48.744   3.396   6.926  0.00  0.00    +0.000 HD
ENDBRANCH  16  23
ENDBRANCH  15  19
ENDBRANCH   1  15
TORSDOF 5
ENDMDL
MODEL 2
REMARK VINA RESULT:    -8.656      0.318      1.033
REMARK INTER + INTRA:         -11.898
REMARK INTER:                 -11.169
REMARK INTRA:                  -0.729
REMARK UNBOUND:                -0.711
REMARK  Name = 
REMARK  5 active torsions:
REMARK  status: ('A' for Active; 'I' for Inactive)
REMARK    1  A    between atoms: C_2  and  C_4
REMARK    2  A    between atoms: C_7  and  O_8
REMARK    3  A    between atoms: O_8  and  C_9
REMARK    4  A    between atoms: C_9  and  C_10
REMARK    5  A    between atoms: C_14  and  C_15
REMARK                            x       y       z     vdW  Elec       q    Type
REMARK                         _______ _______ _______ _____ _____    ______ ____
ROOT
ATOM      1  C   UNL     1      43.620   3.812  11.460  0.00  0.00    +0.000 C 
ENDROOT
BRANCH   1   2
ATOM      2  C   UNL     1      44.823   4.343  12.209  0.00  0.00    +0.000 A 
ATOM      3  N   UNL     1      45.514   3.485  12.987  0.00  0.00    +0.000 NA
ATOM      4  C   UNL     1      46.608   3.974  13.592  0.00  0.00    +0.000 A 
ATOM      5  C   UNL     1      47.042   5.270  13.446  0.00  0.00    +0.000 A 
ATOM      6  C   UNL     1      46.285   6.087  12.626  0.00  0.00    +0.000 A 
ATOM      7  N   UNL     1      45.171   5.631  12.011  0.00  0.00    +0.000 NA
BRANCH   6   8
ATOM      8  C   UNL     1      46.622   7.506  12.379  0.00  0.00    +0.000 A 
ATOM      9  C   UNL     1      47.950   7.939  12.186  0.00  0.00    +0.000 A 
ATOM     10  C   UNL     1      48.250   9.289  11.975  0.00  0.00    +0.000 A 
ATOM     11  C   UNL     1      47.224  10.223  11.951  0.00  0.00    +0.000 A 
ATOM     12  F   UNL     1      47.513  11.516  11.757  0.00  0.00    +0.000 F 
ATOM     13  C   UNL     1      45.905   9.834  12.122  0.00  0.00    +0.000 A 
ATOM     14  C   UNL     1      45.607   8.484  12.331  0.00  0.00    +0.000 A 
ENDBRANCH   6   8
ENDBRANCH   1   2
BRANCH   1  15
ATOM     15  O   UNL     1      43.602   4.272  10.098  0.00  0.00    +0.000 OA
BRANCH  15  19
ATOM     16  C   UNL     1      46.363   2.264   7.782  0.00  0.00    +0.000 A 
ATOM     17  C   UNL     1      46.294   3.660   7.715  0.00  0.00    +0.000 A 
ATOM     18  C   UNL     1      45.357   4.335   8.501  0.00  0.00    +0.000 A 
ATOM     19  C   UNL     1      44.527   3.591   9.331  0.00  0.00    +0.000 A 
ATOM     20  N   UNL     1      44.578   2.243   9.412  0.00  0.00    +0.000 NA
ATOM     21  C   UNL     1      45.483   1.610   8.630  0.00  0.00    +0.000 A 
BRANCH  16  23
ATOM     22  N   UNL     1      48.397   2.077   6.469  0.00  0.00    +0.000 N 
ATOM     23  C   UNL     1      47.298   1.449   6.982  0.00  0.00    +0.000 C 
ATOM     24  O   UNL     1      47.118   0.250   6.816  0.00  0.00    +0.000 OA
ATOM     25  H   UNL     1      49.079   1.483   6.013  0.00  0.00    +0.000 HD
ATOM     26  H   UNL     1      48.711   2.980   6.798  0.00  0.00    +0.000 HD
ENDBRANCH  16  23
ENDBRANCH  15  19
ENDBRANCH   1  15
TORSDOF 5
ENDMDL
MODEL 3
REMARK VINA RESULT:    -8.187      2.708      4.034
REMARK INTER + INTRA:         -11.292
REMARK INTER:                 -10.706
REMARK INTRA:                  -0.586
REMARK UNBOUND:                -0.711
REMARK  Name = 
REMARK  5 active torsions:
REMARK  status: ('A' for Active; 'I' for Inactive)
REMARK    1  A    between atoms: C_2  and  C_4
REMARK    2  A    between atoms: C_7  and  O_8
REMARK    3  A    between atoms: O_8  and  C_9
REMARK    4  A    between atoms: C_9  and  C_10
REMARK    5  A    between atoms: C_14  and  C_15
REMARK                            x       y       z     vdW  Elec       q    Type
REMARK                         _______ _______ _______ _____ _____    ______ ____
ROOT
ATOM      1  C   UNL     1      44.040   4.097  11.407  0.00  0.00    +0.000 C 
ENDROOT
BRANCH   1   2
ATOM      2  C   UNL     1      45.082   5.036  11.975  0.00  0.00    +0.000 A 
ATOM      3  N   UNL     1      45.249   6.233  11.377  0.00  0.00    +0.000 NA
ATOM      4  C   UNL     1      46.141   7.064  11.939  0.00  0.00    +0.000 A 
ATOM      5  C   UNL     1      46.859   6.755  13.070  0.00  0.00    +0.000 A 
ATOM      6  C   UNL     1      46.627   5.513  13.630  0.00  0.00    +0.000 A 
ATOM      7  N   UNL     1      45.745   4.646  13.083  0.00  0.00    +0.000 NA
BRANCH   6   8
ATOM      8  C   UNL     1      47.331   5.037  14.841  0.00  0.00    +0.000 A 
ATOM      9  C   UNL     1      47.169   3.727  15.336  0.00  0.00    +0.000 A 
ATOM     10  C   UNL     1      47.826   3.302  16.495  0.00  0.00    +0.000 A 
ATOM     11  C   UNL     1      48.658   4.182  17.172  0.00  0.00    +0.000 A 
ATOM     12  F   UNL     1      49.281   3.777  18.286  0.00  0.00    +0.000 F 
ATOM     13  C   UNL     1      48.855   5.473  16.707  0.00  0.00    +0.000 A 
ATOM     14  C   UNL     1      48.198   5.895  15.548  0.00  0.00    +0.000 A 
ENDBRANCH   6   8
ENDBRANCH   1   2
BRANCH   1  15
ATOM     15  O   UNL     1      43.759   4.395  10.028  0.00  0.00    +0.000 OA
BRANCH  15  19
ATOM     16  C   UNL     1      46.541   2.614   7.557  0.00  0.00    +0.000 A 
ATOM     17  C   UNL     1      45.804   1.824   8.446  0.00  0.00    +0.000 A 
ATOM     18  C   UNL     1      44.864   2.431   9.281  0.00  0.00    +0.000 A 
ATOM     19  C   UNL     1      44.688   3.806   9.193  0.00  0.00    +0.000 A 
ATOM     20  N   UNL     1      45.388   4.589   8.341  0.00  0.00    +0.000 NA
ATOM     21  C   UNL     1      46.303   3.979   7.552  0.00  0.00    +0.000 A 
BRANCH  16  23
ATOM     22  N   UNL     1      47.910   2.845   5.566  0.00  0.00    +0.000 N 
ATOM     23  C   UNL     1      47.572   2.081   6.646  0.00  0.00    +0.000 C 
ATOM     24  O   UNL     1      48.132   1.016   6.868  0.00  0.00    +0.000 OA
ATOM     25  H   UNL     1      48.691   2.515   5.011  0.00  0.00    +0.000 HD
ATOM     26  H   UNL     1      47.670   3.824   5.495  0.00  0.00    +0.000 HD
ENDBRANCH  16  23
ENDBRANCH  15  19
ENDBRANCH   1  15
TORSDOF 5
ENDMDL
MODEL 4
REMARK VINA RESULT:    -7.894      1.826      2.532
REMARK INTER + INTRA:         -10.913
REMARK INTER:                 -10.399
REMARK INTRA:                  -0.514
REMARK UNBOUND:                -0.711
REMARK  Name = 
REMARK  5 active torsions:
REMARK  status: ('A' for Active; 'I' for Inactive)
REMARK    1  A    between atoms: C_2  and  C_4
REMARK    2  A    between atoms: C_7  and  O_8
REMARK    3  A    between atoms: O_8  and  C_9
REMARK    4  A    between atoms: C_9  and  C_10
REMARK    5  A    between atoms: C_14  and  C_15
REMARK                            x       y       z     vdW  Elec       q    Type
REMARK                         _______ _______ _______ _____ _____    ______ ____
ROOT
ATOM      1  C   UNL     1      44.219   3.501  11.692  0.00  0.00    +0.000 C 
ENDROOT
BRANCH   1   2
ATOM      2  C   UNL     1      44.557   4.976  11.699  0.00  0.00    +0.000 A 
ATOM      3  N   UNL     1      43.584   5.850  11.370  0.00  0.00    +0.000 NA
ATOM      4  C   UNL     1      43.901   7.153  11.442  0.00  0.00    +0.000 A 
ATOM      5  C   UNL     1      45.134   7.615  11.834  0.00  0.00    +0.000 A 
ATOM      6  C   UNL     1      46.077   6.658  12.163  0.00  0.00    +0.000 A 
ATOM      7  N   UNL     1      45.797   5.338  12.091  0.00  0.00    +0.000 NA
BRANCH   6   8
ATOM      8  C   UNL     1      47.449   7.002  12.594  0.00  0.00    +0.000 A 
ATOM      9  C   UNL     1      47.923   6.713  13.890  0.00  0.00    +0.000 A 
ATOM     10  C   UNL     1      49.217   7.065  14.286  0.00  0.00    +0.000 A 
ATOM     11  C   UNL     1      50.057   7.709  13.388  0.00  0.00    +0.000 A 
ATOM     12  F   UNL     1      51.293   8.053  13.770  0.00  0.00    +0.000 F 
ATOM     13  C   UNL     1      49.633   7.997  12.099  0.00  0.00    +0.000 A 
ATOM     14  C   UNL     1      48.339   7.642  11.707  0.00  0.00    +0.000 A 
ENDBRANCH   6   8
ENDBRANCH   1   2
BRANCH   1  15
ATOM     15  O   UNL     1      43.588   3.112  10.459  0.00  0.00    +0.000 OA
BRANCH  15  19
ATOM     16  C   UNL     1      46.363   2.559   7.457  0.00  0.00    +0.000 A 
ATOM     17  C   UNL     1      45.720   3.795   7.581  0.00  0.00    +0.000 A 
ATOM     18  C   UNL     1      44.781   3.978   8.598  0.00  0.00    +0.000 A 
ATOM     19  C   UNL     1      44.523   2.919   9.461  0.00  0.00    +0.000 A 
ATOM     20  N   UNL     1      45.134   1.718   9.361  0.00  0.00    +0.000 NA
ATOM     21  C   UNL     1      46.029   1.560   8.359  0.00  0.00    +0.000 A 
BRANCH  16  23
ATOM     22  N   UNL     1      47.388   3.069   5.316  0.00  0.00    +0.000 N 
ATOM     23  C   UNL     1      47.354   2.250   6.409  0.00  0.00    +0.000 C 
ATOM     24  O   UNL     1      48.142   1.321   6.529  0.00  0.00    +0.000 OA
ATOM     25  H   UNL     1      48.141   2.906   4.658  0.00  0.00    +0.000 HD
ATOM     26  H   UNL     1      46.947   3.978   5.304  0.00  0.00    +0.000 HD
ENDBRANCH  16  23
ENDBRANCH  15  19
ENDBRANCH   1  15
TORSDOF 5
ENDMDL
MODEL 5
REMARK VINA RESULT:    -7.537      4.527      8.180
REMARK INTER + INTRA:         -10.451
REMARK INTER:                  -9.977
REMARK INTRA:                  -0.475
REMARK UNBOUND:                -0.711
REMARK  Name = 
REMARK  5 active torsions:
REMARK  status: ('A' for Active; 'I' for Inactive)
REMARK    1  A    between atoms: C_2  and  C_4
REMARK    2  A    between atoms: C_7  and  O_8
REMARK    3  A    between atoms: O_8  and  C_9
REMARK    4  A    between atoms: C_9  and  C_10
REMARK    5  A    between atoms: C_14  and  C_15
REMARK                            x       y       z     vdW  Elec       q    Type
REMARK                         _______ _______ _______ _____ _____    ______ ____
ROOT
ATOM      1  C   UNL     1      46.073   5.158  13.967  0.00  0.00    +0.000 C 
ENDROOT
BRANCH   1   2
ATOM      2  C   UNL     1      45.085   4.882  12.854  0.00  0.00    +0.000 A 
ATOM      3  N   UNL     1      43.804   5.259  13.037  0.00  0.00    +0.000 NA
ATOM      4  C   UNL     1      42.966   5.050  12.008  0.00  0.00    +0.000 A 
ATOM      5  C   UNL     1      43.355   4.495  10.812  0.00  0.00    +0.000 A 
ATOM      6  C   UNL     1      44.686   4.141  10.698  0.00  0.00    +0.000 A 
ATOM      7  N   UNL     1      45.555   4.325  11.717  0.00  0.00    +0.000 NA
BRANCH   6   8
ATOM      8  C   UNL     1      45.249   3.525   9.477  0.00  0.00    +0.000 A 
ATOM      9  C   UNL     1      45.292   2.128   9.293  0.00  0.00    +0.000 A 
ATOM     10  C   UNL     1      45.848   1.564   8.140  0.00  0.00    +0.000 A 
ATOM     11  C   UNL     1      46.365   2.391   7.153  0.00  0.00    +0.000 A 
ATOM     12  F   UNL     1      46.903   1.851   6.054  0.00  0.00    +0.000 F 
ATOM     13  C   UNL     1      46.326   3.771   7.291  0.00  0.00    +0.000 A 
ATOM     14  C   UNL     1      45.769   4.331   8.444  0.00  0.00    +0.000 A 
ENDBRANCH   6   8
ENDBRANCH   1   2
BRANCH   1  15
ATOM     15  O   UNL     1      46.590   3.939  14.527  0.00  0.00    +0.000 OA
BRANCH  15  19
ATOM     16  C   UNL     1      48.344   4.626  18.197  0.00  0.00    +0.000 A 
ATOM     17  C   UNL     1      48.648   5.466  17.121  0.00  0.00    +0.000 A 
ATOM     18  C   UNL     1      48.053   5.230  15.880  0.00  0.00    +0.000 A 
ATOM     19  C   UNL     1      47.168   4.165  15.761  0.00  0.00    +0.000 A 
ATOM     20  N   UNL     1      46.859   3.341  16.787  0.00  0.00    +0.000 NA
ATOM     21  C   UNL     1      47.460   3.582  17.976  0.00  0.00    +0.000 A 
BRANCH  16  23
ATOM     22  N   UNL     1      50.256   4.472  19.686  0.00  0.00    +0.000 N 
ATOM     23  C   UNL     1      48.931   4.771  19.543  0.00  0.00    +0.000 C 
ATOM     24  O   UNL     1      48.269   5.178  20.488  0.00  0.00    +0.000 OA
ATOM     25  H   UNL     1      50.666   4.676  20.590  0.00  0.00    +0.000 HD
ATOM     26  H   UNL     1      50.883   4.390  18.898  0.00  0.00    +0.000 HD
ENDBRANCH  16  23
ENDBRANCH  15  19
ENDBRANCH   1  15
TORSDOF 5
ENDMDL
MODEL 6
REMARK VINA RESULT:    -7.068      3.686      6.841
REMARK INTER + INTRA:          -9.845
REMARK INTER:                  -9.168
REMARK INTRA:                  -0.678
REMARK UNBOUND:                -0.711
REMARK  Name = 
REMARK  5 active torsions:
REMARK  status: ('A' for Active; 'I' for Inactive)
REMARK    1  A    between atoms: C_2  and  C_4
REMARK    2  A    between atoms: C_7  and  O_8
REMARK    3  A    between atoms: O_8  and  C_9
REMARK    4  A    between atoms: C_9  and  C_10
REMARK    5  A    between atoms: C_14  and  C_15
REMARK                            x       y       z     vdW  Elec       q    Type
REMARK                         _______ _______ _______ _____ _____    ______ ____
ROOT
ATOM      1  C   UNL     1      45.926   4.888  13.585  0.00  0.00    +0.000 C 
ENDROOT
BRANCH   1   2
ATOM      2  C   UNL     1      45.151   4.033  12.606  0.00  0.00    +0.000 A 
ATOM      3  N   UNL     1      43.964   3.531  13.005  0.00  0.00    +0.000 NA
ATOM      4  C   UNL     1      43.277   2.825  12.094  0.00  0.00    +0.000 A 
ATOM      5  C   UNL     1      43.716   2.610  10.809  0.00  0.00    +0.000 A 
ATOM      6  C   UNL     1      44.938   3.163  10.473  0.00  0.00    +0.000 A 
ATOM      7  N   UNL     1      45.663   3.869  11.368  0.00  0.00    +0.000 NA
BRANCH   6   8
ATOM      8  C   UNL     1      45.544   3.009   9.133  0.00  0.00    +0.000 A 
ATOM      9  C   UNL     1      45.890   1.747   8.606  0.00  0.00    +0.000 A 
ATOM     10  C   UNL     1      46.483   1.624   7.346  0.00  0.00    +0.000 A 
ATOM     11  C   UNL     1      46.733   2.762   6.592  0.00  0.00    +0.000 A 
ATOM     12  F   UNL     1      47.306   2.644   5.388  0.00  0.00    +0.000 F 
ATOM     13  C   UNL     1      46.392   4.019   7.068  0.00  0.00    +0.000 A 
ATOM     14  C   UNL     1      45.799   4.139   8.329  0.00  0.00    +0.000 A 
ENDBRANCH   6   8
ENDBRANCH   1   2
BRANCH   1  15
ATOM     15  O   UNL     1      45.807   6.287  13.273  0.00  0.00    +0.000 OA
BRANCH  15  19
ATOM     16  C   UNL     1      49.491   7.968  12.487  0.00  0.00    +0.000 A 
ATOM     17  C   UNL     1      48.366   8.419  11.789  0.00  0.00    +0.000 A 
ATOM     18  C   UNL     1      47.121   7.847  12.058  0.00  0.00    +0.000 A 
ATOM     19  C   UNL     1      47.044   6.847  13.020  0.00  0.00    +0.000 A 
ATOM     20  N   UNL     1      48.117   6.397  13.708  0.00  0.00    +0.000 NA
ATOM     21  C   UNL     1      49.315   6.957  13.419  0.00  0.00    +0.000 A 
BRANCH  16  23
ATOM     22  N   UNL     1      51.829   8.074  13.134  0.00  0.00    +0.000 N 
ATOM     23  C   UNL     1      50.855   8.486  12.269  0.00  0.00    +0.000 C 
ATOM     24  O   UNL     1      51.115   9.224  11.329  0.00  0.00    +0.000 OA
ATOM     25  H   UNL     1      52.776   8.355  12.908  0.00  0.00    +0.000 HD
ATOM     26  H   UNL     1      51.712   7.277  13.745  0.00  0.00    +0.000 HD
ENDBRANCH  16  23
ENDBRANCH  15  19
ENDBRANCH   1  15
TORSDOF 5
ENDMDL
MODEL 7
REMARK VINA RESULT:    -6.288      5.831      8.313
REMARK INTER + INTRA:          -8.838
REMARK INTER:                  -8.236
REMARK INTRA:                  -0.602
REMARK UNBOUND:                -0.711
REMARK  Name = 
REMARK  5 active torsions:
REMARK  status: ('A' for Active; 'I' for Inactive)
REMARK    1  A    between atoms: C_2  and  C_4
REMARK    2  A    between atoms: C_7  and  O_8
REMARK    3  A    between atoms: O_8  and  C_9
REMARK    4  A    between atoms: C_9  and  C_10
REMARK    5  A    between atoms: C_14  and  C_15
REMARK                            x       y       z     vdW  Elec       q    Type
REMARK                         _______ _______ _______ _____ _____    ______ ____
ROOT
ATOM      1  C   UNL     1      48.826   5.680  16.859  0.00  0.00    +0.000 C 
ENDROOT
BRANCH   1   2
ATOM      2  C   UNL     1      48.733   6.157  15.426  0.00  0.00    +0.000 A 
ATOM      3  N   UNL     1      49.661   7.032  14.988  0.00  0.00    +0.000 NA
ATOM      4  C   UNL     1      49.583   7.392  13.698  0.00  0.00    +0.000 A 
ATOM      5  C   UNL     1      48.632   6.910  12.830  0.00  0.00    +0.000 A 
ATOM      6  C   UNL     1      47.720   6.011  13.350  0.00  0.00    +0.000 A 
ATOM      7  N   UNL     1      47.761   5.636  14.649  0.00  0.00    +0.000 NA
BRANCH   6   8
ATOM      8  C   UNL     1      46.634   5.415  12.542  0.00  0.00    +0.000 A 
ATOM      9  C   UNL     1      46.172   6.010  11.351  0.00  0.00    +0.000 A 
ATOM     10  C   UNL     1      45.129   5.442  10.612  0.00  0.00    +0.000 A 
ATOM     11  C   UNL     1      44.537   4.267  11.054  0.00  0.00    +0.000 A 
ATOM     12  F   UNL     1      43.535   3.728  10.350  0.00  0.00    +0.000 F 
ATOM     13  C   UNL     1      44.975   3.643  12.212  0.00  0.00    +0.000 A 
ATOM     14  C   UNL     1      46.018   4.213  12.948  0.00  0.00    +0.000 A 
ENDBRANCH   6   8
ENDBRANCH   1   2
BRANCH   1  15
ATOM     15  O   UNL     1      50.165   5.804  17.369  0.00  0.00    +0.000 OA
BRANCH  15  19
ATOM     16  C   UNL     1      51.965   2.105  17.671  0.00  0.00    +0.000 A 
ATOM     17  C   UNL     1      50.582   2.183  17.476  0.00  0.00    +0.000 A 
ATOM     18  C   UNL     1      49.977   3.437  17.375  0.00  0.00    +0.000 A 
ATOM     19  C   UNL     1      50.777   4.570  17.466  0.00  0.00    +0.000 A 
ATOM     20  N   UNL     1      52.115   4.517  17.652  0.00  0.00    +0.000 NA
ATOM     21  C   UNL     1      52.676   3.291  17.761  0.00  0.00    +0.000 A 
BRANCH  16  23
ATOM     22  N   UNL     1      52.044  -0.214  18.385  0.00  0.00    +0.000 N 
ATOM     23  C   UNL     1      52.704   0.835  17.812  0.00  0.00    +0.000 C 
ATOM     24  O   UNL     1      53.849   0.713  17.399  0.00  0.00    +0.000 OA
ATOM     25  H   UNL     1      52.529  -1.104  18.379  0.00  0.00    +0.000 HD
ATOM     26  H   UNL     1      51.040  -0.232  18.494  0.00  0.00    +0.000 HD
ENDBRANCH  16  23
ENDBRANCH  15  19
ENDBRANCH   1  15
TORSDOF 5
ENDMDL
MODEL 8
REMARK VINA RESULT:    -6.223      5.242      7.491
REMARK INTER + INTRA:          -8.753
REMARK INTER:                  -8.085
REMARK INTRA:                  -0.668
REMARK UNBOUND:                -0.711
REMARK  Name = 
REMARK  5 active torsions:
REMARK  status: ('A' for Active; 'I' for Inactive)
REMARK    1  A    between atoms: C_2  and  C_4
REMARK    2  A    between atoms: C_7  and  O_8
REMARK    3  A    between atoms: O_8  and  C_9
REMARK    4  A    between atoms: C_9  and  C_10
REMARK    5  A    between atoms: C_14  and  C_15
REMARK                            x       y       z     vdW  Elec       q    Type
REMARK                         _______ _______ _______ _____ _____    ______ ____
ROOT
ATOM      1  C   UNL     1      47.300   3.900  16.227  0.00  0.00    +0.000 C 
ENDROOT
BRANCH   1   2
ATOM      2  C   UNL     1      47.104   4.582  14.891  0.00  0.00    +0.000 A 
ATOM      3  N   UNL     1      46.009   4.262  14.172  0.00  0.00    +0.000 NA
ATOM      4  C   UNL     1      45.836   4.926  13.018  0.00  0.00    +0.000 A 
ATOM      5  C   UNL     1      46.697   5.895  12.562  0.00  0.00    +0.000 A 
ATOM      6  C   UNL     1      47.793   6.173  13.358  0.00  0.00    +0.000 A 
ATOM      7  N   UNL     1      48.005   5.515  14.520  0.00  0.00    +0.000 NA
BRANCH   6   8
ATOM      8  C   UNL     1      48.811   7.183  12.995  0.00  0.00    +0.000 A 
ATOM      9  C   UNL     1      49.778   7.637  13.914  0.00  0.00    +0.000 A 
ATOM     10  C   UNL     1      50.719   8.609  13.558  0.00  0.00    +0.000 A 
ATOM     11  C   UNL     1      50.707   9.136  12.275  0.00  0.00    +0.000 A 
ATOM     12  F   UNL     1      51.603  10.071  11.937  0.00  0.00    +0.000 F 
ATOM     13  C   UNL     1      49.782   8.703  11.337  0.00  0.00    +0.000 A 
ATOM     14  C   UNL     1      48.843   7.731  11.696  0.00  0.00    +0.000 A 
ENDBRANCH   6   8
ENDBRANCH   1   2
BRANCH   1  15
ATOM     15  O   UNL     1      48.286   4.578  17.024  0.00  0.00    +0.000 OA
BRANCH  15  19
ATOM     16  C   UNL     1      51.631   2.235  17.609  0.00  0.00    +0.000 A 
ATOM     17  C   UNL     1      51.641   3.568  18.034  0.00  0.00    +0.000 A 
ATOM     18  C   UNL     1      50.508   4.358  17.833  0.00  0.00    +0.000 A 
ATOM     19  C   UNL     1      49.399   3.784  17.221  0.00  0.00    +0.000 A 
ATOM     20  N   UNL     1      49.366   2.499  16.805  0.00  0.00    +0.000 NA
ATOM     21  C   UNL     1      50.482   1.758  16.997  0.00  0.00    +0.000 A 
BRANCH  16  23
ATOM     22  N   UNL     1      52.516   0.045  18.169  0.00  0.00    +0.000 N 
ATOM     23  C   UNL     1      52.778   1.319  17.752  0.00  0.00    +0.000 C 
ATOM     24  O   UNL     1      53.916   1.671  17.471  0.00  0.00    +0.000 OA
ATOM     25  H   UNL     1      53.299  -0.599  18.161  0.00  0.00    +0.000 HD
ATOM     26  H   UNL     1      51.587  -0.352  18.155  0.00  0.00    +0.000 HD
ENDBRANCH  16  23
ENDBRANCH  15  19
ENDBRANCH   1  15
TORSDOF 5
ENDMDL
