MODEL 1
REMARK VINA RESULT:    -9.082      0.000      0.000
REMARK INTER + INTRA:         -13.374
REMARK INTER:                 -12.268
REMARK INTRA:                  -1.107
REMARK UNBOUND:                -1.107
REMARK  Name = 
REMARK  6 active torsions:
REMARK  status: ('A' for Active; 'I' for Inactive)
REMARK    1  A    between atoms: C_2  and  C_4
REMARK    2  A    between atoms: C_7  and  N_8
REMARK    3  A    between atoms: N_8  and  C_9
REMARK    4  A    between atoms: C_9  and  C_10
REMARK    5  A    between atoms: C_10  and  C_13
REMARK    6  A    between atoms: C_17  and  C_18
REMARK                            x       y       z     vdW  Elec       q    Type
REMARK                         _______ _______ _______ _____ _____    ______ ____
ROOT
ATOM      1  C   UNL     1      43.310   5.218  12.446  0.00  0.00    +0.000 C 
ATOM      2  F   UNL     1      42.684   6.359  12.034  0.00  0.00    +0.000 F 
ATOM      3  F   UNL     1      42.586   4.775  13.520  0.00  0.00    +0.000 F 
ENDROOT
BRANCH   1   4
ATOM      4  C   UNL     1      44.766   5.462  12.790  0.00  0.00    +0.000 A 
ATOM      5  C   UNL     1      45.546   4.448  13.357  0.00  0.00    +0.000 A 
ATOM      6  C   UNL     1      46.899   4.664  13.599  0.00  0.00    +0.000 A 
ATOM      7  C   UNL     1      47.487   5.886  13.260  0.00  0.00    +0.000 A 
ATOM      8  C   UNL     1      46.743   6.922  12.667  0.00  0.00    +0.000 A 
ATOM      9  C   UNL     1      45.370   6.690  12.462  0.00  0.00    +0.000 A 
BRANCH   8  10
ATOM     10  C   UNL     1      47.382   8.180  12.227  0.00  0.00    +0.000 A 
ATOM     11  C   UNL     1      48.712   8.243  11.791  0.00  0.00    +0.000 A 
ATOM     12  C   UNL     1      49.287   9.462  11.426  0.00  0.00    +0.000 A 
ATOM     13  C   UNL     1      48.505  10.605  11.493  0.00  0.00    +0.000 A 
ATOM     14  N   UNL     1      47.226  10.603  11.901  0.00  0.00    +0.000 NA
ATOM     15  C   UNL     1      46.702   9.404  12.258  0.00  0.00    +0.000 A 
ENDBRANCH   8  10
ENDBRANCH   1   4
BRANCH   1  16
ATOM     16  C   UNL     1      43.218   4.150  11.326  0.00  0.00    +0.000 C 
BRANCH  16  17
ATOM     17  N   UNL     1      43.701   4.625  10.020  0.00  0.00    +0.000 N 
ATOM     18  H   UNL     1      42.990   5.070   9.440  0.00  0.00    +0.000 HD
BRANCH  17  22
ATOM     19  C   UNL     1      46.400   2.326   7.741  0.00  0.00    +0.000 A 
ATOM     20  C   UNL     1      46.390   3.714   7.597  0.00  0.00    +0.000 A 
ATOM     21  C   UNL     1      45.515   4.491   8.364  0.00  0.00    +0.000 A 
ATOM     22  C   UNL     1      44.657   3.911   9.307  0.00  0.00    +0.000 A 
ATOM     23  C   UNL     1      44.671   2.514   9.427  0.00  0.00    +0.000 A 
ATOM     24  C   UNL     1      45.528   1.724   8.650  0.00  0.00    +0.000 A 
BRANCH  19  26
ATOM     25  N   UNL     1      48.350   2.069   6.306  0.00  0.00    +0.000 N 
ATOM     26  C   UNL     1      47.283   1.467   6.913  0.00  0.00    +0.000 C 
ATOM     27  O   UNL     1      47.089   0.262   6.801  0.00  0.00    +0.000 OA
ATOM     28  H   UNL     1      48.997   1.455   5.829  0.00  0.00    +0.000 HD
ATOM     29  H   UNL     1      48.681   2.984   6.576  0.00  0.00    +0.000 HD
ENDBRANCH  19  26
ENDBRANCH  17  22
ENDBRANCH  16  17
ENDBRANCH   1  16
TORSDOF 6
ENDMDL
MODEL 2
REMARK VINA RESULT:    -8.912      2.355      3.704
REMARK INTER + INTRA:         -13.146
REMARK INTER:                 -11.972
REMARK INTRA:                  -1.174
REMARK UNBOUND:                -1.107
REMARK  Name = 
REMARK  6 active torsions:
REMARK  status: ('A' for Active; 'I' for Inactive)
REMARK    1  A    between atoms: C_2  and  C_4
REMARK    2  A    between atoms: C_7  and  N_8
REMARK    3  A    between atoms: N_8  and  C_9
REMARK    4  A    between atoms: C_9  and  C_10
REMARK    5  A    between atoms: C_10  and  C_13
REMARK    6  A    between atoms: C_17  and  C_18
REMARK                            x       y       z     vdW  Elec       q    Type
REMARK                         _______ _______ _______ _____ _____    ______ ____
ROOT
ATOM      1  C   UNL     1      43.876   4.669  12.416  0.00  0.00    +0.000 C 
ATOM      2  F   UNL     1      42.946   5.228  13.244  0.00  0.00    +0.000 F 
ATOM      3  F   UNL     1      43.733   3.317  12.571  0.00  0.00    +0.000 F 
ENDROOT
BRANCH   1   4
ATOM      4  C   UNL     1      45.280   5.143  12.739  0.00  0.00    +0.000 A 
ATOM      5  C   UNL     1      45.938   6.050  11.901  0.00  0.00    +0.000 A 
ATOM      6  C   UNL     1      47.196   6.531  12.249  0.00  0.00    +0.000 A 
ATOM      7  C   UNL     1      47.799   6.125  13.442  0.00  0.00    +0.000 A 
ATOM      8  C   UNL     1      47.161   5.233  14.323  0.00  0.00    +0.000 A 
ATOM      9  C   UNL     1      45.904   4.736  13.933  0.00  0.00    +0.000 A 
BRANCH   8  10
ATOM     10  C   UNL     1      47.758   4.873  15.627  0.00  0.00    +0.000 A 
ATOM     11  C   UNL     1      47.489   3.659  16.274  0.00  0.00    +0.000 A 
ATOM     12  C   UNL     1      48.042   3.380  17.525  0.00  0.00    +0.000 A 
ATOM     13  C   UNL     1      48.872   4.327  18.104  0.00  0.00    +0.000 A 
ATOM     14  N   UNL     1      49.165   5.505  17.529  0.00  0.00    +0.000 NA
ATOM     15  C   UNL     1      48.603   5.748  16.319  0.00  0.00    +0.000 A 
ENDBRANCH   8  10
ENDBRANCH   1   4
BRANCH   1  16
ATOM     16  C   UNL     1      43.537   5.029  10.947  0.00  0.00    +0.000 C 
BRANCH  16  17
ATOM     17  N   UNL     1      43.488   3.862  10.053  0.00  0.00    +0.000 N 
ATOM     18  H   UNL     1      42.962   3.069  10.418  0.00  0.00    +0.000 HD
BRANCH  17  22
ATOM     19  C   UNL     1      46.648   2.644   7.543  0.00  0.00    +0.000 A 
ATOM     20  C   UNL     1      46.301   3.995   7.604  0.00  0.00    +0.000 A 
ATOM     21  C   UNL     1      45.270   4.416   8.450  0.00  0.00    +0.000 A 
ATOM     22  C   UNL     1      44.584   3.512   9.272  0.00  0.00    +0.000 A 
ATOM     23  C   UNL     1      44.936   2.158   9.187  0.00  0.00    +0.000 A 
ATOM     24  C   UNL     1      45.953   1.722   8.328  0.00  0.00    +0.000 A 
BRANCH  19  26
ATOM     25  N   UNL     1      48.019   2.946   5.554  0.00  0.00    +0.000 N 
ATOM     26  C   UNL     1      47.707   2.155   6.625  0.00  0.00    +0.000 C 
ATOM     27  O   UNL     1      48.303   1.105   6.830  0.00  0.00    +0.000 OA
ATOM     28  H   UNL     1      48.809   2.649   4.996  0.00  0.00    +0.000 HD
ATOM     29  H   UNL     1      47.738   3.914   5.496  0.00  0.00    +0.000 HD
ENDBRANCH  19  26
ENDBRANCH  17  22
ENDBRANCH  16  17
ENDBRANCH   1  16
TORSDOF 6
ENDMDL
MODEL 3
REMARK VINA RESULT:    -8.276      2.038      2.669
REMARK INTER + INTRA:         -12.286
REMARK INTER:                 -11.289
REMARK INTRA:                  -0.997
REMARK UNBOUND:                -1.107
REMARK  Name = 
REMARK  6 active torsions:
REMARK  status: ('A' for Active; 'I' for Inactive)
REMARK    1  A    between atoms: C_2  and  C_4
REMARK    2  A    between atoms: C_7  and  N_8
REMARK    3  A    between atoms: N_8  and  C_9
REMARK    4  A    between atoms: C_9  and  C_10
REMARK    5  A    between atoms: C_10  and  C_13
REMARK    6  A    between atoms: C_17  and  C_18
REMARK                            x       y       z     vdW  Elec       q    Type
REMARK                         _______ _______ _______ _____ _____    ______ ____
ROOT
ATOM      1  C   UNL     1      44.225   4.974  12.388  0.00  0.00    +0.000 C 
ATOM      2  F   UNL     1      43.231   5.069  13.320  0.00  0.00    +0.000 F 
ATOM      3  F   UNL     1      44.890   3.815  12.685  0.00  0.00    +0.000 F 
ENDROOT
BRANCH   1   4
ATOM      4  C   UNL     1      45.136   6.185  12.405  0.00  0.00    +0.000 A 
ATOM      5  C   UNL     1      44.745   7.383  11.798  0.00  0.00    +0.000 A 
ATOM      6  C   UNL     1      45.560   8.507  11.885  0.00  0.00    +0.000 A 
ATOM      7  C   UNL     1      46.763   8.448  12.594  0.00  0.00    +0.000 A 
ATOM      8  C   UNL     1      47.182   7.271  13.239  0.00  0.00    +0.000 A 
ATOM      9  C   UNL     1      46.355   6.140  13.108  0.00  0.00    +0.000 A 
BRANCH   8  10
ATOM     10  C   UNL     1      48.408   7.233  14.063  0.00  0.00    +0.000 A 
ATOM     11  C   UNL     1      49.534   8.020  13.783  0.00  0.00    +0.000 A 
ATOM     12  C   UNL     1      50.687   7.919  14.564  0.00  0.00    +0.000 A 
ATOM     13  C   UNL     1      50.685   7.032  15.629  0.00  0.00    +0.000 A 
ATOM     14  N   UNL     1      49.635   6.256  15.944  0.00  0.00    +0.000 NA
ATOM     15  C   UNL     1      48.535   6.371  15.158  0.00  0.00    +0.000 A 
ENDBRANCH   8  10
ENDBRANCH   1   4
BRANCH   1  16
ATOM     16  C   UNL     1      43.594   4.825  10.980  0.00  0.00    +0.000 C 
BRANCH  16  17
ATOM     17  N   UNL     1      43.791   3.494  10.385  0.00  0.00    +0.000 N 
ATOM     18  H   UNL     1      43.623   2.716  11.021  0.00  0.00    +0.000 HD
BRANCH  17  22
ATOM     19  C   UNL     1      46.678   2.666   7.428  0.00  0.00    +0.000 A 
ATOM     20  C   UNL     1      46.323   3.990   7.688  0.00  0.00    +0.000 A 
ATOM     21  C   UNL     1      45.384   4.281   8.683  0.00  0.00    +0.000 A 
ATOM     22  C   UNL     1      44.801   3.268   9.457  0.00  0.00    +0.000 A 
ATOM     23  C   UNL     1      45.159   1.943   9.171  0.00  0.00    +0.000 A 
ATOM     24  C   UNL     1      46.084   1.639   8.164  0.00  0.00    +0.000 A 
BRANCH  19  26
ATOM     25  N   UNL     1      47.685   3.145   5.264  0.00  0.00    +0.000 N 
ATOM     26  C   UNL     1      47.638   2.317   6.351  0.00  0.00    +0.000 C 
ATOM     27  O   UNL     1      48.384   1.349   6.441  0.00  0.00    +0.000 OA
ATOM     28  H   UNL     1      48.412   2.952   4.587  0.00  0.00    +0.000 HD
ATOM     29  H   UNL     1      47.281   4.070   5.271  0.00  0.00    +0.000 HD
ENDBRANCH  19  26
ENDBRANCH  17  22
ENDBRANCH  16  17
ENDBRANCH   1  16
TORSDOF 6
ENDMDL
MODEL 4
REMARK VINA RESULT:    -8.007      1.982      2.583
REMARK INTER + INTRA:         -11.923
REMARK INTER:                 -11.140
REMARK INTRA:                  -0.783
REMARK UNBOUND:                -1.107
REMARK  Name = 
REMARK  6 active torsions:
REMARK  status: ('A' for Active; 'I' for Inactive)
REMARK    1  A    between atoms: C_2  and  C_4
REMARK    2  A    between atoms: C_7  and  N_8
REMARK    3  A    between atoms: N_8  and  C_9
REMARK    4  A    between atoms: C_9  and  C_10
REMARK    5  A    between atoms: C_10  and  C_13
REMARK    6  A    between atoms: C_17  and  C_18
REMARK                            x       y       z     vdW  Elec       q    Type
REMARK                         _______ _______ _______ _____ _____    ______ ____
ROOT
ATOM      1  C   UNL     1      45.043   6.315  11.424  0.00  0.00    +0.000 C 
ATOM      2  F   UNL     1      45.785   6.480  10.290  0.00  0.00    +0.000 F 
ATOM      3  F   UNL     1      44.395   7.506  11.609  0.00  0.00    +0.000 F 
ENDROOT
BRANCH   1   4
ATOM      4  C   UNL     1      45.901   5.931  12.613  0.00  0.00    +0.000 A 
ATOM      5  C   UNL     1      45.613   4.785  13.362  0.00  0.00    +0.000 A 
ATOM      6  C   UNL     1      46.451   4.406  14.405  0.00  0.00    +0.000 A 
ATOM      7  C   UNL     1      47.593   5.157  14.697  0.00  0.00    +0.000 A 
ATOM      8  C   UNL     1      47.931   6.302  13.953  0.00  0.00    +0.000 A 
ATOM      9  C   UNL     1      47.049   6.683  12.925  0.00  0.00    +0.000 A 
BRANCH   8  10
ATOM     10  C   UNL     1      49.184   7.046  14.203  0.00  0.00    +0.000 A 
ATOM     11  C   UNL     1      49.801   7.092  15.461  0.00  0.00    +0.000 A 
ATOM     12  C   UNL     1      50.961   7.844  15.659  0.00  0.00    +0.000 A 
ATOM     13  C   UNL     1      51.493   8.531  14.580  0.00  0.00    +0.000 A 
ATOM     14  N   UNL     1      50.946   8.520  13.354  0.00  0.00    +0.000 NA
ATOM     15  C   UNL     1      49.814   7.789  13.198  0.00  0.00    +0.000 A 
ENDBRANCH   8  10
ENDBRANCH   1   4
BRANCH   1  16
ATOM     16  C   UNL     1      43.978   5.215  11.182  0.00  0.00    +0.000 C 
BRANCH  16  17
ATOM     17  N   UNL     1      43.753   4.917   9.759  0.00  0.00    +0.000 N 
ATOM     18  H   UNL     1      42.776   4.932   9.471  0.00  0.00    +0.000 HD
BRANCH  17  22
ATOM     19  C   UNL     1      46.330   2.188   7.839  0.00  0.00    +0.000 A 
ATOM     20  C   UNL     1      45.405   1.718   8.774  0.00  0.00    +0.000 A 
ATOM     21  C   UNL     1      44.529   2.610   9.401  0.00  0.00    +0.000 A 
ATOM     22  C   UNL     1      44.532   3.976   9.093  0.00  0.00    +0.000 A 
ATOM     23  C   UNL     1      45.477   4.433   8.163  0.00  0.00    +0.000 A 
ATOM     24  C   UNL     1      46.373   3.552   7.544  0.00  0.00    +0.000 A 
BRANCH  19  26
ATOM     25  N   UNL     1      48.397   1.852   6.598  0.00  0.00    +0.000 N 
ATOM     26  C   UNL     1      47.304   1.279   7.187  0.00  0.00    +0.000 C 
ATOM     27  O   UNL     1      47.159   0.062   7.199  0.00  0.00    +0.000 OA
ATOM     28  H   UNL     1      49.100   1.215   6.246  0.00  0.00    +0.000 HD
ATOM     29  H   UNL     1      48.675   2.804   6.786  0.00  0.00    +0.000 HD
ENDBRANCH  19  26
ENDBRANCH  17  22
ENDBRANCH  16  17
ENDBRANCH   1  16
TORSDOF 6
ENDMDL
MODEL 5
REMARK VINA RESULT:    -8.006      1.631      2.493
REMARK INTER + INTRA:         -11.922
REMARK INTER:                 -10.942
REMARK INTRA:                  -0.980
REMARK UNBOUND:                -1.107
REMARK  Name = 
REMARK  6 active torsions:
REMARK  status: ('A' for Active; 'I' for Inactive)
REMARK    1  A    between atoms: C_2  and  C_4
REMARK    2  A    between atoms: C_7  and  N_8
REMARK    3  A    between atoms: N_8  and  C_9
REMARK    4  A    between atoms: C_9  and  C_10
REMARK    5  A    between atoms: C_10  and  C_13
REMARK    6  A    between atoms: C_17  and  C_18
REMARK                            x       y       z     vdW  Elec       q    Type
REMARK                         _______ _______ _______ _____ _____    ______ ____
ROOT
ATOM      1  C   UNL     1      44.661   5.220  12.070  0.00  0.00    +0.000 C 
ATOM      2  F   UNL     1      43.928   5.083  13.214  0.00  0.00    +0.000 F 
ATOM      3  F   UNL     1      45.595   4.221  12.116  0.00  0.00    +0.000 F 
ENDROOT
BRANCH   1   4
ATOM      4  C   UNL     1      45.289   6.596  11.960  0.00  0.00    +0.000 A 
ATOM      5  C   UNL     1      44.494   7.731  11.764  0.00  0.00    +0.000 A 
ATOM      6  C   UNL     1      45.077   8.993  11.737  0.00  0.00    +0.000 A 
ATOM      7  C   UNL     1      46.455   9.134  11.925  0.00  0.00    +0.000 A 
ATOM      8  C   UNL     1      47.286   8.021  12.148  0.00  0.00    +0.000 A 
ATOM      9  C   UNL     1      46.676   6.753  12.137  0.00  0.00    +0.000 A 
BRANCH   8  10
ATOM     10  C   UNL     1      48.728   8.176  12.434  0.00  0.00    +0.000 A 
ATOM     11  C   UNL     1      49.721   7.952  11.471  0.00  0.00    +0.000 A 
ATOM     12  C   UNL     1      51.073   8.068  11.800  0.00  0.00    +0.000 A 
ATOM     13  C   UNL     1      51.407   8.424  13.097  0.00  0.00    +0.000 A 
ATOM     14  N   UNL     1      50.498   8.653  14.058  0.00  0.00    +0.000 NA
ATOM     15  C   UNL     1      49.194   8.521  13.708  0.00  0.00    +0.000 A 
ENDBRANCH   8  10
ENDBRANCH   1   4
BRANCH   1  16
ATOM     16  C   UNL     1      43.746   4.973  10.843  0.00  0.00    +0.000 C 
BRANCH  16  17
ATOM     17  N   UNL     1      43.768   3.582  10.364  0.00  0.00    +0.000 N 
ATOM     18  H   UNL     1      43.628   2.881  11.090  0.00  0.00    +0.000 HD
BRANCH  17  22
ATOM     19  C   UNL     1      46.570   2.547   7.390  0.00  0.00    +0.000 A 
ATOM     20  C   UNL     1      46.045   1.551   8.214  0.00  0.00    +0.000 A 
ATOM     21  C   UNL     1      45.097   1.877   9.190  0.00  0.00    +0.000 A 
ATOM     22  C   UNL     1      44.631   3.189   9.347  0.00  0.00    +0.000 A 
ATOM     23  C   UNL     1      45.181   4.179   8.520  0.00  0.00    +0.000 A 
ATOM     24  C   UNL     1      46.145   3.867   7.553  0.00  0.00    +0.000 A 
BRANCH  19  26
ATOM     25  N   UNL     1      47.729   3.116   5.325  0.00  0.00    +0.000 N 
ATOM     26  C   UNL     1      47.609   2.246   6.374  0.00  0.00    +0.000 C 
ATOM     27  O   UNL     1      48.353   1.279   6.480  0.00  0.00    +0.000 OA
ATOM     28  H   UNL     1      48.504   2.953   4.697  0.00  0.00    +0.000 HD
ATOM     29  H   UNL     1      47.318   4.038   5.338  0.00  0.00    +0.000 HD
ENDBRANCH  19  26
ENDBRANCH  17  22
ENDBRANCH  16  17
ENDBRANCH   1  16
TORSDOF 6
ENDMDL
MODEL 6
REMARK VINA RESULT:    -7.634      3.391      7.110
REMARK INTER + INTRA:         -11.418
REMARK INTER:                 -10.270
REMARK INTRA:                  -1.148
REMARK UNBOUND:                -1.107
REMARK  Name = 
REMARK  6 active torsions:
REMARK  status: ('A' for Active; 'I' for Inactive)
REMARK    1  A    between atoms: C_2  and  C_4
REMARK    2  A    between atoms: C_7  and  N_8
REMARK    3  A    between atoms: N_8  and  C_9
REMARK    4  A    between atoms: C_9  and  C_10
REMARK    5  A    between atoms: C_10  and  C_13
REMARK    6  A    between atoms: C_17  and  C_18
REMARK                            x       y       z     vdW  Elec       q    Type
REMARK                         _______ _______ _______ _____ _____    ______ ____
ROOT
ATOM      1  C   UNL     1      45.632   7.667  11.978  0.00  0.00    +0.000 C 
ATOM      2  F   UNL     1      45.202   8.033  13.221  0.00  0.00    +0.000 F 
ATOM      3  F   UNL     1      45.441   8.769  11.189  0.00  0.00    +0.000 F 
ENDROOT
BRANCH   1   4
ATOM      4  C   UNL     1      44.894   6.448  11.459  0.00  0.00    +0.000 A 
ATOM      5  C   UNL     1      43.543   6.248  11.762  0.00  0.00    +0.000 A 
ATOM      6  C   UNL     1      42.861   5.164  11.219  0.00  0.00    +0.000 A 
ATOM      7  C   UNL     1      43.518   4.282  10.356  0.00  0.00    +0.000 A 
ATOM      8  C   UNL     1      44.868   4.461  10.008  0.00  0.00    +0.000 A 
ATOM      9  C   UNL     1      45.544   5.546  10.596  0.00  0.00    +0.000 A 
BRANCH   8  10
ATOM     10  C   UNL     1      45.538   3.581   9.027  0.00  0.00    +0.000 A 
ATOM     11  C   UNL     1      46.188   4.073   7.887  0.00  0.00    +0.000 A 
ATOM     12  C   UNL     1      46.770   3.200   6.965  0.00  0.00    +0.000 A 
ATOM     13  C   UNL     1      46.699   1.839   7.212  0.00  0.00    +0.000 A 
ATOM     14  N   UNL     1      46.091   1.313   8.288  0.00  0.00    +0.000 NA
ATOM     15  C   UNL     1      45.528   2.187   9.157  0.00  0.00    +0.000 A 
ENDBRANCH   8  10
ENDBRANCH   1   4
BRANCH   1  16
ATOM     16  C   UNL     1      47.151   7.364  12.030  0.00  0.00    +0.000 C 
BRANCH  16  17
ATOM     17  N   UNL     1      47.727   7.476  13.379  0.00  0.00    +0.000 N 
ATOM     18  H   UNL     1      48.512   8.121  13.453  0.00  0.00    +0.000 HD
BRANCH  17  22
ATOM     19  C   UNL     1      47.875   4.262  16.102  0.00  0.00    +0.000 A 
ATOM     20  C   UNL     1      47.163   4.119  14.910  0.00  0.00    +0.000 A 
ATOM     21  C   UNL     1      47.125   5.169  13.987  0.00  0.00    +0.000 A 
ATOM     22  C   UNL     1      47.814   6.368  14.214  0.00  0.00    +0.000 A 
ATOM     23  C   UNL     1      48.512   6.498  15.423  0.00  0.00    +0.000 A 
ATOM     24  C   UNL     1      48.541   5.460  16.363  0.00  0.00    +0.000 A 
BRANCH  19  26
ATOM     25  N   UNL     1      46.711   2.843  17.701  0.00  0.00    +0.000 N 
ATOM     26  C   UNL     1      47.902   3.185  17.123  0.00  0.00    +0.000 C 
ATOM     27  O   UNL     1      48.938   2.600  17.416  0.00  0.00    +0.000 OA
ATOM     28  H   UNL     1      46.729   2.043  18.320  0.00  0.00    +0.000 HD
ATOM     29  H   UNL     1      45.822   3.116  17.310  0.00  0.00    +0.000 HD
ENDBRANCH  19  26
ENDBRANCH  17  22
ENDBRANCH  16  17
ENDBRANCH   1  16
TORSDOF 6
ENDMDL
MODEL 7
REMARK VINA RESULT:    -7.532      2.829      6.778
REMARK INTER + INTRA:         -11.281
REMARK INTER:                 -10.433
REMARK INTRA:                  -0.848
REMARK UNBOUND:                -1.107
REMARK  Name = 
REMARK  6 active torsions:
REMARK  status: ('A' for Active; 'I' for Inactive)
REMARK    1  A    between atoms: C_2  and  C_4
REMARK    2  A    between atoms: C_7  and  N_8
REMARK    3  A    between atoms: N_8  and  C_9
REMARK    4  A    between atoms: C_9  and  C_10
REMARK    5  A    between atoms: C_10  and  C_13
REMARK    6  A    between atoms: C_17  and  C_18
REMARK                            x       y       z     vdW  Elec       q    Type
REMARK                         _______ _______ _______ _____ _____    ______ ____
ROOT
ATOM      1  C   UNL     1      44.069   6.180  11.384  0.00  0.00    +0.000 C 
ATOM      2  F   UNL     1      42.794   6.655  11.273  0.00  0.00    +0.000 F 
ATOM      3  F   UNL     1      44.834   7.011  10.611  0.00  0.00    +0.000 F 
ENDROOT
BRANCH   1   4
ATOM      4  C   UNL     1      44.174   4.730  10.955  0.00  0.00    +0.000 A 
ATOM      5  C   UNL     1      43.380   3.747  11.556  0.00  0.00    +0.000 A 
ATOM      6  C   UNL     1      43.434   2.434  11.101  0.00  0.00    +0.000 A 
ATOM      7  C   UNL     1      44.268   2.095  10.032  0.00  0.00    +0.000 A 
ATOM      8  C   UNL     1      45.065   3.057   9.385  0.00  0.00    +0.000 A 
ATOM      9  C   UNL     1      45.015   4.371   9.885  0.00  0.00    +0.000 A 
BRANCH   8  10
ATOM     10  C   UNL     1      45.878   2.718   8.199  0.00  0.00    +0.000 A 
ATOM     11  C   UNL     1      46.089   3.614   7.142  0.00  0.00    +0.000 A 
ATOM     12  C   UNL     1      46.829   3.234   6.021  0.00  0.00    +0.000 A 
ATOM     13  C   UNL     1      47.361   1.955   5.985  0.00  0.00    +0.000 A 
ATOM     14  N   UNL     1      47.193   1.056   6.970  0.00  0.00    +0.000 NA
ATOM     15  C   UNL     1      46.460   1.454   8.039  0.00  0.00    +0.000 A 
ENDBRANCH   8  10
ENDBRANCH   1   4
BRANCH   1  16
ATOM     16  C   UNL     1      44.539   6.316  12.855  0.00  0.00    +0.000 C 
BRANCH  16  17
ATOM     17  N   UNL     1      45.324   7.533  13.111  0.00  0.00    +0.000 N 
ATOM     18  H   UNL     1      44.800   8.402  13.025  0.00  0.00    +0.000 HD
BRANCH  17  22
ATOM     19  C   UNL     1      49.385   8.006  12.087  0.00  0.00    +0.000 A 
ATOM     20  C   UNL     1      48.945   6.785  12.600  0.00  0.00    +0.000 A 
ATOM     21  C   UNL     1      47.595   6.607  12.922  0.00  0.00    +0.000 A 
ATOM     22  C   UNL     1      46.654   7.624  12.715  0.00  0.00    +0.000 A 
ATOM     23  C   UNL     1      47.117   8.848  12.213  0.00  0.00    +0.000 A 
ATOM     24  C   UNL     1      48.470   9.044  11.906  0.00  0.00    +0.000 A 
BRANCH  19  26
ATOM     25  N   UNL     1      51.452   7.312  11.004  0.00  0.00    +0.000 N 
ATOM     26  C   UNL     1      50.816   8.245  11.775  0.00  0.00    +0.000 C 
ATOM     27  O   UNL     1      51.401   9.251  12.160  0.00  0.00    +0.000 OA
ATOM     28  H   UNL     1      52.396   7.538  10.717  0.00  0.00    +0.000 HD
ATOM     29  H   UNL     1      50.950   6.620  10.468  0.00  0.00    +0.000 HD
ENDBRANCH  19  26
ENDBRANCH  17  22
ENDBRANCH  16  17
ENDBRANCH   1  16
TORSDOF 6
ENDMDL
MODEL 8
REMARK VINA RESULT:    -7.059      4.181      7.643
REMARK INTER + INTRA:         -10.642
REMARK INTER:                  -9.482
REMARK INTRA:                  -1.160
REMARK UNBOUND:                -1.107
REMARK  Name = 
REMARK  6 active torsions:
REMARK  status: ('A' for Active; 'I' for Inactive)
REMARK    1  A    between atoms: C_2  and  C_4
REMARK    2  A    between atoms: C_7  and  N_8
REMARK    3  A    between atoms: N_8  and  C_9
REMARK    4  A    between atoms: C_9  and  C_10
REMARK    5  A    between atoms: C_10  and  C_13
REMARK    6  A    between atoms: C_17  and  C_18
REMARK                            x       y       z     vdW  Elec       q    Type
REMARK                         _______ _______ _______ _____ _____    ______ ____
ROOT
ATOM      1  C   UNL     1      48.751   8.107  12.277  0.00  0.00    +0.000 C 
ATOM      2  F   UNL     1      49.145   9.123  11.454  0.00  0.00    +0.000 F 
ATOM      3  F   UNL     1      49.588   7.063  11.989  0.00  0.00    +0.000 F 
ENDROOT
BRANCH   1   4
ATOM      4  C   UNL     1      47.291   7.751  12.078  0.00  0.00    +0.000 A 
ATOM      5  C   UNL     1      46.280   8.636  12.468  0.00  0.00    +0.000 A 
ATOM      6  C   UNL     1      44.948   8.327  12.213  0.00  0.00    +0.000 A 
ATOM      7  C   UNL     1      44.616   7.141  11.551  0.00  0.00    +0.000 A 
ATOM      8  C   UNL     1      45.603   6.236  11.122  0.00  0.00    +0.000 A 
ATOM      9  C   UNL     1      46.941   6.556  11.421  0.00  0.00    +0.000 A 
BRANCH   8  10
ATOM     10  C   UNL     1      45.260   5.026  10.345  0.00  0.00    +0.000 A 
ATOM     11  C   UNL     1      45.621   4.861   9.001  0.00  0.00    +0.000 A 
ATOM     12  C   UNL     1      45.236   3.720   8.294  0.00  0.00    +0.000 A 
ATOM     13  C   UNL     1      44.502   2.751   8.958  0.00  0.00    +0.000 A 
ATOM     14  N   UNL     1      44.131   2.855  10.244  0.00  0.00    +0.000 NA
ATOM     15  C   UNL     1      44.511   3.981  10.898  0.00  0.00    +0.000 A 
ENDBRANCH   8  10
ENDBRANCH   1   4
BRANCH   1  16
ATOM     16  C   UNL     1      48.983   8.523  13.752  0.00  0.00    +0.000 C 
BRANCH  16  17
ATOM     17  N   UNL     1      49.847   7.593  14.496  0.00  0.00    +0.000 N 
ATOM     18  H   UNL     1      50.657   7.258  13.976  0.00  0.00    +0.000 HD
BRANCH  17  22
ATOM     19  C   UNL     1      48.234   4.590  16.975  0.00  0.00    +0.000 A 
ATOM     20  C   UNL     1      49.405   5.244  17.362  0.00  0.00    +0.000 A 
ATOM     21  C   UNL     1      49.938   6.259  16.560  0.00  0.00    +0.000 A 
ATOM     22  C   UNL     1      49.307   6.663  15.377  0.00  0.00    +0.000 A 
ATOM     23  C   UNL     1      48.140   5.985  14.996  0.00  0.00    +0.000 A 
ATOM     24  C   UNL     1      47.608   4.954  15.782  0.00  0.00    +0.000 A 
BRANCH  19  26
ATOM     25  N   UNL     1      48.306   3.156  18.941  0.00  0.00    +0.000 N 
ATOM     26  C   UNL     1      47.664   3.480  17.778  0.00  0.00    +0.000 C 
ATOM     27  O   UNL     1      46.642   2.897  17.437  0.00  0.00    +0.000 OA
ATOM     28  H   UNL     1      47.851   2.467  19.525  0.00  0.00    +0.000 HD
ATOM     29  H   UNL     1      48.984   3.767  19.373  0.00  0.00    +0.000 HD
ENDBRANCH  19  26
ENDBRANCH  17  22
ENDBRANCH  16  17
ENDBRANCH   1  16
TORSDOF 6
ENDMDL
MODEL 9
REMARK VINA RESULT:    -6.896      4.179      7.955
REMARK INTER + INTRA:         -10.422
REMARK INTER:                  -9.663
REMARK INTRA:                  -0.759
REMARK UNBOUND:                -1.107
REMARK  Name = 
REMARK  6 active torsions:
REMARK  status: ('A' for Active; 'I' for Inactive)
REMARK    1  A    between atoms: C_2  and  C_4
REMARK    2  A    between atoms: C_7  and  N_8
REMARK    3  A    between atoms: N_8  and  C_9
REMARK    4  A    between atoms: C_9  and  C_10
REMARK    5  A    between atoms: C_10  and  C_13
REMARK    6  A    between atoms: C_17  and  C_18
REMARK                            x       y       z     vdW  Elec       q    Type
REMARK                         _______ _______ _______ _____ _____    ______ ____
ROOT
ATOM      1  C   UNL     1      45.233   5.711  12.442  0.00  0.00    +0.000 C 
ATOM      2  F   UNL     1      44.256   6.107  13.309  0.00  0.00    +0.000 F 
ATOM      3  F   UNL     1      45.440   6.782  11.615  0.00  0.00    +0.000 F 
ENDROOT
BRANCH   1   4
ATOM      4  C   UNL     1      44.843   4.459  11.682  0.00  0.00    +0.000 A 
ATOM      5  C   UNL     1      43.729   3.706  12.068  0.00  0.00    +0.000 A 
ATOM      6  C   UNL     1      43.342   2.601  11.317  0.00  0.00    +0.000 A 
ATOM      7  C   UNL     1      44.051   2.251  10.165  0.00  0.00    +0.000 A 
ATOM      8  C   UNL     1      45.162   2.995   9.729  0.00  0.00    +0.000 A 
ATOM      9  C   UNL     1      45.554   4.088  10.524  0.00  0.00    +0.000 A 
BRANCH   8  10
ATOM     10  C   UNL     1      45.859   2.678   8.464  0.00  0.00    +0.000 A 
ATOM     11  C   UNL     1      46.064   3.627   7.454  0.00  0.00    +0.000 A 
ATOM     12  C   UNL     1      46.688   3.271   6.257  0.00  0.00    +0.000 A 
ATOM     13  C   UNL     1      47.111   1.961   6.099  0.00  0.00    +0.000 A 
ATOM     14  N   UNL     1      46.943   1.012   7.034  0.00  0.00    +0.000 NA
ATOM     15  C   UNL     1      46.323   1.389   8.180  0.00  0.00    +0.000 A 
ENDBRANCH   8  10
ENDBRANCH   1   4
BRANCH   1  16
ATOM     16  C   UNL     1      46.541   5.447  13.231  0.00  0.00    +0.000 C 
BRANCH  16  17
ATOM     17  N   UNL     1      46.397   4.431  14.285  0.00  0.00    +0.000 N 
ATOM     18  H   UNL     1      45.436   4.157  14.482  0.00  0.00    +0.000 HD
BRANCH  17  22
ATOM     19  C   UNL     1      48.816   4.654  17.730  0.00  0.00    +0.000 A 
ATOM     20  C   UNL     1      47.964   3.562  17.559  0.00  0.00    +0.000 A 
ATOM     21  C   UNL     1      47.173   3.464  16.409  0.00  0.00    +0.000 A 
ATOM     22  C   UNL     1      47.233   4.429  15.396  0.00  0.00    +0.000 A 
ATOM     23  C   UNL     1      48.084   5.527  15.592  0.00  0.00    +0.000 A 
ATOM     24  C   UNL     1      48.866   5.645  16.748  0.00  0.00    +0.000 A 
BRANCH  19  26
ATOM     25  N   UNL     1      50.925   5.243  18.794  0.00  0.00    +0.000 N 
ATOM     26  C   UNL     1      49.637   4.813  18.956  0.00  0.00    +0.000 C 
ATOM     27  O   UNL     1      49.177   4.602  20.071  0.00  0.00    +0.000 OA
ATOM     28  H   UNL     1      51.439   5.442  19.642  0.00  0.00    +0.000 HD
ATOM     29  H   UNL     1      51.251   5.663  17.936  0.00  0.00    +0.000 HD
ENDBRANCH  19  26
ENDBRANCH  17  22
ENDBRANCH  16  17
ENDBRANCH   1  16
TORSDOF 6
ENDMDL
