MODEL 1
REMARK VINA RESULT:    -7.570      0.000      0.000
REMARK INTER + INTRA:          -9.786
REMARK INTER:                  -9.340
REMARK INTRA:                  -0.446
REMARK UNBOUND:                -0.446
REMARK  Name = 
REMARK  4 active torsions:
REMARK  status: ('A' for Active; 'I' for Inactive)
REMARK    1  A    between atoms: C_2  and  C_4
REMARK    2  A    between atoms: C_7  and  C_8
REMARK    3  A    between atoms: C_8  and  N_9
REMARK    4  A    between atoms: N_9  and  C_10
REMARK                            x       y       z     vdW  Elec       q    Type
REMARK                         _______ _______ _______ _____ _____    ______ ____
ROOT
ATOM      1  C   UNL     1      46.396   2.446   7.726  0.00  0.00    +0.000 A 
ATOM      2  C   UNL     1      45.617   1.777   8.672  0.00  0.00    +0.000 A 
ATOM      3  C   UNL     1      44.729   2.508   9.466  0.00  0.00    +0.000 A 
ATOM      4  C   UNL     1      44.646   3.891   9.298  0.00  0.00    +0.000 A 
ATOM      5  N   UNL     1      45.405   4.550   8.384  0.00  0.00    +0.000 NA
ATOM      6  C   UNL     1      46.259   3.821   7.625  0.00  0.00    +0.000 A 
ENDROOT
BRANCH   1   8
ATOM      7  N   UNL     1      48.460   2.493   6.447  0.00  0.00    +0.000 N 
ATOM      8  C   UNL     1      47.381   1.764   6.862  0.00  0.00    +0.000 C 
ATOM      9  O   UNL     1      47.253   0.588   6.552  0.00  0.00    +0.000 OA
ATOM     10  H   UNL     1      49.177   1.981   5.947  0.00  0.00    +0.000 HD
ATOM     11  H   UNL     1      48.727   3.363   6.881  0.00  0.00    +0.000 HD
ENDBRANCH   1   8
BRANCH   4  12
ATOM     12  C   UNL     1      43.739   4.725  10.190  0.00  0.00    +0.000 C 
BRANCH  12  13
ATOM     13  N   UNL     1      43.601   4.158  11.533  0.00  0.00    +0.000 NA
ATOM     14  H   UNL     1      43.708   3.148  11.483  0.00  0.00    +0.000 HD
BRANCH  13  15
ATOM     15  C   UNL     1      44.511   4.722  12.535  0.00  0.00    +0.000 C 
ATOM     16  C   UNL     1      45.029   6.064  11.985  0.00  0.00    +0.000 C 
ATOM     17  C   UNL     1      46.041   6.720  12.923  0.00  0.00    +0.000 C 
ATOM     18  C   UNL     1      47.200   5.783  13.240  0.00  0.00    +0.000 C 
ATOM     19  C   UNL     1      46.700   4.460  13.805  0.00  0.00    +0.000 C 
ATOM     20  C   UNL     1      45.693   3.793  12.869  0.00  0.00    +0.000 C 
ENDBRANCH  13  15
ENDBRANCH  12  13
ENDBRANCH   4  12
TORSDOF 4
ENDMDL
MODEL 2
REMARK VINA RESULT:    -7.240      2.870      6.012
REMARK INTER + INTRA:          -9.379
REMARK INTER:                  -9.060
REMARK INTRA:                  -0.319
REMARK UNBOUND:                -0.446
REMARK  Name = 
REMARK  4 active torsions:
REMARK  status: ('A' for Active; 'I' for Inactive)
REMARK    1  A    between atoms: C_2  and  C_4
REMARK    2  A    between atoms: C_7  and  C_8
REMARK    3  A    between atoms: C_8  and  N_9
REMARK    4  A    between atoms: N_9  and  C_10
REMARK                            x       y       z     vdW  Elec       q    Type
REMARK                         _______ _______ _______ _____ _____    ______ ____
ROOT
ATOM      1  C   UNL     1      46.453   5.543  12.681  0.00  0.00    +0.000 A 
ATOM      2  C   UNL     1      46.096   6.098  11.450  0.00  0.00    +0.000 A 
ATOM      3  C   UNL     1      45.275   5.370  10.585  0.00  0.00    +0.000 A 
ATOM      4  C   UNL     1      44.836   4.103  10.969  0.00  0.00    +0.000 A 
ATOM      5  N   UNL     1      45.183   3.553  12.162  0.00  0.00    +0.000 NA
ATOM      6  C   UNL     1      45.979   4.277  12.985  0.00  0.00    +0.000 A 
ENDROOT
BRANCH   1   8
ATOM      7  N   UNL     1      47.065   7.533  13.930  0.00  0.00    +0.000 N 
ATOM      8  C   UNL     1      47.337   6.224  13.648  0.00  0.00    +0.000 C 
ATOM      9  O   UNL     1      48.258   5.636  14.197  0.00  0.00    +0.000 OA
ATOM     10  H   UNL     1      47.611   7.951  14.673  0.00  0.00    +0.000 HD
ATOM     11  H   UNL     1      46.182   7.966  13.701  0.00  0.00    +0.000 HD
ENDBRANCH   1   8
BRANCH   4  12
ATOM     12  C   UNL     1      43.996   3.256  10.024  0.00  0.00    +0.000 C 
BRANCH  12  13
ATOM     13  N   UNL     1      44.705   2.060   9.565  0.00  0.00    +0.000 NA
ATOM     14  H   UNL     1      44.048   1.435   9.106  0.00  0.00    +0.000 HD
BRANCH  13  15
ATOM     15  C   UNL     1      45.855   2.324   8.694  0.00  0.00    +0.000 C 
ATOM     16  C   UNL     1      45.401   3.333   7.623  0.00  0.00    +0.000 C 
ATOM     17  C   UNL     1      46.506   3.641   6.614  0.00  0.00    +0.000 C 
ATOM     18  C   UNL     1      47.041   2.370   5.966  0.00  0.00    +0.000 C 
ATOM     19  C   UNL     1      47.512   1.372   7.015  0.00  0.00    +0.000 C 
ATOM     20  C   UNL     1      46.410   1.053   8.024  0.00  0.00    +0.000 C 
ENDBRANCH  13  15
ENDBRANCH  12  13
ENDBRANCH   4  12
TORSDOF 4
ENDMDL
MODEL 3
REMARK VINA RESULT:    -7.073      1.041      1.926
REMARK INTER + INTRA:          -9.173
REMARK INTER:                  -8.885
REMARK INTRA:                  -0.287
REMARK UNBOUND:                -0.446
REMARK  Name = 
REMARK  4 active torsions:
REMARK  status: ('A' for Active; 'I' for Inactive)
REMARK    1  A    between atoms: C_2  and  C_4
REMARK    2  A    between atoms: C_7  and  C_8
REMARK    3  A    between atoms: C_8  and  N_9
REMARK    4  A    between atoms: N_9  and  C_10
REMARK                            x       y       z     vdW  Elec       q    Type
REMARK                         _______ _______ _______ _____ _____    ______ ____
ROOT
ATOM      1  C   UNL     1      46.421   2.480   7.714  0.00  0.00    +0.000 A 
ATOM      2  C   UNL     1      45.625   1.794   8.633  0.00  0.00    +0.000 A 
ATOM      3  C   UNL     1      44.745   2.513   9.445  0.00  0.00    +0.000 A 
ATOM      4  C   UNL     1      44.686   3.902   9.322  0.00  0.00    +0.000 A 
ATOM      5  N   UNL     1      45.461   4.577   8.434  0.00  0.00    +0.000 NA
ATOM      6  C   UNL     1      46.307   3.859   7.657  0.00  0.00    +0.000 A 
ENDROOT
BRANCH   1   8
ATOM      7  N   UNL     1      48.474   2.545   6.419  0.00  0.00    +0.000 N 
ATOM      8  C   UNL     1      47.400   1.809   6.834  0.00  0.00    +0.000 C 
ATOM      9  O   UNL     1      47.272   0.637   6.511  0.00  0.00    +0.000 OA
ATOM     10  H   UNL     1      49.188   2.040   5.907  0.00  0.00    +0.000 HD
ATOM     11  H   UNL     1      48.743   3.411   6.861  0.00  0.00    +0.000 HD
ENDBRANCH   1   8
BRANCH   4  12
ATOM     12  C   UNL     1      43.787   4.722  10.236  0.00  0.00    +0.000 C 
BRANCH  12  13
ATOM     13  N   UNL     1      44.413   5.004  11.529  0.00  0.00    +0.000 NA
ATOM     14  H   UNL     1      45.009   4.223  11.791  0.00  0.00    +0.000 HD
BRANCH  13  15
ATOM     15  C   UNL     1      45.163   6.263  11.587  0.00  0.00    +0.000 C 
ATOM     16  C   UNL     1      45.930   6.281  12.923  0.00  0.00    +0.000 C 
ATOM     17  C   UNL     1      46.706   7.581  13.125  0.00  0.00    +0.000 C 
ATOM     18  C   UNL     1      45.798   8.799  13.007  0.00  0.00    +0.000 C 
ATOM     19  C   UNL     1      45.050   8.802  11.681  0.00  0.00    +0.000 C 
ATOM     20  C   UNL     1      44.265   7.508  11.474  0.00  0.00    +0.000 C 
ENDBRANCH  13  15
ENDBRANCH  12  13
ENDBRANCH   4  12
TORSDOF 4
ENDMDL
MODEL 4
REMARK VINA RESULT:    -6.889      3.206      6.362
REMARK INTER + INTRA:          -8.946
REMARK INTER:                  -8.552
REMARK INTRA:                  -0.394
REMARK UNBOUND:                -0.446
REMARK  Name = 
REMARK  4 active torsions:
REMARK  status: ('A' for Active; 'I' for Inactive)
REMARK    1  A    between atoms: C_2  and  C_4
REMARK    2  A    between atoms: C_7  and  C_8
REMARK    3  A    between atoms: C_8  and  N_9
REMARK    4  A    between atoms: N_9  and  C_10
REMARK                            x       y       z     vdW  Elec       q    Type
REMARK                         _______ _______ _______ _____ _____    ______ ____
ROOT
ATOM      1  C   UNL     1      45.452   7.035  12.366  0.00  0.00    +0.000 A 
ATOM      2  C   UNL     1      44.516   6.170  12.936  0.00  0.00    +0.000 A 
ATOM      3  C   UNL     1      44.188   4.985  12.273  0.00  0.00    +0.000 A 
ATOM      4  C   UNL     1      44.801   4.696  11.052  0.00  0.00    +0.000 A 
ATOM      5  N   UNL     1      45.708   5.535  10.488  0.00  0.00    +0.000 NA
ATOM      6  C   UNL     1      46.011   6.679  11.149  0.00  0.00    +0.000 A 
ENDROOT
BRANCH   1   8
ATOM      7  N   UNL     1      44.995   9.380  12.799  0.00  0.00    +0.000 N 
ATOM      8  C   UNL     1      45.840   8.321  12.979  0.00  0.00    +0.000 C 
ATOM      9  O   UNL     1      46.861   8.431  13.643  0.00  0.00    +0.000 OA
ATOM     10  H   UNL     1      45.221  10.222  13.315  0.00  0.00    +0.000 HD
ATOM     11  H   UNL     1      44.042   9.268  12.487  0.00  0.00    +0.000 HD
ENDBRANCH   1   8
BRANCH   4  12
ATOM     12  C   UNL     1      44.419   3.448  10.271  0.00  0.00    +0.000 C 
BRANCH  12  13
ATOM     13  N   UNL     1      44.161   3.730   8.858  0.00  0.00    +0.000 NA
ATOM     14  H   UNL     1      44.287   4.725   8.686  0.00  0.00    +0.000 HD
BRANCH  13  15
ATOM     15  C   UNL     1      44.962   2.942   7.916  0.00  0.00    +0.000 C 
ATOM     16  C   UNL     1      45.613   1.796   8.713  0.00  0.00    +0.000 C 
ATOM     17  C   UNL     1      46.529   0.936   7.843  0.00  0.00    +0.000 C 
ATOM     18  C   UNL     1      47.589   1.777   7.143  0.00  0.00    +0.000 C 
ATOM     19  C   UNL     1      46.955   2.902   6.336  0.00  0.00    +0.000 C 
ATOM     20  C   UNL     1      46.044   3.772   7.201  0.00  0.00    +0.000 C 
ENDBRANCH  13  15
ENDBRANCH  12  13
ENDBRANCH   4  12
TORSDOF 4
ENDMDL
MODEL 5
REMARK VINA RESULT:    -6.046      1.493      2.333
REMARK INTER + INTRA:          -7.906
REMARK INTER:                  -7.696
REMARK INTRA:                  -0.210
REMARK UNBOUND:                -0.446
REMARK  Name = 
REMARK  4 active torsions:
REMARK  status: ('A' for Active; 'I' for Inactive)
REMARK    1  A    between atoms: C_2  and  C_4
REMARK    2  A    between atoms: C_7  and  C_8
REMARK    3  A    between atoms: C_8  and  N_9
REMARK    4  A    between atoms: N_9  and  C_10
REMARK                            x       y       z     vdW  Elec       q    Type
REMARK                         _______ _______ _______ _____ _____    ______ ____
ROOT
ATOM      1  C   UNL     1      44.981   2.865   9.275  0.00  0.00    +0.000 A 
ATOM      2  C   UNL     1      44.753   2.384  10.566  0.00  0.00    +0.000 A 
ATOM      3  C   UNL     1      43.982   3.142  11.451  0.00  0.00    +0.000 A 
ATOM      4  C   UNL     1      43.463   4.365  11.026  0.00  0.00    +0.000 A 
ATOM      5  N   UNL     1      43.686   4.843   9.774  0.00  0.00    +0.000 NA
ATOM      6  C   UNL     1      44.436   4.091   8.932  0.00  0.00    +0.000 A 
ENDROOT
BRANCH   1   8
ATOM      7  N   UNL     1      46.330   2.885   7.256  0.00  0.00    +0.000 N 
ATOM      8  C   UNL     1      45.804   2.148   8.280  0.00  0.00    +0.000 C 
ATOM      9  O   UNL     1      46.031   0.951   8.381  0.00  0.00    +0.000 OA
ATOM     10  H   UNL     1      46.978   2.401   6.647  0.00  0.00    +0.000 HD
ATOM     11  H   UNL     1      46.379   3.893   7.282  0.00  0.00    +0.000 HD
ENDBRANCH   1   8
BRANCH   4  12
ATOM     12  C   UNL     1      42.676   5.247  11.984  0.00  0.00    +0.000 C 
BRANCH  12  13
ATOM     13  N   UNL     1      43.516   5.812  13.042  0.00  0.00    +0.000 NA
ATOM     14  H   UNL     1      43.497   5.196  13.851  0.00  0.00    +0.000 HD
BRANCH  13  15
ATOM     15  C   UNL     1      44.900   6.093  12.644  0.00  0.00    +0.000 C 
ATOM     16  C   UNL     1      45.822   5.343  13.624  0.00  0.00    +0.000 C 
ATOM     17  C   UNL     1      47.300   5.611  13.345  0.00  0.00    +0.000 C 
ATOM     18  C   UNL     1      47.608   7.103  13.347  0.00  0.00    +0.000 C 
ATOM     19  C   UNL     1      46.716   7.852  12.367  0.00  0.00    +0.000 C 
ATOM     20  C   UNL     1      45.235   7.595  12.643  0.00  0.00    +0.000 C 
ENDBRANCH  13  15
ENDBRANCH  12  13
ENDBRANCH   4  12
TORSDOF 4
ENDMDL
MODEL 6
REMARK VINA RESULT:    -5.854      3.645      5.638
REMARK INTER + INTRA:          -7.669
REMARK INTER:                  -7.331
REMARK INTRA:                  -0.339
REMARK UNBOUND:                -0.446
REMARK  Name = 
REMARK  4 active torsions:
REMARK  status: ('A' for Active; 'I' for Inactive)
REMARK    1  A    between atoms: C_2  and  C_4
REMARK    2  A    between atoms: C_7  and  C_8
REMARK    3  A    between atoms: C_8  and  N_9
REMARK    4  A    between atoms: N_9  and  C_10
REMARK                            x       y       z     vdW  Elec       q    Type
REMARK                         _______ _______ _______ _____ _____    ______ ____
ROOT
ATOM      1  C   UNL     1      44.980   4.207  11.668  0.00  0.00    +0.000 A 
ATOM      2  C   UNL     1      45.190   5.531  12.058  0.00  0.00    +0.000 A 
ATOM      3  C   UNL     1      45.989   5.797  13.173  0.00  0.00    +0.000 A 
ATOM      4  C   UNL     1      46.553   4.731  13.875  0.00  0.00    +0.000 A 
ATOM      5  N   UNL     1      46.348   3.439  13.506  0.00  0.00    +0.000 NA
ATOM      6  C   UNL     1      45.571   3.206  12.421  0.00  0.00    +0.000 A 
ENDROOT
BRANCH   1   8
ATOM      7  N   UNL     1      43.821   4.809   9.621  0.00  0.00    +0.000 N 
ATOM      8  C   UNL     1      44.130   3.828  10.521  0.00  0.00    +0.000 C 
ATOM      9  O   UNL     1      43.741   2.680  10.365  0.00  0.00    +0.000 OA
ATOM     10  H   UNL     1      43.331   4.509   8.787  0.00  0.00    +0.000 HD
ATOM     11  H   UNL     1      44.323   5.683   9.576  0.00  0.00    +0.000 HD
ENDBRANCH   1   8
BRANCH   4  12
ATOM     12  C   UNL     1      47.373   4.980  15.133  0.00  0.00    +0.000 C 
BRANCH  12  13
ATOM     13  N   UNL     1      46.905   4.186  16.271  0.00  0.00    +0.000 NA
ATOM     14  H   UNL     1      46.252   3.479  15.941  0.00  0.00    +0.000 HD
BRANCH  13  15
ATOM     15  C   UNL     1      47.970   3.567  17.067  0.00  0.00    +0.000 C 
ATOM     16  C   UNL     1      48.949   4.683  17.476  0.00  0.00    +0.000 C 
ATOM     17  C   UNL     1      50.141   4.145  18.264  0.00  0.00    +0.000 C 
ATOM     18  C   UNL     1      50.866   3.045  17.500  0.00  0.00    +0.000 C 
ATOM     19  C   UNL     1      49.912   1.925  17.108  0.00  0.00    +0.000 C 
ATOM     20  C   UNL     1      48.720   2.453  16.313  0.00  0.00    +0.000 C 
ENDBRANCH  13  15
ENDBRANCH  12  13
ENDBRANCH   4  12
TORSDOF 4
ENDMDL
MODEL 7
REMARK VINA RESULT:    -5.535      3.299      4.945
REMARK INTER + INTRA:          -7.275
REMARK INTER:                  -6.762
REMARK INTRA:                  -0.513
REMARK UNBOUND:                -0.446
REMARK  Name = 
REMARK  4 active torsions:
REMARK  status: ('A' for Active; 'I' for Inactive)
REMARK    1  A    between atoms: C_2  and  C_4
REMARK    2  A    between atoms: C_7  and  C_8
REMARK    3  A    between atoms: C_8  and  N_9
REMARK    4  A    between atoms: N_9  and  C_10
REMARK                            x       y       z     vdW  Elec       q    Type
REMARK                         _______ _______ _______ _____ _____    ______ ____
ROOT
ATOM      1  C   UNL     1      44.380   4.235  11.415  0.00  0.00    +0.000 A 
ATOM      2  C   UNL     1      45.159   5.039  10.580  0.00  0.00    +0.000 A 
ATOM      3  C   UNL     1      45.558   6.302  11.026  0.00  0.00    +0.000 A 
ATOM      4  C   UNL     1      45.162   6.732  12.293  0.00  0.00    +0.000 A 
ATOM      5  N   UNL     1      44.400   5.958  13.109  0.00  0.00    +0.000 NA
ATOM      6  C   UNL     1      44.025   4.737  12.656  0.00  0.00    +0.000 A 
ENDROOT
BRANCH   1   8
ATOM      7  N   UNL     1      44.545   2.268  10.001  0.00  0.00    +0.000 N 
ATOM      8  C   UNL     1      43.890   2.899  11.020  0.00  0.00    +0.000 C 
ATOM      9  O   UNL     1      42.953   2.366  11.598  0.00  0.00    +0.000 OA
ATOM     10  H   UNL     1      44.266   1.312   9.817  0.00  0.00    +0.000 HD
ATOM     11  H   UNL     1      45.459   2.555   9.682  0.00  0.00    +0.000 HD
ENDBRANCH   1   8
BRANCH   4  12
ATOM     12  C   UNL     1      45.522   8.127  12.784  0.00  0.00    +0.000 C 
BRANCH  12  13
ATOM     13  N   UNL     1      46.534   8.104  13.842  0.00  0.00    +0.000 NA
ATOM     14  H   UNL     1      46.561   7.176  14.260  0.00  0.00    +0.000 HD
BRANCH  13  15
ATOM     15  C   UNL     1      47.876   8.515  13.419  0.00  0.00    +0.000 C 
ATOM     16  C   UNL     1      47.712   9.424  12.186  0.00  0.00    +0.000 C 
ATOM     17  C   UNL     1      49.057   9.869  11.615  0.00  0.00    +0.000 C 
ATOM     18  C   UNL     1      49.949   8.677  11.291  0.00  0.00    +0.000 C 
ATOM     19  C   UNL     1      50.135   7.781  12.508  0.00  0.00    +0.000 C 
ATOM     20  C   UNL     1      48.794   7.326  13.082  0.00  0.00    +0.000 C 
ENDBRANCH  13  15
ENDBRANCH  12  13
ENDBRANCH   4  12
TORSDOF 4
ENDMDL
MODEL 8
REMARK VINA RESULT:    -5.432      5.276      8.167
REMARK INTER + INTRA:          -7.148
REMARK INTER:                  -6.887
REMARK INTRA:                  -0.261
REMARK UNBOUND:                -0.446
REMARK  Name = 
REMARK  4 active torsions:
REMARK  status: ('A' for Active; 'I' for Inactive)
REMARK    1  A    between atoms: C_2  and  C_4
REMARK    2  A    between atoms: C_7  and  C_8
REMARK    3  A    between atoms: C_8  and  N_9
REMARK    4  A    between atoms: N_9  and  C_10
REMARK                            x       y       z     vdW  Elec       q    Type
REMARK                         _______ _______ _______ _____ _____    ______ ____
ROOT
ATOM      1  C   UNL     1      48.713   4.491  18.040  0.00  0.00    +0.000 A 
ATOM      2  C   UNL     1      47.686   3.648  17.612  0.00  0.00    +0.000 A 
ATOM      3  C   UNL     1      47.152   3.817  16.332  0.00  0.00    +0.000 A 
ATOM      4  C   UNL     1      47.654   4.829  15.513  0.00  0.00    +0.000 A 
ATOM      5  N   UNL     1      48.650   5.657  15.924  0.00  0.00    +0.000 NA
ATOM      6  C   UNL     1      49.153   5.475  17.169  0.00  0.00    +0.000 A 
ENDROOT
BRANCH   1   8
ATOM      7  N   UNL     1      48.555   3.877  20.384  0.00  0.00    +0.000 N 
ATOM      8  C   UNL     1      49.321   4.406  19.383  0.00  0.00    +0.000 C 
ATOM      9  O   UNL     1      50.470   4.768  19.589  0.00  0.00    +0.000 OA
ATOM     10  H   UNL     1      49.022   3.726  21.270  0.00  0.00    +0.000 HD
ATOM     11  H   UNL     1      47.718   3.343  20.202  0.00  0.00    +0.000 HD
ENDBRANCH   1   8
BRANCH   4  12
ATOM     12  C   UNL     1      47.052   5.084  14.139  0.00  0.00    +0.000 C 
BRANCH  12  13
ATOM     13  N   UNL     1      45.802   4.349  13.932  0.00  0.00    +0.000 NA
ATOM     14  H   UNL     1      45.031   4.878  14.333  0.00  0.00    +0.000 HD
BRANCH  13  15
ATOM     15  C   UNL     1      45.516   4.005  12.536  0.00  0.00    +0.000 C 
ATOM     16  C   UNL     1      45.585   5.307  11.716  0.00  0.00    +0.000 C 
ATOM     17  C   UNL     1      45.241   5.082  10.245  0.00  0.00    +0.000 C 
ATOM     18  C   UNL     1      43.881   4.414  10.084  0.00  0.00    +0.000 C 
ATOM     19  C   UNL     1      43.808   3.115  10.874  0.00  0.00    +0.000 C 
ATOM     20  C   UNL     1      44.144   3.332  12.348  0.00  0.00    +0.000 C 
ENDBRANCH  13  15
ENDBRANCH  12  13
ENDBRANCH   4  12
TORSDOF 4
ENDMDL
MODEL 9
REMARK VINA RESULT:    -5.250      5.956      8.351
REMARK INTER + INTRA:          -6.923
REMARK INTER:                  -6.691
REMARK INTRA:                  -0.232
REMARK UNBOUND:                -0.446
REMARK  Name = 
REMARK  4 active torsions:
REMARK  status: ('A' for Active; 'I' for Inactive)
REMARK    1  A    between atoms: C_2  and  C_4
REMARK    2  A    between atoms: C_7  and  C_8
REMARK    3  A    between atoms: C_8  and  N_9
REMARK    4  A    between atoms: N_9  and  C_10
REMARK                            x       y       z     vdW  Elec       q    Type
REMARK                         _______ _______ _______ _____ _____    ______ ____
ROOT
ATOM      1  C   UNL     1      51.051   3.300  17.702  0.00  0.00    +0.000 A 
ATOM      2  C   UNL     1      50.209   2.233  17.381  0.00  0.00    +0.000 A 
ATOM      3  C   UNL     1      48.966   2.496  16.800  0.00  0.00    +0.000 A 
ATOM      4  C   UNL     1      48.593   3.818  16.559  0.00  0.00    +0.000 A 
ATOM      5  N   UNL     1      49.404   4.862  16.874  0.00  0.00    +0.000 NA
ATOM      6  C   UNL     1      50.605   4.584  17.436  0.00  0.00    +0.000 A 
ENDROOT
BRANCH   1   8
ATOM      7  N   UNL     1      52.816   1.842  18.512  0.00  0.00    +0.000 N 
ATOM      8  C   UNL     1      52.370   3.123  18.343  0.00  0.00    +0.000 C 
ATOM      9  O   UNL     1      53.049   4.081  18.684  0.00  0.00    +0.000 OA
ATOM     10  H   UNL     1      53.765   1.743  18.852  0.00  0.00    +0.000 HD
ATOM     11  H   UNL     1      52.413   1.057  18.023  0.00  0.00    +0.000 HD
ENDBRANCH   1   8
BRANCH   4  12
ATOM     12  C   UNL     1      47.220   4.144  15.989  0.00  0.00    +0.000 C 
BRANCH  12  13
ATOM     13  N   UNL     1      47.080   3.725  14.593  0.00  0.00    +0.000 NA
ATOM     14  H   UNL     1      46.663   2.798  14.561  0.00  0.00    +0.000 HD
BRANCH  13  15
ATOM     15  C   UNL     1      46.329   4.655  13.744  0.00  0.00    +0.000 C 
ATOM     16  C   UNL     1      45.649   3.824  12.640  0.00  0.00    +0.000 C 
ATOM     17  C   UNL     1      44.881   4.698  11.651  0.00  0.00    +0.000 C 
ATOM     18  C   UNL     1      45.773   5.774  11.044  0.00  0.00    +0.000 C 
ATOM     19  C   UNL     1      46.435   6.615  12.127  0.00  0.00    +0.000 C 
ATOM     20  C   UNL     1      47.212   5.749  13.117  0.00  0.00    +0.000 C 
ENDBRANCH  13  15
ENDBRANCH  12  13
ENDBRANCH   4  12
TORSDOF 4
ENDMDL
