MODEL 1
REMARK VINA RESULT:    -7.441      0.000      0.000
REMARK INTER + INTRA:         -10.426
REMARK INTER:                  -9.615
REMARK INTRA:                  -0.810
REMARK UNBOUND:                -0.810
REMARK  Name = 
REMARK  5 active torsions:
REMARK  status: ('A' for Active; 'I' for Inactive)
REMARK    1  A    between atoms: C_2  and  C_5
REMARK    2  A    between atoms: C_7  and  C_8
REMARK    3  A    between atoms: C_8  and  N_9
REMARK    4  A    between atoms: C_14  and  C_15
REMARK    5  A    between atoms: C_21  and  C_22
REMARK                            x       y       z     vdW  Elec       q    Type
REMARK                         _______ _______ _______ _____ _____    ______ ____
ROOT
ATOM      1  C   UNL     1      45.047   4.146  11.528  0.00  0.00    +0.000 A 
ATOM      2  C   UNL     1      45.742   3.661  12.644  0.00  0.00    +0.000 A 
ATOM      3  C   UNL     1      46.346   4.543  13.548  0.00  0.00    +0.000 A 
ATOM      4  C   UNL     1      46.212   5.928  13.336  0.00  0.00    +0.000 A 
ATOM      5  C   UNL     1      45.552   6.456  12.209  0.00  0.00    +0.000 A 
ATOM      6  C   UNL     1      44.963   5.536  11.324  0.00  0.00    +0.000 A 
ENDROOT
BRANCH   5   7
ATOM      7  C   UNL     1      45.540   7.914  11.928  0.00  0.00    +0.000 A 
ATOM      8  C   UNL     1      44.425   8.526  11.339  0.00  0.00    +0.000 A 
ATOM      9  C   UNL     1      44.419   9.901  11.138  0.00  0.00    +0.000 A 
ATOM     10  N   UNL     1      45.436  10.711  11.484  0.00  0.00    +0.000 NA
ATOM     11  C   UNL     1      46.507  10.118  12.048  0.00  0.00    +0.000 A 
ATOM     12  C   UNL     1      46.607   8.753  12.278  0.00  0.00    +0.000 A 
ENDBRANCH   5   7
BRANCH   1  14
ATOM     13  F   UNL     1      45.308   2.361   9.938  0.00  0.00    +0.000 F 
ATOM     14  C   UNL     1      44.419   3.210  10.524  0.00  0.00    +0.000 C 
ATOM     15  F   UNL     1      43.811   3.876   9.503  0.00  0.00    +0.000 F 
ATOM     16  F   UNL     1      43.457   2.420  11.078  0.00  0.00    +0.000 F 
ENDBRANCH   1  14
BRANCH   3  17
ATOM     17  C   UNL     1      47.136   4.029  14.734  0.00  0.00    +0.000 C 
BRANCH  17  18
ATOM     18  N   UNL     1      47.005   4.958  15.832  0.00  0.00    +0.000 N 
ATOM     19  C   UNL     1      47.838   4.732  16.912  0.00  0.00    +0.000 A 
ATOM     20  N   UNL     1      47.329   5.052  18.105  0.00  0.00    +0.000 NA
ATOM     21  C   UNL     1      48.128   4.913  19.177  0.00  0.00    +0.000 A 
ATOM     22  C   UNL     1      49.419   4.460  19.103  0.00  0.00    +0.000 A 
ATOM     23  C   UNL     1      49.875   4.134  17.837  0.00  0.00    +0.000 A 
ATOM     24  N   UNL     1      49.079   4.257  16.738  0.00  0.00    +0.000 NA
ATOM     25  H   UNL     1      46.069   5.063  16.204  0.00  0.00    +0.000 HD
BRANCH  23  26
ATOM     26  C   UNL     1      51.300   3.633  17.658  0.00  0.00    +0.000 C 
ATOM     27  F   UNL     1      51.934   3.384  18.845  0.00  0.00    +0.000 F 
ATOM     28  F   UNL     1      51.371   2.464  16.961  0.00  0.00    +0.000 F 
ATOM     29  F   UNL     1      52.102   4.517  16.999  0.00  0.00    +0.000 F 
ENDBRANCH  23  26
ENDBRANCH  17  18
ENDBRANCH   3  17
TORSDOF 5
ENDMDL
MODEL 2
REMARK VINA RESULT:    -7.280      1.206      1.829
REMARK INTER + INTRA:         -10.218
REMARK INTER:                  -9.205
REMARK INTRA:                  -1.013
REMARK UNBOUND:                -0.810
REMARK  Name = 
REMARK  5 active torsions:
REMARK  status: ('A' for Active; 'I' for Inactive)
REMARK    1  A    between atoms: C_2  and  C_5
REMARK    2  A    between atoms: C_7  and  C_8
REMARK    3  A    between atoms: C_8  and  N_9
REMARK    4  A    between atoms: C_14  and  C_15
REMARK    5  A    between atoms: C_21  and  C_22
REMARK                            x       y       z     vdW  Elec       q    Type
REMARK                         _______ _______ _______ _____ _____    ______ ____
ROOT
ATOM      1  C   UNL     1      44.977   4.364  11.529  0.00  0.00    +0.000 A 
ATOM      2  C   UNL     1      45.654   3.708  12.567  0.00  0.00    +0.000 A 
ATOM      3  C   UNL     1      46.421   4.432  13.488  0.00  0.00    +0.000 A 
ATOM      4  C   UNL     1      46.471   5.834  13.375  0.00  0.00    +0.000 A 
ATOM      5  C   UNL     1      45.835   6.528  12.328  0.00  0.00    +0.000 A 
ATOM      6  C   UNL     1      45.079   5.764  11.422  0.00  0.00    +0.000 A 
ENDROOT
BRANCH   5   7
ATOM      7  C   UNL     1      46.013   7.990  12.144  0.00  0.00    +0.000 A 
ATOM      8  C   UNL     1      47.277   8.584  12.265  0.00  0.00    +0.000 A 
ATOM      9  C   UNL     1      47.424   9.946  12.035  0.00  0.00    +0.000 A 
ATOM     10  N   UNL     1      46.410  10.759  11.687  0.00  0.00    +0.000 NA
ATOM     11  C   UNL     1      45.196  10.185  11.574  0.00  0.00    +0.000 A 
ATOM     12  C   UNL     1      44.951   8.837  11.796  0.00  0.00    +0.000 A 
ENDBRANCH   5   7
BRANCH   1  14
ATOM     13  F   UNL     1      43.769   4.356   9.451  0.00  0.00    +0.000 F 
ATOM     14  C   UNL     1      44.174   3.598  10.506  0.00  0.00    +0.000 C 
ATOM     15  F   UNL     1      43.039   3.060  11.035  0.00  0.00    +0.000 F 
ATOM     16  F   UNL     1      44.867   2.554   9.974  0.00  0.00    +0.000 F 
ENDBRANCH   1  14
BRANCH   3  17
ATOM     17  C   UNL     1      47.191   3.730  14.588  0.00  0.00    +0.000 C 
BRANCH  17  18
ATOM     18  N   UNL     1      46.754   4.229  15.869  0.00  0.00    +0.000 N 
ATOM     19  C   UNL     1      47.756   4.643  16.727  0.00  0.00    +0.000 A 
ATOM     20  N   UNL     1      47.516   4.446  18.027  0.00  0.00    +0.000 NA
ATOM     21  C   UNL     1      48.433   4.894  18.901  0.00  0.00    +0.000 A 
ATOM     22  C   UNL     1      49.588   5.529  18.524  0.00  0.00    +0.000 A 
ATOM     23  C   UNL     1      49.778   5.685  17.162  0.00  0.00    +0.000 A 
ATOM     24  N   UNL     1      48.866   5.229  16.258  0.00  0.00    +0.000 NA
ATOM     25  H   UNL     1      46.157   3.604  16.399  0.00  0.00    +0.000 HD
BRANCH  23  26
ATOM     26  C   UNL     1      51.026   6.389  16.653  0.00  0.00    +0.000 C 
ATOM     27  F   UNL     1      51.382   7.468  17.416  0.00  0.00    +0.000 F 
ATOM     28  F   UNL     1      52.125   5.581  16.639  0.00  0.00    +0.000 F 
ATOM     29  F   UNL     1      50.893   6.871  15.386  0.00  0.00    +0.000 F 
ENDBRANCH  23  26
ENDBRANCH  17  18
ENDBRANCH   3  17
TORSDOF 5
ENDMDL
MODEL 3
REMARK VINA RESULT:    -7.177      3.636      8.087
REMARK INTER + INTRA:         -10.086
REMARK INTER:                  -9.080
REMARK INTRA:                  -1.006
REMARK UNBOUND:                -0.810
REMARK  Name = 
REMARK  5 active torsions:
REMARK  status: ('A' for Active; 'I' for Inactive)
REMARK    1  A    between atoms: C_2  and  C_5
REMARK    2  A    between atoms: C_7  and  C_8
REMARK    3  A    between atoms: C_8  and  N_9
REMARK    4  A    between atoms: C_14  and  C_15
REMARK    5  A    between atoms: C_21  and  C_22
REMARK                            x       y       z     vdW  Elec       q    Type
REMARK                         _______ _______ _______ _____ _____    ______ ____
ROOT
ATOM      1  C   UNL     1      48.554   7.450  12.406  0.00  0.00    +0.000 A 
ATOM      2  C   UNL     1      47.394   7.131  11.685  0.00  0.00    +0.000 A 
ATOM      3  C   UNL     1      46.421   6.290  12.234  0.00  0.00    +0.000 A 
ATOM      4  C   UNL     1      46.608   5.797  13.540  0.00  0.00    +0.000 A 
ATOM      5  C   UNL     1      47.773   6.065  14.285  0.00  0.00    +0.000 A 
ATOM      6  C   UNL     1      48.728   6.910  13.695  0.00  0.00    +0.000 A 
ENDROOT
BRANCH   5   7
ATOM      7  C   UNL     1      48.016   5.426  15.602  0.00  0.00    +0.000 A 
ATOM      8  C   UNL     1      47.352   4.246  15.966  0.00  0.00    +0.000 A 
ATOM      9  C   UNL     1      47.640   3.640  17.182  0.00  0.00    +0.000 A 
ATOM     10  N   UNL     1      48.542   4.115  18.059  0.00  0.00    +0.000 NA
ATOM     11  C   UNL     1      49.177   5.250  17.708  0.00  0.00    +0.000 A 
ATOM     12  C   UNL     1      48.948   5.932  16.520  0.00  0.00    +0.000 A 
ENDBRANCH   5   7
BRANCH   1  14
ATOM     13  F   UNL     1      50.417   7.690  10.906  0.00  0.00    +0.000 F 
ATOM     14  C   UNL     1      49.631   8.327  11.816  0.00  0.00    +0.000 C 
ATOM     15  F   UNL     1      50.479   8.815  12.764  0.00  0.00    +0.000 F 
ATOM     16  F   UNL     1      49.124   9.417  11.175  0.00  0.00    +0.000 F 
ENDBRANCH   1  14
BRANCH   3  17
ATOM     17  C   UNL     1      45.184   5.904  11.447  0.00  0.00    +0.000 C 
BRANCH  17  18
ATOM     18  N   UNL     1      44.874   4.517  11.696  0.00  0.00    +0.000 N 
ATOM     19  C   UNL     1      44.851   3.698  10.582  0.00  0.00    +0.000 A 
ATOM     20  N   UNL     1      43.965   2.697  10.625  0.00  0.00    +0.000 NA
ATOM     21  C   UNL     1      43.955   1.836   9.594  0.00  0.00    +0.000 A 
ATOM     22  C   UNL     1      44.794   1.938   8.515  0.00  0.00    +0.000 A 
ATOM     23  C   UNL     1      45.674   3.006   8.531  0.00  0.00    +0.000 A 
ATOM     24  N   UNL     1      45.695   3.898   9.561  0.00  0.00    +0.000 NA
ATOM     25  H   UNL     1      44.012   4.347  12.200  0.00  0.00    +0.000 HD
BRANCH  23  26
ATOM     26  C   UNL     1      46.650   3.192   7.380  0.00  0.00    +0.000 C 
ATOM     27  F   UNL     1      47.186   4.450   7.330  0.00  0.00    +0.000 F 
ATOM     28  F   UNL     1      47.720   2.348   7.446  0.00  0.00    +0.000 F 
ATOM     29  F   UNL     1      46.084   2.992   6.157  0.00  0.00    +0.000 F 
ENDBRANCH  23  26
ENDBRANCH  17  18
ENDBRANCH   3  17
TORSDOF 5
ENDMDL
MODEL 4
REMARK VINA RESULT:    -7.169      2.656      9.206
REMARK INTER + INTRA:         -10.074
REMARK INTER:                  -9.298
REMARK INTRA:                  -0.777
REMARK UNBOUND:                -0.810
REMARK  Name = 
REMARK  5 active torsions:
REMARK  status: ('A' for Active; 'I' for Inactive)
REMARK    1  A    between atoms: C_2  and  C_5
REMARK    2  A    between atoms: C_7  and  C_8
REMARK    3  A    between atoms: C_8  and  N_9
REMARK    4  A    between atoms: C_14  and  C_15
REMARK    5  A    between atoms: C_21  and  C_22
REMARK                            x       y       z     vdW  Elec       q    Type
REMARK                         _______ _______ _______ _____ _____    ______ ____
ROOT
ATOM      1  C   UNL     1      48.383   5.038  18.824  0.00  0.00    +0.000 A 
ATOM      2  C   UNL     1      47.516   4.918  17.729  0.00  0.00    +0.000 A 
ATOM      3  C   UNL     1      47.831   4.075  16.658  0.00  0.00    +0.000 A 
ATOM      4  C   UNL     1      49.017   3.320  16.715  0.00  0.00    +0.000 A 
ATOM      5  C   UNL     1      49.933   3.436  17.780  0.00  0.00    +0.000 A 
ATOM      6  C   UNL     1      49.581   4.297  18.833  0.00  0.00    +0.000 A 
ENDROOT
BRANCH   5   7
ATOM      7  C   UNL     1      51.242   2.739  17.757  0.00  0.00    +0.000 A 
ATOM      8  C   UNL     1      52.418   3.398  18.144  0.00  0.00    +0.000 A 
ATOM      9  C   UNL     1      53.622   2.705  18.165  0.00  0.00    +0.000 A 
ATOM     10  N   UNL     1      53.742   1.406  17.838  0.00  0.00    +0.000 NA
ATOM     11  C   UNL     1      52.611   0.776  17.465  0.00  0.00    +0.000 A 
ATOM     12  C   UNL     1      51.366   1.388  17.402  0.00  0.00    +0.000 A 
ENDBRANCH   5   7
BRANCH   1  14
ATOM     13  F   UNL     1      46.786   5.903  20.400  0.00  0.00    +0.000 F 
ATOM     14  C   UNL     1      48.077   5.968  19.973  0.00  0.00    +0.000 C 
ATOM     15  F   UNL     1      48.299   7.275  19.655  0.00  0.00    +0.000 F 
ATOM     16  F   UNL     1      48.847   5.716  21.068  0.00  0.00    +0.000 F 
ENDBRANCH   1  14
BRANCH   3  17
ATOM     17  C   UNL     1      46.922   3.970  15.450  0.00  0.00    +0.000 C 
BRANCH  17  18
ATOM     18  N   UNL     1      46.870   5.247  14.780  0.00  0.00    +0.000 N 
ATOM     19  C   UNL     1      46.313   5.239  13.515  0.00  0.00    +0.000 A 
ATOM     20  N   UNL     1      46.835   6.119  12.654  0.00  0.00    +0.000 NA
ATOM     21  C   UNL     1      46.278   6.193  11.432  0.00  0.00    +0.000 A 
ATOM     22  C   UNL     1      45.221   5.418  11.035  0.00  0.00    +0.000 A 
ATOM     23  C   UNL     1      44.742   4.520  11.974  0.00  0.00    +0.000 A 
ATOM     24  N   UNL     1      45.297   4.419  13.214  0.00  0.00    +0.000 NA
ATOM     25  H   UNL     1      47.755   5.735  14.706  0.00  0.00    +0.000 HD
BRANCH  23  26
ATOM     26  C   UNL     1      43.562   3.626  11.624  0.00  0.00    +0.000 C 
ATOM     27  F   UNL     1      43.308   2.677  12.576  0.00  0.00    +0.000 F 
ATOM     28  F   UNL     1      42.394   4.315  11.482  0.00  0.00    +0.000 F 
ATOM     29  F   UNL     1      43.738   2.934  10.463  0.00  0.00    +0.000 F 
ENDBRANCH  23  26
ENDBRANCH  17  18
ENDBRANCH   3  17
TORSDOF 5
ENDMDL
MODEL 5
REMARK VINA RESULT:    -6.997      3.440      7.940
REMARK INTER + INTRA:          -9.853
REMARK INTER:                  -8.892
REMARK INTRA:                  -0.962
REMARK UNBOUND:                -0.810
REMARK  Name = 
REMARK  5 active torsions:
REMARK  status: ('A' for Active; 'I' for Inactive)
REMARK    1  A    between atoms: C_2  and  C_5
REMARK    2  A    between atoms: C_7  and  C_8
REMARK    3  A    between atoms: C_8  and  N_9
REMARK    4  A    between atoms: C_14  and  C_15
REMARK    5  A    between atoms: C_21  and  C_22
REMARK                            x       y       z     vdW  Elec       q    Type
REMARK                         _______ _______ _______ _____ _____    ______ ____
ROOT
ATOM      1  C   UNL     1      49.669   7.815  12.637  0.00  0.00    +0.000 A 
ATOM      2  C   UNL     1      48.314   7.627  12.331  0.00  0.00    +0.000 A 
ATOM      3  C   UNL     1      47.427   7.132  13.293  0.00  0.00    +0.000 A 
ATOM      4  C   UNL     1      47.911   6.861  14.587  0.00  0.00    +0.000 A 
ATOM      5  C   UNL     1      49.271   7.003  14.926  0.00  0.00    +0.000 A 
ATOM      6  C   UNL     1      50.129   7.499  13.930  0.00  0.00    +0.000 A 
ENDROOT
BRANCH   5   7
ATOM      7  C   UNL     1      49.788   6.581  16.252  0.00  0.00    +0.000 A 
ATOM      8  C   UNL     1      48.914   6.206  17.282  0.00  0.00    +0.000 A 
ATOM      9  C   UNL     1      49.427   5.763  18.494  0.00  0.00    +0.000 A 
ATOM     10  N   UNL     1      50.742   5.660  18.756  0.00  0.00    +0.000 NA
ATOM     11  C   UNL     1      51.580   6.025  17.765  0.00  0.00    +0.000 A 
ATOM     12  C   UNL     1      51.160   6.490  16.526  0.00  0.00    +0.000 A 
ENDBRANCH   5   7
BRANCH   1  14
ATOM     13  F   UNL     1      50.253   9.462  10.986  0.00  0.00    +0.000 F 
ATOM     14  C   UNL     1      50.648   8.315  11.603  0.00  0.00    +0.000 C 
ATOM     15  F   UNL     1      50.858   7.410  10.607  0.00  0.00    +0.000 F 
ATOM     16  F   UNL     1      51.876   8.579  12.132  0.00  0.00    +0.000 F 
ENDBRANCH   1  14
BRANCH   3  17
ATOM     17  C   UNL     1      45.970   6.884  12.960  0.00  0.00    +0.000 C 
BRANCH  17  18
ATOM     18  N   UNL     1      45.587   5.577  13.438  0.00  0.00    +0.000 N 
ATOM     19  C   UNL     1      44.987   4.749  12.508  0.00  0.00    +0.000 A 
ATOM     20  N   UNL     1      44.059   3.918  12.995  0.00  0.00    +0.000 NA
ATOM     21  C   UNL     1      43.498   3.048  12.138  0.00  0.00    +0.000 A 
ATOM     22  C   UNL     1      43.824   2.978  10.809  0.00  0.00    +0.000 A 
ATOM     23  C   UNL     1      44.781   3.878  10.372  0.00  0.00    +0.000 A 
ATOM     24  N   UNL     1      45.356   4.776  11.220  0.00  0.00    +0.000 NA
ATOM     25  H   UNL     1      44.993   5.571  14.259  0.00  0.00    +0.000 HD
BRANCH  23  26
ATOM     26  C   UNL     1      45.214   3.865   8.915  0.00  0.00    +0.000 C 
ATOM     27  F   UNL     1      44.168   4.003   8.044  0.00  0.00    +0.000 F 
ATOM     28  F   UNL     1      46.075   4.876   8.605  0.00  0.00    +0.000 F 
ATOM     29  F   UNL     1      45.838   2.710   8.549  0.00  0.00    +0.000 F 
ENDBRANCH  23  26
ENDBRANCH  17  18
ENDBRANCH   3  17
TORSDOF 5
ENDMDL
MODEL 6
REMARK VINA RESULT:    -6.806      3.008      8.887
REMARK INTER + INTRA:          -9.606
REMARK INTER:                  -8.579
REMARK INTRA:                  -1.027
REMARK UNBOUND:                -0.810
REMARK  Name = 
REMARK  5 active torsions:
REMARK  status: ('A' for Active; 'I' for Inactive)
REMARK    1  A    between atoms: C_2  and  C_5
REMARK    2  A    between atoms: C_7  and  C_8
REMARK    3  A    between atoms: C_8  and  N_9
REMARK    4  A    between atoms: C_14  and  C_15
REMARK    5  A    between atoms: C_21  and  C_22
REMARK                            x       y       z     vdW  Elec       q    Type
REMARK                         _______ _______ _______ _____ _____    ______ ____
ROOT
ATOM      1  C   UNL     1      50.263   6.466  16.734  0.00  0.00    +0.000 A 
ATOM      2  C   UNL     1      48.947   6.124  16.393  0.00  0.00    +0.000 A 
ATOM      3  C   UNL     1      48.490   4.810  16.542  0.00  0.00    +0.000 A 
ATOM      4  C   UNL     1      49.364   3.844  17.076  0.00  0.00    +0.000 A 
ATOM      5  C   UNL     1      50.703   4.138  17.400  0.00  0.00    +0.000 A 
ATOM      6  C   UNL     1      51.123   5.468  17.231  0.00  0.00    +0.000 A 
ENDROOT
BRANCH   5   7
ATOM      7  C   UNL     1      51.648   3.077  17.830  0.00  0.00    +0.000 A 
ATOM      8  C   UNL     1      51.467   1.745  17.435  0.00  0.00    +0.000 A 
ATOM      9  C   UNL     1      52.397   0.782  17.806  0.00  0.00    +0.000 A 
ATOM     10  N   UNL     1      53.496   1.048  18.535  0.00  0.00    +0.000 NA
ATOM     11  C   UNL     1      53.666   2.329  18.916  0.00  0.00    +0.000 A 
ATOM     12  C   UNL     1      52.785   3.356  18.602  0.00  0.00    +0.000 A 
ENDBRANCH   5   7
BRANCH   1  14
ATOM     13  F   UNL     1      49.862   8.733  16.042  0.00  0.00    +0.000 F 
ATOM     14  C   UNL     1      50.785   7.870  16.548  0.00  0.00    +0.000 C 
ATOM     15  F   UNL     1      51.847   7.919  15.696  0.00  0.00    +0.000 F 
ATOM     16  F   UNL     1      51.217   8.425  17.714  0.00  0.00    +0.000 F 
ENDBRANCH   1  14
BRANCH   3  17
ATOM     17  C   UNL     1      47.083   4.419  16.136  0.00  0.00    +0.000 C 
BRANCH  17  18
ATOM     18  N   UNL     1      47.137   3.623  14.934  0.00  0.00    +0.000 N 
ATOM     19  C   UNL     1      46.470   4.141  13.840  0.00  0.00    +0.000 A 
ATOM     20  N   UNL     1      45.922   3.237  13.022  0.00  0.00    +0.000 NA
ATOM     21  C   UNL     1      45.322   3.693  11.909  0.00  0.00    +0.000 A 
ATOM     22  C   UNL     1      45.244   5.021  11.583  0.00  0.00    +0.000 A 
ATOM     23  C   UNL     1      45.821   5.901  12.482  0.00  0.00    +0.000 A 
ATOM     24  N   UNL     1      46.425   5.462  13.622  0.00  0.00    +0.000 NA
ATOM     25  H   UNL     1      46.830   2.663  15.035  0.00  0.00    +0.000 HD
BRANCH  23  26
ATOM     26  C   UNL     1      45.793   7.394  12.196  0.00  0.00    +0.000 C 
ATOM     27  F   UNL     1      44.889   7.737  11.227  0.00  0.00    +0.000 F 
ATOM     28  F   UNL     1      45.452   8.140  13.285  0.00  0.00    +0.000 F 
ATOM     29  F   UNL     1      46.989   7.882  11.761  0.00  0.00    +0.000 F 
ENDBRANCH  23  26
ENDBRANCH  17  18
ENDBRANCH   3  17
TORSDOF 5
ENDMDL
MODEL 7
REMARK VINA RESULT:    -6.805      3.205      7.768
REMARK INTER + INTRA:          -9.604
REMARK INTER:                  -8.792
REMARK INTRA:                  -0.812
REMARK UNBOUND:                -0.810
REMARK  Name = 
REMARK  5 active torsions:
REMARK  status: ('A' for Active; 'I' for Inactive)
REMARK    1  A    between atoms: C_2  and  C_5
REMARK    2  A    between atoms: C_7  and  C_8
REMARK    3  A    between atoms: C_8  and  N_9
REMARK    4  A    between atoms: C_14  and  C_15
REMARK    5  A    between atoms: C_21  and  C_22
REMARK                            x       y       z     vdW  Elec       q    Type
REMARK                         _______ _______ _______ _____ _____    ______ ____
ROOT
ATOM      1  C   UNL     1      48.355   4.453  17.024  0.00  0.00    +0.000 A 
ATOM      2  C   UNL     1      47.590   4.327  15.855  0.00  0.00    +0.000 A 
ATOM      3  C   UNL     1      47.559   5.356  14.907  0.00  0.00    +0.000 A 
ATOM      4  C   UNL     1      48.340   6.506  15.129  0.00  0.00    +0.000 A 
ATOM      5  C   UNL     1      49.094   6.688  16.305  0.00  0.00    +0.000 A 
ATOM      6  C   UNL     1      49.094   5.633  17.233  0.00  0.00    +0.000 A 
ENDROOT
BRANCH   5   7
ATOM      7  C   UNL     1      49.799   7.964  16.585  0.00  0.00    +0.000 A 
ATOM      8  C   UNL     1      50.053   8.888  15.562  0.00  0.00    +0.000 A 
ATOM      9  C   UNL     1      50.666  10.098  15.863  0.00  0.00    +0.000 A 
ATOM     10  N   UNL     1      51.038  10.459  17.104  0.00  0.00    +0.000 NA
ATOM     11  C   UNL     1      50.794   9.567  18.085  0.00  0.00    +0.000 A 
ATOM     12  C   UNL     1      50.198   8.331  17.879  0.00  0.00    +0.000 A 
ENDBRANCH   5   7
BRANCH   1  14
ATOM     13  F   UNL     1      49.407   2.495  17.939  0.00  0.00    +0.000 F 
ATOM     14  C   UNL     1      48.373   3.370  18.074  0.00  0.00    +0.000 C 
ATOM     15  F   UNL     1      47.240   2.612  18.057  0.00  0.00    +0.000 F 
ATOM     16  F   UNL     1      48.467   3.869  19.338  0.00  0.00    +0.000 F 
ENDBRANCH   1  14
BRANCH   3  17
ATOM     17  C   UNL     1      46.703   5.248  13.662  0.00  0.00    +0.000 C 
BRANCH  17  18
ATOM     18  N   UNL     1      45.979   3.999  13.687  0.00  0.00    +0.000 N 
ATOM     19  C   UNL     1      45.209   3.729  12.572  0.00  0.00    +0.000 A 
ATOM     20  N   UNL     1      44.084   3.045  12.804  0.00  0.00    +0.000 NA
ATOM     21  C   UNL     1      43.338   2.701  11.740  0.00  0.00    +0.000 A 
ATOM     22  C   UNL     1      43.672   3.018  10.450  0.00  0.00    +0.000 A 
ATOM     23  C   UNL     1      44.842   3.738  10.285  0.00  0.00    +0.000 A 
ATOM     24  N   UNL     1      45.608   4.108  11.350  0.00  0.00    +0.000 NA
ATOM     25  H   UNL     1      45.382   3.859  14.494  0.00  0.00    +0.000 HD
BRANCH  23  26
ATOM     26  C   UNL     1      45.296   4.124   8.886  0.00  0.00    +0.000 C 
ATOM     27  F   UNL     1      46.064   3.163   8.288  0.00  0.00    +0.000 F 
ATOM     28  F   UNL     1      44.258   4.341   8.029  0.00  0.00    +0.000 F 
ATOM     29  F   UNL     1      46.052   5.258   8.860  0.00  0.00    +0.000 F 
ENDBRANCH  23  26
ENDBRANCH  17  18
ENDBRANCH   3  17
TORSDOF 5
ENDMDL
MODEL 8
REMARK VINA RESULT:    -6.699      3.389      7.956
REMARK INTER + INTRA:          -9.468
REMARK INTER:                  -8.543
REMARK INTRA:                  -0.925
REMARK UNBOUND:                -0.810
REMARK  Name = 
REMARK  5 active torsions:
REMARK  status: ('A' for Active; 'I' for Inactive)
REMARK    1  A    between atoms: C_2  and  C_5
REMARK    2  A    between atoms: C_7  and  C_8
REMARK    3  A    between atoms: C_8  and  N_9
REMARK    4  A    between atoms: C_14  and  C_15
REMARK    5  A    between atoms: C_21  and  C_22
REMARK                            x       y       z     vdW  Elec       q    Type
REMARK                         _______ _______ _______ _____ _____    ______ ____
ROOT
ATOM      1  C   UNL     1      48.213   6.735  13.796  0.00  0.00    +0.000 A 
ATOM      2  C   UNL     1      47.527   5.643  13.246  0.00  0.00    +0.000 A 
ATOM      3  C   UNL     1      47.208   4.530  14.032  0.00  0.00    +0.000 A 
ATOM      4  C   UNL     1      47.555   4.542  15.397  0.00  0.00    +0.000 A 
ATOM      5  C   UNL     1      48.274   5.602  15.981  0.00  0.00    +0.000 A 
ATOM      6  C   UNL     1      48.579   6.698  15.156  0.00  0.00    +0.000 A 
ENDROOT
BRANCH   5   7
ATOM      7  C   UNL     1      48.752   5.536  17.384  0.00  0.00    +0.000 A 
ATOM      8  C   UNL     1      48.007   6.100  18.429  0.00  0.00    +0.000 A 
ATOM      9  C   UNL     1      48.451   5.975  19.739  0.00  0.00    +0.000 A 
ATOM     10  N   UNL     1      49.576   5.327  20.088  0.00  0.00    +0.000 NA
ATOM     11  C   UNL     1      50.292   4.788  19.082  0.00  0.00    +0.000 A 
ATOM     12  C   UNL     1      49.934   4.871  17.743  0.00  0.00    +0.000 A 
ENDBRANCH   5   7
BRANCH   1  14
ATOM     13  F   UNL     1      49.814   8.450  13.273  0.00  0.00    +0.000 F 
ATOM     14  C   UNL     1      48.597   7.928  12.956  0.00  0.00    +0.000 C 
ATOM     15  F   UNL     1      47.709   8.954  13.075  0.00  0.00    +0.000 F 
ATOM     16  F   UNL     1      48.651   7.635  11.627  0.00  0.00    +0.000 F 
ENDBRANCH   1  14
BRANCH   3  17
ATOM     17  C   UNL     1      46.505   3.327  13.437  0.00  0.00    +0.000 C 
BRANCH  17  18
ATOM     18  N   UNL     1      45.101   3.624  13.282  0.00  0.00    +0.000 N 
ATOM     19  C   UNL     1      44.707   4.017  12.017  0.00  0.00    +0.000 A 
ATOM     20  N   UNL     1      43.706   4.903  11.978  0.00  0.00    +0.000 NA
ATOM     21  C   UNL     1      43.245   5.263  10.767  0.00  0.00    +0.000 A 
ATOM     22  C   UNL     1      43.750   4.774   9.591  0.00  0.00    +0.000 A 
ATOM     23  C   UNL     1      44.793   3.872   9.707  0.00  0.00    +0.000 A 
ATOM     24  N   UNL     1      45.284   3.501  10.923  0.00  0.00    +0.000 NA
ATOM     25  H   UNL     1      44.726   4.307  13.929  0.00  0.00    +0.000 HD
BRANCH  23  26
ATOM     26  C   UNL     1      45.408   3.269   8.454  0.00  0.00    +0.000 C 
ATOM     27  F   UNL     1      45.875   1.997   8.644  0.00  0.00    +0.000 F 
ATOM     28  F   UNL     1      44.525   3.177   7.418  0.00  0.00    +0.000 F 
ATOM     29  F   UNL     1      46.473   3.977   7.982  0.00  0.00    +0.000 F 
ENDBRANCH  23  26
ENDBRANCH  17  18
ENDBRANCH   3  17
TORSDOF 5
ENDMDL
MODEL 9
REMARK VINA RESULT:    -6.678      2.898      7.634
REMARK INTER + INTRA:          -9.441
REMARK INTER:                  -8.405
REMARK INTRA:                  -1.035
REMARK UNBOUND:                -0.810
REMARK  Name = 
REMARK  5 active torsions:
REMARK  status: ('A' for Active; 'I' for Inactive)
REMARK    1  A    between atoms: C_2  and  C_5
REMARK    2  A    between atoms: C_7  and  C_8
REMARK    3  A    between atoms: C_8  and  N_9
REMARK    4  A    between atoms: C_14  and  C_15
REMARK    5  A    between atoms: C_21  and  C_22
REMARK                            x       y       z     vdW  Elec       q    Type
REMARK                         _______ _______ _______ _____ _____    ______ ____
ROOT
ATOM      1  C   UNL     1      48.197   4.521  17.377  0.00  0.00    +0.000 A 
ATOM      2  C   UNL     1      48.254   4.916  16.033  0.00  0.00    +0.000 A 
ATOM      3  C   UNL     1      48.388   6.266  15.691  0.00  0.00    +0.000 A 
ATOM      4  C   UNL     1      48.501   7.219  16.721  0.00  0.00    +0.000 A 
ATOM      5  C   UNL     1      48.414   6.869  18.082  0.00  0.00    +0.000 A 
ATOM      6  C   UNL     1      48.276   5.503  18.383  0.00  0.00    +0.000 A 
ENDROOT
BRANCH   5   7
ATOM      7  C   UNL     1      48.397   7.901  19.149  0.00  0.00    +0.000 A 
ATOM      8  C   UNL     1      49.343   7.886  20.184  0.00  0.00    +0.000 A 
ATOM      9  C   UNL     1      49.336   8.895  21.138  0.00  0.00    +0.000 A 
ATOM     10  N   UNL     1      48.465   9.919  21.137  0.00  0.00    +0.000 NA
ATOM     11  C   UNL     1      47.555   9.929  20.143  0.00  0.00    +0.000 A 
ATOM     12  C   UNL     1      47.477   8.959  19.153  0.00  0.00    +0.000 A 
ENDBRANCH   5   7
BRANCH   1  14
ATOM     13  F   UNL     1      46.740   2.625  17.628  0.00  0.00    +0.000 F 
ATOM     14  C   UNL     1      48.018   3.074  17.766  0.00  0.00    +0.000 C 
ATOM     15  F   UNL     1      48.357   2.839  19.065  0.00  0.00    +0.000 F 
ATOM     16  F   UNL     1      48.792   2.234  17.023  0.00  0.00    +0.000 F 
ENDBRANCH   1  14
BRANCH   3  17
ATOM     17  C   UNL     1      48.407   6.708  14.241  0.00  0.00    +0.000 C 
BRANCH  17  18
ATOM     18  N   UNL     1      47.179   7.403  13.938  0.00  0.00    +0.000 N 
ATOM     19  C   UNL     1      46.341   6.775  13.036  0.00  0.00    +0.000 A 
ATOM     20  N   UNL     1      45.635   7.591  12.246  0.00  0.00    +0.000 NA
ATOM     21  C   UNL     1      44.757   7.026  11.400  0.00  0.00    +0.000 A 
ATOM     22  C   UNL     1      44.560   5.673  11.308  0.00  0.00    +0.000 A 
ATOM     23  C   UNL     1      45.335   4.889  12.144  0.00  0.00    +0.000 A 
ATOM     24  N   UNL     1      46.239   5.439  13.002  0.00  0.00    +0.000 NA
ATOM     25  H   UNL     1      47.287   8.358  13.619  0.00  0.00    +0.000 HD
BRANCH  23  26
ATOM     26  C   UNL     1      45.176   3.377  12.118  0.00  0.00    +0.000 C 
ATOM     27  F   UNL     1      43.962   2.958  12.589  0.00  0.00    +0.000 F 
ATOM     28  F   UNL     1      45.276   2.852  10.863  0.00  0.00    +0.000 F 
ATOM     29  F   UNL     1      46.101   2.725  12.876  0.00  0.00    +0.000 F 
ENDBRANCH  23  26
ENDBRANCH  17  18
ENDBRANCH   3  17
TORSDOF 5
ENDMDL
