MODEL 1
REMARK VINA RESULT:    -6.941      0.000      0.000
REMARK INTER + INTRA:          -9.880
REMARK INTER:                  -9.172
REMARK INTRA:                  -0.707
REMARK UNBOUND:                -0.707
REMARK  Name = 
REMARK  8 active torsions:
REMARK  status: ('A' for Active; 'I' for Inactive)
REMARK    1  A    between atoms: C_1  and  C_2
REMARK    2  A    between atoms: C_2  and  C_3
REMARK    3  A    between atoms: C_2  and  N_4
REMARK    4  A    between atoms: C_2  and  C_5
REMARK    5  A    between atoms: C_5  and  C_6
REMARK    6  A    between atoms: C_9  and  C_10
REMARK    7  A    between atoms: C_10  and  N_11
REMARK    8  A    between atoms: C_15  and  C_16
REMARK                            x       y       z     vdW  Elec       q    Type
REMARK                         _______ _______ _______ _____ _____    ______ ____
ROOT
ATOM      1  C   UNL     1      45.179   4.938  12.658  0.00  0.00    +0.000 C 
ENDROOT
BRANCH   1   2
ATOM      2  N   UNL     1      46.491   4.846  13.281  0.00  0.00    +0.000 N 
ATOM      3  C   UNL     1      46.797   3.888  14.206  0.00  0.00    +0.000 A 
ATOM      4  N   UNL     1      47.599   4.361  15.127  0.00  0.00    +0.000 NA
ATOM      5  C   UNL     1      47.925   5.641  14.723  0.00  0.00    +0.000 A 
ATOM      6  C   UNL     1      48.650   6.671  15.344  0.00  0.00    +0.000 A 
ATOM      7  N   UNL     1      48.934   7.832  14.662  0.00  0.00    +0.000 NA
ATOM      8  C   UNL     1      48.466   7.971  13.402  0.00  0.00    +0.000 A 
ATOM      9  C   UNL     1      47.639   7.063  12.753  0.00  0.00    +0.000 A 
ATOM     10  C   UNL     1      47.362   5.899  13.472  0.00  0.00    +0.000 A 
BRANCH   6  11
ATOM     11  C   UNL     1      49.010   6.623  16.792  0.00  0.00    +0.000 C 
ATOM     12  N   UNL     1      47.972   6.322  17.638  0.00  0.00    +0.000 N 
ATOM     13  O   UNL     1      50.141   6.769  17.235  0.00  0.00    +0.000 OA
ATOM     14  H   UNL     1      47.070   6.072  17.251  0.00  0.00    +0.000 HD
ATOM     15  H   UNL     1      48.188   6.137  18.607  0.00  0.00    +0.000 HD
ENDBRANCH   6  11
ENDBRANCH   1   2
BRANCH   1  19
ATOM     16  C   UNL     1      45.304   3.682   8.599  0.00  0.00    +0.000 A 
ATOM     17  C   UNL     1      45.621   5.007   8.908  0.00  0.00    +0.000 A 
ATOM     18  C   UNL     1      45.535   5.448  10.223  0.00  0.00    +0.000 A 
ATOM     19  C   UNL     1      45.148   4.549  11.215  0.00  0.00    +0.000 A 
ATOM     20  N   UNL     1      44.828   3.262  10.933  0.00  0.00    +0.000 NA
ATOM     21  C   UNL     1      44.907   2.864   9.649  0.00  0.00    +0.000 A 
BRANCH  16  22
ATOM     22  C   UNL     1      45.388   3.157   7.190  0.00  0.00    +0.000 C 
BRANCH  22  24
ATOM     23  C   UNL     1      46.746   2.539   5.174  0.00  0.00    +0.000 C 
ATOM     24  C   UNL     1      46.784   2.662   6.707  0.00  0.00    +0.000 C 
ATOM     25  C   UNL     1      47.156   1.295   7.301  0.00  0.00    +0.000 C 
BRANCH  24  26
ATOM     26  N   UNL     1      47.835   3.633   7.049  0.00  0.00    +0.000 NA
ATOM     27  H   UNL     1      48.240   3.397   7.957  0.00  0.00    +0.000 HD
ATOM     28  H   UNL     1      47.419   4.557   7.167  0.00  0.00    +0.000 HD
ENDBRANCH  24  26
ENDBRANCH  22  24
ENDBRANCH  16  22
ENDBRANCH   1  19
TORSDOF 6
ENDMDL
MODEL 2
REMARK VINA RESULT:    -6.776      2.337      3.062
REMARK INTER + INTRA:          -9.662
REMARK INTER:                  -9.916
REMARK INTRA:                   0.254
REMARK UNBOUND:                -0.707
REMARK  Name = 
REMARK  8 active torsions:
REMARK  status: ('A' for Active; 'I' for Inactive)
REMARK    1  A    between atoms: C_1  and  C_2
REMARK    2  A    between atoms: C_2  and  C_3
REMARK    3  A    between atoms: C_2  and  N_4
REMARK    4  A    between atoms: C_2  and  C_5
REMARK    5  A    between atoms: C_5  and  C_6
REMARK    6  A    between atoms: C_9  and  C_10
REMARK    7  A    between atoms: C_10  and  N_11
REMARK    8  A    between atoms: C_15  and  C_16
REMARK                            x       y       z     vdW  Elec       q    Type
REMARK                         _______ _______ _______ _____ _____    ______ ____
ROOT
ATOM      1  C   UNL     1      43.643   2.949  11.866  0.00  0.00    +0.000 C 
ENDROOT
BRANCH   1   2
ATOM      2  N   UNL     1      43.899   4.070  12.757  0.00  0.00    +0.000 N 
ATOM      3  C   UNL     1      43.038   5.125  12.872  0.00  0.00    +0.000 A 
ATOM      4  N   UNL     1      43.688   6.248  13.047  0.00  0.00    +0.000 NA
ATOM      5  C   UNL     1      45.019   5.899  13.172  0.00  0.00    +0.000 A 
ATOM      6  C   UNL     1      46.191   6.666  13.266  0.00  0.00    +0.000 A 
ATOM      7  N   UNL     1      47.403   6.058  13.504  0.00  0.00    +0.000 NA
ATOM      8  C   UNL     1      47.441   4.711  13.605  0.00  0.00    +0.000 A 
ATOM      9  C   UNL     1      46.358   3.865  13.403  0.00  0.00    +0.000 A 
ATOM     10  C   UNL     1      45.144   4.509  13.155  0.00  0.00    +0.000 A 
BRANCH   6  11
ATOM     11  C   UNL     1      46.206   8.128  12.966  0.00  0.00    +0.000 C 
ATOM     12  N   UNL     1      46.628   8.927  13.999  0.00  0.00    +0.000 N 
ATOM     13  O   UNL     1      45.936   8.620  11.879  0.00  0.00    +0.000 OA
ATOM     14  H   UNL     1      46.976   8.501  14.850  0.00  0.00    +0.000 HD
ATOM     15  H   UNL     1      46.793   9.905  13.806  0.00  0.00    +0.000 HD
ENDBRANCH   6  11
ENDBRANCH   1   2
BRANCH   1  19
ATOM     16  C   UNL     1      45.353   3.280   7.989  0.00  0.00    +0.000 A 
ATOM     17  C   UNL     1      45.396   4.384   8.844  0.00  0.00    +0.000 A 
ATOM     18  C   UNL     1      44.796   4.309  10.095  0.00  0.00    +0.000 A 
ATOM     19  C   UNL     1      44.175   3.123  10.479  0.00  0.00    +0.000 A 
ATOM     20  N   UNL     1      44.116   2.045   9.659  0.00  0.00    +0.000 NA
ATOM     21  C   UNL     1      44.693   2.148   8.448  0.00  0.00    +0.000 A 
BRANCH  16  22
ATOM     22  C   UNL     1      45.994   3.311   6.625  0.00  0.00    +0.000 C 
BRANCH  22  24
ATOM     23  C   UNL     1      47.425   2.134   4.935  0.00  0.00    +0.000 C 
ATOM     24  C   UNL     1      47.279   2.452   6.434  0.00  0.00    +0.000 C 
ATOM     25  C   UNL     1      47.219   1.130   7.214  0.00  0.00    +0.000 C 
BRANCH  24  26
ATOM     26  N   UNL     1      48.479   3.197   6.848  0.00  0.00    +0.000 NA
ATOM     27  H   UNL     1      48.759   2.902   7.786  0.00  0.00    +0.000 HD
ATOM     28  H   UNL     1      48.251   4.188   6.930  0.00  0.00    +0.000 HD
ENDBRANCH  24  26
ENDBRANCH  22  24
ENDBRANCH  16  22
ENDBRANCH   1  19
TORSDOF 6
ENDMDL
MODEL 3
REMARK VINA RESULT:    -6.251      3.551      8.659
REMARK INTER + INTRA:          -8.968
REMARK INTER:                  -8.396
REMARK INTRA:                  -0.572
REMARK UNBOUND:                -0.707
REMARK  Name = 
REMARK  8 active torsions:
REMARK  status: ('A' for Active; 'I' for Inactive)
REMARK    1  A    between atoms: C_1  and  C_2
REMARK    2  A    between atoms: C_2  and  C_3
REMARK    3  A    between atoms: C_2  and  N_4
REMARK    4  A    between atoms: C_2  and  C_5
REMARK    5  A    between atoms: C_5  and  C_6
REMARK    6  A    between atoms: C_9  and  C_10
REMARK    7  A    between atoms: C_10  and  N_11
REMARK    8  A    between atoms: C_15  and  C_16
REMARK                            x       y       z     vdW  Elec       q    Type
REMARK                         _______ _______ _______ _____ _____    ______ ____
ROOT
ATOM      1  C   UNL     1      47.959   6.200  13.140  0.00  0.00    +0.000 C 
ENDROOT
BRANCH   1   2
ATOM      2  N   UNL     1      46.779   5.376  13.359  0.00  0.00    +0.000 N 
ATOM      3  C   UNL     1      46.860   4.074  13.764  0.00  0.00    +0.000 A 
ATOM      4  N   UNL     1      45.923   3.348  13.208  0.00  0.00    +0.000 NA
ATOM      5  C   UNL     1      45.125   4.232  12.508  0.00  0.00    +0.000 A 
ATOM      6  C   UNL     1      44.044   4.038  11.633  0.00  0.00    +0.000 A 
ATOM      7  N   UNL     1      43.337   5.116  11.151  0.00  0.00    +0.000 NA
ATOM      8  C   UNL     1      43.732   6.358  11.507  0.00  0.00    +0.000 A 
ATOM      9  C   UNL     1      44.860   6.651  12.263  0.00  0.00    +0.000 A 
ATOM     10  C   UNL     1      45.562   5.539  12.731  0.00  0.00    +0.000 A 
BRANCH   6  11
ATOM     11  C   UNL     1      43.710   2.695  11.074  0.00  0.00    +0.000 C 
ATOM     12  N   UNL     1      44.442   2.327   9.973  0.00  0.00    +0.000 N 
ATOM     13  O   UNL     1      42.900   1.918  11.561  0.00  0.00    +0.000 OA
ATOM     14  H   UNL     1      45.201   2.919   9.658  0.00  0.00    +0.000 HD
ATOM     15  H   UNL     1      44.357   1.376   9.643  0.00  0.00    +0.000 HD
ENDBRANCH   6  11
ENDBRANCH   1   2
BRANCH   1  19
ATOM     16  C   UNL     1      48.953   8.400  16.637  0.00  0.00    +0.000 A 
ATOM     17  C   UNL     1      48.276   9.047  15.600  0.00  0.00    +0.000 A 
ATOM     18  C   UNL     1      47.989   8.356  14.430  0.00  0.00    +0.000 A 
ATOM     19  C   UNL     1      48.371   7.021  14.319  0.00  0.00    +0.000 A 
ATOM     20  N   UNL     1      49.036   6.380  15.311  0.00  0.00    +0.000 NA
ATOM     21  C   UNL     1      49.313   7.075  16.430  0.00  0.00    +0.000 A 
BRANCH  16  22
ATOM     22  C   UNL     1      49.281   9.106  17.928  0.00  0.00    +0.000 C 
BRANCH  22  24
ATOM     23  C   UNL     1      47.486  10.509  18.975  0.00  0.00    +0.000 C 
ATOM     24  C   UNL     1      48.167   9.131  19.017  0.00  0.00    +0.000 C 
ATOM     25  C   UNL     1      48.726   8.900  20.429  0.00  0.00    +0.000 C 
BRANCH  24  26
ATOM     26  N   UNL     1      47.136   8.117  18.740  0.00  0.00    +0.000 NA
ATOM     27  H   UNL     1      46.924   7.600  19.595  0.00  0.00    +0.000 HD
ATOM     28  H   UNL     1      47.506   7.426  18.087  0.00  0.00    +0.000 HD
ENDBRANCH  24  26
ENDBRANCH  22  24
ENDBRANCH  16  22
ENDBRANCH   1  19
TORSDOF 6
ENDMDL
MODEL 4
REMARK VINA RESULT:    -5.977      3.498      5.674
REMARK INTER + INTRA:          -8.606
REMARK INTER:                  -7.821
REMARK INTRA:                  -0.786
REMARK UNBOUND:                -0.707
REMARK  Name = 
REMARK  8 active torsions:
REMARK  status: ('A' for Active; 'I' for Inactive)
REMARK    1  A    between atoms: C_1  and  C_2
REMARK    2  A    between atoms: C_2  and  C_3
REMARK    3  A    between atoms: C_2  and  N_4
REMARK    4  A    between atoms: C_2  and  C_5
REMARK    5  A    between atoms: C_5  and  C_6
REMARK    6  A    between atoms: C_9  and  C_10
REMARK    7  A    between atoms: C_10  and  N_11
REMARK    8  A    between atoms: C_15  and  C_16
REMARK                            x       y       z     vdW  Elec       q    Type
REMARK                         _______ _______ _______ _____ _____    ______ ____
ROOT
ATOM      1  C   UNL     1      49.845   8.077  16.219  0.00  0.00    +0.000 C 
ENDROOT
BRANCH   1   2
ATOM      2  N   UNL     1      50.205   6.901  16.997  0.00  0.00    +0.000 N 
ATOM      3  C   UNL     1      51.433   6.309  16.904  0.00  0.00    +0.000 A 
ATOM      4  N   UNL     1      51.338   5.008  17.014  0.00  0.00    +0.000 NA
ATOM      5  C   UNL     1      50.015   4.749  17.311  0.00  0.00    +0.000 A 
ATOM      6  C   UNL     1      49.292   3.551  17.434  0.00  0.00    +0.000 A 
ATOM      7  N   UNL     1      47.983   3.568  17.862  0.00  0.00    +0.000 NA
ATOM      8  C   UNL     1      47.404   4.762  18.119  0.00  0.00    +0.000 A 
ATOM      9  C   UNL     1      47.998   5.999  17.907  0.00  0.00    +0.000 A 
ATOM     10  C   UNL     1      49.322   5.951  17.466  0.00  0.00    +0.000 A 
BRANCH   6  11
ATOM     11  C   UNL     1      49.844   2.243  16.973  0.00  0.00    +0.000 C 
ATOM     12  N   UNL     1      50.868   1.744  17.737  0.00  0.00    +0.000 N 
ATOM     13  O   UNL     1      49.407   1.595  16.032  0.00  0.00    +0.000 OA
ATOM     14  H   UNL     1      51.133   2.222  18.590  0.00  0.00    +0.000 HD
ATOM     15  H   UNL     1      51.180   0.800  17.555  0.00  0.00    +0.000 HD
ENDBRANCH   6  11
ENDBRANCH   1   2
BRANCH   1  19
ATOM     16  C   UNL     1      47.673   7.366  12.636  0.00  0.00    +0.000 A 
ATOM     17  C   UNL     1      47.225   8.356  13.513  0.00  0.00    +0.000 A 
ATOM     18  C   UNL     1      47.893   8.567  14.713  0.00  0.00    +0.000 A 
ATOM     19  C   UNL     1      49.012   7.791  15.011  0.00  0.00    +0.000 A 
ATOM     20  N   UNL     1      49.455   6.819  14.175  0.00  0.00    +0.000 NA
ATOM     21  C   UNL     1      48.783   6.627  13.026  0.00  0.00    +0.000 A 
BRANCH  16  22
ATOM     22  C   UNL     1      46.984   7.105  11.321  0.00  0.00    +0.000 C 
BRANCH  22  24
ATOM     23  C   UNL     1      44.502   7.045  11.672  0.00  0.00    +0.000 C 
ATOM     24  C   UNL     1      45.733   6.178  11.355  0.00  0.00    +0.000 C 
ATOM     25  C   UNL     1      45.850   5.079  12.421  0.00  0.00    +0.000 C 
BRANCH  24  26
ATOM     26  N   UNL     1      45.507   5.549  10.043  0.00  0.00    +0.000 NA
ATOM     27  H   UNL     1      44.762   4.853  10.120  0.00  0.00    +0.000 HD
ATOM     28  H   UNL     1      46.340   5.029   9.768  0.00  0.00    +0.000 HD
ENDBRANCH  24  26
ENDBRANCH  22  24
ENDBRANCH  16  22
ENDBRANCH   1  19
TORSDOF 6
ENDMDL
MODEL 5
REMARK VINA RESULT:    -5.915      3.074      8.124
REMARK INTER + INTRA:          -8.525
REMARK INTER:                  -8.421
REMARK INTRA:                  -0.103
REMARK UNBOUND:                -0.707
REMARK  Name = 
REMARK  8 active torsions:
REMARK  status: ('A' for Active; 'I' for Inactive)
REMARK    1  A    between atoms: C_1  and  C_2
REMARK    2  A    between atoms: C_2  and  C_3
REMARK    3  A    between atoms: C_2  and  N_4
REMARK    4  A    between atoms: C_2  and  C_5
REMARK    5  A    between atoms: C_5  and  C_6
REMARK    6  A    between atoms: C_9  and  C_10
REMARK    7  A    between atoms: C_10  and  N_11
REMARK    8  A    between atoms: C_15  and  C_16
REMARK                            x       y       z     vdW  Elec       q    Type
REMARK                         _______ _______ _______ _____ _____    ______ ____
ROOT
ATOM      1  C   UNL     1      47.571   7.167  11.790  0.00  0.00    +0.000 C 
ENDROOT
BRANCH   1   2
ATOM      2  N   UNL     1      46.179   6.745  11.753  0.00  0.00    +0.000 N 
ATOM      3  C   UNL     1      45.386   6.739  12.866  0.00  0.00    +0.000 A 
ATOM      4  N   UNL     1      44.557   5.725  12.849  0.00  0.00    +0.000 NA
ATOM      5  C   UNL     1      44.732   5.114  11.623  0.00  0.00    +0.000 A 
ATOM      6  C   UNL     1      44.212   3.930  11.076  0.00  0.00    +0.000 A 
ATOM      7  N   UNL     1      44.460   3.603   9.762  0.00  0.00    +0.000 NA
ATOM      8  C   UNL     1      45.243   4.425   9.029  0.00  0.00    +0.000 A 
ATOM      9  C   UNL     1      45.901   5.546   9.518  0.00  0.00    +0.000 A 
ATOM     10  C   UNL     1      45.637   5.849  10.855  0.00  0.00    +0.000 A 
BRANCH   6  11
ATOM     11  C   UNL     1      43.508   2.914  11.912  0.00  0.00    +0.000 C 
ATOM     12  N   UNL     1      43.531   3.158  13.262  0.00  0.00    +0.000 N 
ATOM     13  O   UNL     1      42.889   1.955  11.471  0.00  0.00    +0.000 OA
ATOM     14  H   UNL     1      43.930   4.023  13.606  0.00  0.00    +0.000 HD
ATOM     15  H   UNL     1      42.952   2.583  13.858  0.00  0.00    +0.000 HD
ENDBRANCH   6  11
ENDBRANCH   1   2
BRANCH   1  19
ATOM     16  C   UNL     1      48.841   7.999  15.760  0.00  0.00    +0.000 A 
ATOM     17  C   UNL     1      48.089   8.956  15.075  0.00  0.00    +0.000 A 
ATOM     18  C   UNL     1      47.709   8.722  13.760  0.00  0.00    +0.000 A 
ATOM     19  C   UNL     1      48.076   7.523  13.151  0.00  0.00    +0.000 A 
ATOM     20  N   UNL     1      48.814   6.587  13.797  0.00  0.00    +0.000 NA
ATOM     21  C   UNL     1      49.179   6.844  15.067  0.00  0.00    +0.000 A 
BRANCH  16  22
ATOM     22  C   UNL     1      49.271   8.205  17.189  0.00  0.00    +0.000 C 
BRANCH  22  24
ATOM     23  C   UNL     1      47.405   8.440  18.848  0.00  0.00    +0.000 C 
ATOM     24  C   UNL     1      48.449   7.461  18.284  0.00  0.00    +0.000 C 
ATOM     25  C   UNL     1      49.331   6.962  19.438  0.00  0.00    +0.000 C 
BRANCH  24  26
ATOM     26  N   UNL     1      47.721   6.317  17.710  0.00  0.00    +0.000 NA
ATOM     27  H   UNL     1      47.889   5.484  18.277  0.00  0.00    +0.000 HD
ATOM     28  H   UNL     1      48.100   6.101  16.788  0.00  0.00    +0.000 HD
ENDBRANCH  24  26
ENDBRANCH  22  24
ENDBRANCH  16  22
ENDBRANCH   1  19
TORSDOF 6
ENDMDL
MODEL 6
REMARK VINA RESULT:    -5.775      3.278      7.016
REMARK INTER + INTRA:          -8.340
REMARK INTER:                  -7.744
REMARK INTRA:                  -0.595
REMARK UNBOUND:                -0.707
REMARK  Name = 
REMARK  8 active torsions:
REMARK  status: ('A' for Active; 'I' for Inactive)
REMARK    1  A    between atoms: C_1  and  C_2
REMARK    2  A    between atoms: C_2  and  C_3
REMARK    3  A    between atoms: C_2  and  N_4
REMARK    4  A    between atoms: C_2  and  C_5
REMARK    5  A    between atoms: C_5  and  C_6
REMARK    6  A    between atoms: C_9  and  C_10
REMARK    7  A    between atoms: C_10  and  N_11
REMARK    8  A    between atoms: C_15  and  C_16
REMARK                            x       y       z     vdW  Elec       q    Type
REMARK                         _______ _______ _______ _____ _____    ______ ____
ROOT
ATOM      1  C   UNL     1      46.611   5.655  14.319  0.00  0.00    +0.000 C 
ENDROOT
BRANCH   1   2
ATOM      2  N   UNL     1      45.848   4.620  13.638  0.00  0.00    +0.000 N 
ATOM      3  C   UNL     1      46.399   3.423  13.277  0.00  0.00    +0.000 A 
ATOM      4  N   UNL     1      45.911   3.004  12.136  0.00  0.00    +0.000 NA
ATOM      5  C   UNL     1      44.917   3.901  11.798  0.00  0.00    +0.000 A 
ATOM      6  C   UNL     1      44.123   4.041  10.648  0.00  0.00    +0.000 A 
ATOM      7  N   UNL     1      43.105   4.968  10.614  0.00  0.00    +0.000 NA
ATOM      8  C   UNL     1      42.917   5.760  11.692  0.00  0.00    +0.000 A 
ATOM      9  C   UNL     1      43.728   5.779  12.820  0.00  0.00    +0.000 A 
ATOM     10  C   UNL     1      44.757   4.835  12.823  0.00  0.00    +0.000 A 
BRANCH   6  11
ATOM     11  C   UNL     1      44.432   3.318   9.380  0.00  0.00    +0.000 C 
ATOM     12  N   UNL     1      44.575   1.959   9.508  0.00  0.00    +0.000 N 
ATOM     13  O   UNL     1      44.498   3.842   8.276  0.00  0.00    +0.000 OA
ATOM     14  H   UNL     1      44.388   1.519  10.400  0.00  0.00    +0.000 HD
ATOM     15  H   UNL     1      44.643   1.408   8.664  0.00  0.00    +0.000 HD
ENDBRANCH   6  11
ENDBRANCH   1   2
BRANCH   1  19
ATOM     16  C   UNL     1      49.504   7.793  12.054  0.00  0.00    +0.000 A 
ATOM     17  C   UNL     1      48.263   7.513  11.477  0.00  0.00    +0.000 A 
ATOM     18  C   UNL     1      47.325   6.771  12.183  0.00  0.00    +0.000 A 
ATOM     19  C   UNL     1      47.638   6.331  13.468  0.00  0.00    +0.000 A 
ATOM     20  N   UNL     1      48.840   6.586  14.042  0.00  0.00    +0.000 NA
ATOM     21  C   UNL     1      49.735   7.296  13.331  0.00  0.00    +0.000 A 
BRANCH  16  22
ATOM     22  C   UNL     1      50.550   8.599  11.329  0.00  0.00    +0.000 C 
BRANCH  22  24
ATOM     23  C   UNL     1      51.329  10.772  10.350  0.00  0.00    +0.000 C 
ATOM     24  C   UNL     1      50.449  10.149  11.447  0.00  0.00    +0.000 C 
ATOM     25  C   UNL     1      50.927  10.663  12.813  0.00  0.00    +0.000 C 
BRANCH  24  26
ATOM     26  N   UNL     1      49.068  10.605  11.221  0.00  0.00    +0.000 NA
ATOM     27  H   UNL     1      48.540  10.547  12.095  0.00  0.00    +0.000 HD
ATOM     28  H   UNL     1      48.601   9.969  10.577  0.00  0.00    +0.000 HD
ENDBRANCH  24  26
ENDBRANCH  22  24
ENDBRANCH  16  22
ENDBRANCH   1  19
TORSDOF 6
ENDMDL
MODEL 7
REMARK VINA RESULT:    -5.534      2.935      4.725
REMARK INTER + INTRA:          -8.021
REMARK INTER:                  -7.203
REMARK INTRA:                  -0.818
REMARK UNBOUND:                -0.707
REMARK  Name = 
REMARK  8 active torsions:
REMARK  status: ('A' for Active; 'I' for Inactive)
REMARK    1  A    between atoms: C_1  and  C_2
REMARK    2  A    between atoms: C_2  and  C_3
REMARK    3  A    between atoms: C_2  and  N_4
REMARK    4  A    between atoms: C_2  and  C_5
REMARK    5  A    between atoms: C_5  and  C_6
REMARK    6  A    between atoms: C_9  and  C_10
REMARK    7  A    between atoms: C_10  and  N_11
REMARK    8  A    between atoms: C_15  and  C_16
REMARK                            x       y       z     vdW  Elec       q    Type
REMARK                         _______ _______ _______ _____ _____    ______ ____
ROOT
ATOM      1  C   UNL     1      49.353   7.323  14.163  0.00  0.00    +0.000 C 
ENDROOT
BRANCH   1   2
ATOM      2  N   UNL     1      49.685   7.374  15.579  0.00  0.00    +0.000 N 
ATOM      3  C   UNL     1      50.290   6.334  16.227  0.00  0.00    +0.000 A 
ATOM      4  N   UNL     1      49.845   6.219  17.453  0.00  0.00    +0.000 NA
ATOM      5  C   UNL     1      49.006   7.297  17.653  0.00  0.00    +0.000 A 
ATOM      6  C   UNL     1      48.160   7.651  18.717  0.00  0.00    +0.000 A 
ATOM      7  N   UNL     1      47.507   8.863  18.714  0.00  0.00    +0.000 NA
ATOM      8  C   UNL     1      47.668   9.680  17.651  0.00  0.00    +0.000 A 
ATOM      9  C   UNL     1      48.381   9.364  16.501  0.00  0.00    +0.000 A 
ATOM     10  C   UNL     1      49.026   8.126  16.529  0.00  0.00    +0.000 A 
BRANCH   6  11
ATOM     11  C   UNL     1      47.814   6.690  19.805  0.00  0.00    +0.000 C 
ATOM     12  N   UNL     1      47.495   5.425  19.382  0.00  0.00    +0.000 N 
ATOM     13  O   UNL     1      47.861   6.944  21.001  0.00  0.00    +0.000 OA
ATOM     14  H   UNL     1      47.589   5.188  18.401  0.00  0.00    +0.000 HD
ATOM     15  H   UNL     1      47.393   4.702  20.080  0.00  0.00    +0.000 HD
ENDBRANCH   6  11
ENDBRANCH   1   2
BRANCH   1  19
ATOM     16  C   UNL     1      45.511   5.832  13.121  0.00  0.00    +0.000 A 
ATOM     17  C   UNL     1      45.798   7.180  12.896  0.00  0.00    +0.000 A 
ATOM     18  C   UNL     1      47.030   7.696  13.278  0.00  0.00    +0.000 A 
ATOM     19  C   UNL     1      47.966   6.848  13.867  0.00  0.00    +0.000 A 
ATOM     20  N   UNL     1      47.703   5.539  14.101  0.00  0.00    +0.000 NA
ATOM     21  C   UNL     1      46.497   5.068  13.733  0.00  0.00    +0.000 A 
BRANCH  16  22
ATOM     22  C   UNL     1      44.192   5.226  12.718  0.00  0.00    +0.000 C 
BRANCH  22  24
ATOM     23  C   UNL     1      43.414   3.543  11.029  0.00  0.00    +0.000 C 
ATOM     24  C   UNL     1      43.973   4.967  11.198  0.00  0.00    +0.000 C 
ATOM     25  C   UNL     1      45.275   5.082  10.392  0.00  0.00    +0.000 C 
BRANCH  24  26
ATOM     26  N   UNL     1      42.982   5.902  10.641  0.00  0.00    +0.000 NA
ATOM     27  H   UNL     1      43.460   6.629  10.105  0.00  0.00    +0.000 HD
ATOM     28  H   UNL     1      42.510   6.389  11.402  0.00  0.00    +0.000 HD
ENDBRANCH  24  26
ENDBRANCH  22  24
ENDBRANCH  16  22
ENDBRANCH   1  19
TORSDOF 6
ENDMDL
MODEL 8
REMARK VINA RESULT:    -5.484      4.088      7.638
REMARK INTER + INTRA:          -7.955
REMARK INTER:                  -7.149
REMARK INTRA:                  -0.806
REMARK UNBOUND:                -0.707
REMARK  Name = 
REMARK  8 active torsions:
REMARK  status: ('A' for Active; 'I' for Inactive)
REMARK    1  A    between atoms: C_1  and  C_2
REMARK    2  A    between atoms: C_2  and  C_3
REMARK    3  A    between atoms: C_2  and  N_4
REMARK    4  A    between atoms: C_2  and  C_5
REMARK    5  A    between atoms: C_5  and  C_6
REMARK    6  A    between atoms: C_9  and  C_10
REMARK    7  A    between atoms: C_10  and  N_11
REMARK    8  A    between atoms: C_15  and  C_16
REMARK                            x       y       z     vdW  Elec       q    Type
REMARK                         _______ _______ _______ _____ _____    ______ ____
ROOT
ATOM      1  C   UNL     1      46.636   8.223  13.312  0.00  0.00    +0.000 C 
ENDROOT
BRANCH   1   2
ATOM      2  N   UNL     1      46.240   7.193  12.363  0.00  0.00    +0.000 N 
ATOM      3  C   UNL     1      45.318   7.420  11.381  0.00  0.00    +0.000 A 
ATOM      4  N   UNL     1      44.579   6.358  11.173  0.00  0.00    +0.000 NA
ATOM      5  C   UNL     1      45.117   5.363  11.965  0.00  0.00    +0.000 A 
ATOM      6  C   UNL     1      44.697   4.054  12.251  0.00  0.00    +0.000 A 
ATOM      7  N   UNL     1      45.494   3.214  12.996  0.00  0.00    +0.000 NA
ATOM      8  C   UNL     1      46.663   3.692  13.477  0.00  0.00    +0.000 A 
ATOM      9  C   UNL     1      47.100   5.005  13.352  0.00  0.00    +0.000 A 
ATOM     10  C   UNL     1      46.269   5.835  12.598  0.00  0.00    +0.000 A 
BRANCH   6  11
ATOM     11  C   UNL     1      43.331   3.566  11.899  0.00  0.00    +0.000 C 
ATOM     12  N   UNL     1      42.379   4.546  11.778  0.00  0.00    +0.000 N 
ATOM     13  O   UNL     1      43.046   2.400  11.663  0.00  0.00    +0.000 OA
ATOM     14  H   UNL     1      42.653   5.519  11.844  0.00  0.00    +0.000 HD
ATOM     15  H   UNL     1      41.477   4.289  11.403  0.00  0.00    +0.000 HD
ENDBRANCH   6  11
ENDBRANCH   1   2
BRANCH   1  19
ATOM     16  C   UNL     1      50.689   9.498  13.204  0.00  0.00    +0.000 A 
ATOM     17  C   UNL     1      50.126   8.935  12.057  0.00  0.00    +0.000 A 
ATOM     18  C   UNL     1      48.818   8.466  12.090  0.00  0.00    +0.000 A 
ATOM     19  C   UNL     1      48.087   8.582  13.270  0.00  0.00    +0.000 A 
ATOM     20  N   UNL     1      48.620   9.117  14.396  0.00  0.00    +0.000 NA
ATOM     21  C   UNL     1      49.892   9.553  14.341  0.00  0.00    +0.000 A 
BRANCH  16  22
ATOM     22  C   UNL     1      52.100  10.026  13.215  0.00  0.00    +0.000 C 
BRANCH  22  24
ATOM     23  C   UNL     1      54.441   9.604  14.010  0.00  0.00    +0.000 C 
ATOM     24  C   UNL     1      53.244   8.971  13.279  0.00  0.00    +0.000 C 
ATOM     25  C   UNL     1      53.702   8.520  11.884  0.00  0.00    +0.000 C 
BRANCH  24  26
ATOM     26  N   UNL     1      52.828   7.788  14.051  0.00  0.00    +0.000 NA
ATOM     27  H   UNL     1      53.650   7.241  14.311  0.00  0.00    +0.000 HD
ATOM     28  H   UNL     1      52.268   7.176  13.458  0.00  0.00    +0.000 HD
ENDBRANCH  24  26
ENDBRANCH  22  24
ENDBRANCH  16  22
ENDBRANCH   1  19
TORSDOF 6
ENDMDL
MODEL 9
REMARK VINA RESULT:    -5.310      3.357      5.454
REMARK INTER + INTRA:          -7.724
REMARK INTER:                  -6.922
REMARK INTRA:                  -0.802
REMARK UNBOUND:                -0.707
REMARK  Name = 
REMARK  8 active torsions:
REMARK  status: ('A' for Active; 'I' for Inactive)
REMARK    1  A    between atoms: C_1  and  C_2
REMARK    2  A    between atoms: C_2  and  C_3
REMARK    3  A    between atoms: C_2  and  N_4
REMARK    4  A    between atoms: C_2  and  C_5
REMARK    5  A    between atoms: C_5  and  C_6
REMARK    6  A    between atoms: C_9  and  C_10
REMARK    7  A    between atoms: C_10  and  N_11
REMARK    8  A    between atoms: C_15  and  C_16
REMARK                            x       y       z     vdW  Elec       q    Type
REMARK                         _______ _______ _______ _____ _____    ______ ____
ROOT
ATOM      1  C   UNL     1      49.772   8.725  15.300  0.00  0.00    +0.000 C 
ENDROOT
BRANCH   1   2
ATOM      2  N   UNL     1      50.053   7.719  16.313  0.00  0.00    +0.000 N 
ATOM      3  C   UNL     1      50.920   6.685  16.098  0.00  0.00    +0.000 A 
ATOM      4  N   UNL     1      50.507   5.592  16.689  0.00  0.00    +0.000 NA
ATOM      5  C   UNL     1      49.391   5.955  17.418  0.00  0.00    +0.000 A 
ATOM      6  C   UNL     1      48.463   5.206  18.159  0.00  0.00    +0.000 A 
ATOM      7  N   UNL     1      47.491   5.839  18.900  0.00  0.00    +0.000 NA
ATOM      8  C   UNL     1      47.428   7.189  18.864  0.00  0.00    +0.000 A 
ATOM      9  C   UNL     1      48.220   8.003  18.065  0.00  0.00    +0.000 A 
ATOM     10  C   UNL     1      49.192   7.333  17.319  0.00  0.00    +0.000 A 
BRANCH   6  11
ATOM     11  C   UNL     1      48.389   3.719  18.062  0.00  0.00    +0.000 C 
ATOM     12  N   UNL     1      49.507   3.053  18.497  0.00  0.00    +0.000 N 
ATOM     13  O   UNL     1      47.406   3.092  17.693  0.00  0.00    +0.000 OA
ATOM     14  H   UNL     1      50.263   3.574  18.925  0.00  0.00    +0.000 HD
ATOM     15  H   UNL     1      49.457   2.048  18.587  0.00  0.00    +0.000 HD
ENDBRANCH   6  11
ENDBRANCH   1   2
BRANCH   1  19
ATOM     16  C   UNL     1      47.034   7.280  12.387  0.00  0.00    +0.000 A 
ATOM     17  C   UNL     1      48.372   6.886  12.312  0.00  0.00    +0.000 A 
ATOM     18  C   UNL     1      49.291   7.390  13.225  0.00  0.00    +0.000 A 
ATOM     19  C   UNL     1      48.852   8.270  14.212  0.00  0.00    +0.000 A 
ATOM     20  N   UNL     1      47.559   8.670  14.295  0.00  0.00    +0.000 NA
ATOM     21  C   UNL     1      46.692   8.177  13.390  0.00  0.00    +0.000 A 
BRANCH  16  22
ATOM     22  C   UNL     1      46.001   6.756  11.423  0.00  0.00    +0.000 C 
BRANCH  22  24
ATOM     23  C   UNL     1      45.892   4.694  12.847  0.00  0.00    +0.000 C 
ATOM     24  C   UNL     1      45.065   5.625  11.944  0.00  0.00    +0.000 C 
ATOM     25  C   UNL     1      44.461   4.795  10.802  0.00  0.00    +0.000 C 
BRANCH  24  26
ATOM     26  N   UNL     1      43.972   6.180  12.760  0.00  0.00    +0.000 NA
ATOM     27  H   UNL     1      43.728   7.112  12.419  0.00  0.00    +0.000 HD
ATOM     28  H   UNL     1      44.299   6.316  13.717  0.00  0.00    +0.000 HD
ENDBRANCH  24  26
ENDBRANCH  22  24
ENDBRANCH  16  22
ENDBRANCH   1  19
TORSDOF 6
ENDMDL
