MODEL 1
REMARK VINA RESULT:    -8.980      0.000      0.000
REMARK INTER + INTRA:         -13.067
REMARK INTER:                 -11.605
REMARK INTRA:                  -1.462
REMARK UNBOUND:                -1.462
REMARK  Name = 
REMARK  6 active torsions:
REMARK  status: ('A' for Active; 'I' for Inactive)
REMARK    1  A    between atoms: C_1  and  C_2
REMARK    2  A    between atoms: C_4  and  C_5
REMARK    3  A    between atoms: C_10  and  N_11
REMARK    4  A    between atoms: N_11  and  C_12
REMARK    5  A    between atoms: C_12  and  C_13
REMARK    6  A    between atoms: C_17  and  C_18
REMARK                            x       y       z     vdW  Elec       q    Type
REMARK                         _______ _______ _______ _____ _____    ______ ____
ROOT
ATOM      1  C   UNL     1      43.991   5.287  11.459  0.00  0.00    +0.000 C 
ATOM      2  C   UNL     1      43.086   4.823  12.592  0.00  0.00    +0.000 C 
ATOM      3  C   UNL     1      42.807   6.129  11.938  0.00  0.00    +0.000 C 
ENDROOT
BRANCH   1   4
ATOM      4  C   UNL     1      45.402   5.686  11.901  0.00  0.00    +0.000 A 
ATOM      5  C   UNL     1      46.153   6.683  11.264  0.00  0.00    +0.000 A 
ATOM      6  C   UNL     1      47.363   7.127  11.806  0.00  0.00    +0.000 A 
ATOM      7  C   UNL     1      47.847   6.585  13.003  0.00  0.00    +0.000 A 
ATOM      8  C   UNL     1      47.142   5.578  13.674  0.00  0.00    +0.000 A 
ATOM      9  C   UNL     1      45.946   5.136  13.078  0.00  0.00    +0.000 A 
BRANCH   8  10
ATOM     10  C   UNL     1      47.537   5.062  15.007  0.00  0.00    +0.000 A 
ATOM     11  C   UNL     1      47.207   3.754  15.409  0.00  0.00    +0.000 A 
ATOM     12  C   UNL     1      47.691   3.218  16.607  0.00  0.00    +0.000 A 
ATOM     13  C   UNL     1      48.514   3.984  17.419  0.00  0.00    +0.000 A 
ATOM     14  F   UNL     1      49.008   3.458  18.547  0.00  0.00    +0.000 F 
ATOM     15  C   UNL     1      48.840   5.285  17.070  0.00  0.00    +0.000 A 
ATOM     16  C   UNL     1      48.343   5.824  15.879  0.00  0.00    +0.000 A 
ENDBRANCH   8  10
ENDBRANCH   1   4
BRANCH   1  17
ATOM     17  N   UNL     1      43.864   4.838  10.058  0.00  0.00    +0.000 N 
ATOM     18  H   UNL     1      42.907   4.696   9.753  0.00  0.00    +0.000 HD
BRANCH  17  25
ATOM     19  C   UNL     1      43.832   1.921  10.438  0.00  0.00    +0.000 C 
ATOM     20  C   UNL     1      44.764   2.634   9.491  0.00  0.00    +0.000 A 
ATOM     21  C   UNL     1      45.613   1.827   8.702  0.00  0.00    +0.000 A 
ATOM     22  C   UNL     1      46.474   2.381   7.750  0.00  0.00    +0.000 A 
ATOM     23  C   UNL     1      46.460   3.764   7.568  0.00  0.00    +0.000 A 
ATOM     24  C   UNL     1      45.610   4.574   8.339  0.00  0.00    +0.000 A 
ATOM     25  C   UNL     1      44.768   4.041   9.323  0.00  0.00    +0.000 A 
BRANCH  22  26
ATOM     26  C   UNL     1      47.346   1.450   6.985  0.00  0.00    +0.000 C 
ATOM     27  N   UNL     1      48.397   1.962   6.273  0.00  0.00    +0.000 N 
ATOM     28  O   UNL     1      47.160   0.231   6.991  0.00  0.00    +0.000 OA
ATOM     29  H   UNL     1      48.672   2.928   6.262  0.00  0.00    +0.000 HD
ATOM     30  H   UNL     1      48.988   1.289   5.800  0.00  0.00    +0.000 HD
ENDBRANCH  22  26
ENDBRANCH  17  25
ENDBRANCH   1  17
TORSDOF 5
ENDMDL
MODEL 2
REMARK VINA RESULT:    -8.671      2.601      3.841
REMARK INTER + INTRA:         -12.667
REMARK INTER:                 -11.365
REMARK INTRA:                  -1.302
REMARK UNBOUND:                -1.462
REMARK  Name = 
REMARK  6 active torsions:
REMARK  status: ('A' for Active; 'I' for Inactive)
REMARK    1  A    between atoms: C_1  and  C_2
REMARK    2  A    between atoms: C_4  and  C_5
REMARK    3  A    between atoms: C_10  and  N_11
REMARK    4  A    between atoms: N_11  and  C_12
REMARK    5  A    between atoms: C_12  and  C_13
REMARK    6  A    between atoms: C_17  and  C_18
REMARK                            x       y       z     vdW  Elec       q    Type
REMARK                         _______ _______ _______ _____ _____    ______ ____
ROOT
ATOM      1  C   UNL     1      43.747   5.313  11.282  0.00  0.00    +0.000 C 
ATOM      2  C   UNL     1      42.519   4.933  12.099  0.00  0.00    +0.000 C 
ATOM      3  C   UNL     1      42.656   6.332  11.614  0.00  0.00    +0.000 C 
ENDROOT
BRANCH   1   4
ATOM      4  C   UNL     1      45.052   5.348  12.082  0.00  0.00    +0.000 A 
ATOM      5  C   UNL     1      45.534   4.254  12.813  0.00  0.00    +0.000 A 
ATOM      6  C   UNL     1      46.809   4.280  13.387  0.00  0.00    +0.000 A 
ATOM      7  C   UNL     1      47.633   5.401  13.239  0.00  0.00    +0.000 A 
ATOM      8  C   UNL     1      47.195   6.526  12.528  0.00  0.00    +0.000 A 
ATOM      9  C   UNL     1      45.894   6.473  11.994  0.00  0.00    +0.000 A 
BRANCH   8  10
ATOM     10  C   UNL     1      48.070   7.686  12.227  0.00  0.00    +0.000 A 
ATOM     11  C   UNL     1      49.450   7.518  12.004  0.00  0.00    +0.000 A 
ATOM     12  C   UNL     1      50.255   8.585  11.590  0.00  0.00    +0.000 A 
ATOM     13  C   UNL     1      49.687   9.835  11.389  0.00  0.00    +0.000 A 
ATOM     14  F   UNL     1      50.449  10.848  10.956  0.00  0.00    +0.000 F 
ATOM     15  C   UNL     1      48.337  10.046  11.623  0.00  0.00    +0.000 A 
ATOM     16  C   UNL     1      47.539   8.981  12.053  0.00  0.00    +0.000 A 
ENDBRANCH   8  10
ENDBRANCH   1   4
BRANCH   1  17
ATOM     17  N   UNL     1      43.892   5.059   9.834  0.00  0.00    +0.000 N 
ATOM     18  H   UNL     1      43.026   5.134   9.310  0.00  0.00    +0.000 HD
BRANCH  17  25
ATOM     19  C   UNL     1      43.778   2.176  10.405  0.00  0.00    +0.000 C 
ATOM     20  C   UNL     1      44.770   2.805   9.459  0.00  0.00    +0.000 A 
ATOM     21  C   UNL     1      45.636   1.932   8.768  0.00  0.00    +0.000 A 
ATOM     22  C   UNL     1      46.553   2.403   7.823  0.00  0.00    +0.000 A 
ATOM     23  C   UNL     1      46.578   3.770   7.549  0.00  0.00    +0.000 A 
ATOM     24  C   UNL     1      45.711   4.647   8.222  0.00  0.00    +0.000 A 
ATOM     25  C   UNL     1      44.813   4.197   9.198  0.00  0.00    +0.000 A 
BRANCH  22  26
ATOM     26  C   UNL     1      47.439   1.406   7.165  0.00  0.00    +0.000 C 
ATOM     27  N   UNL     1      48.496   1.852   6.418  0.00  0.00    +0.000 N 
ATOM     28  O   UNL     1      47.260   0.193   7.291  0.00  0.00    +0.000 OA
ATOM     29  H   UNL     1      48.766   2.813   6.314  0.00  0.00    +0.000 HD
ATOM     30  H   UNL     1      49.097   1.139   6.022  0.00  0.00    +0.000 HD
ENDBRANCH  22  26
ENDBRANCH  17  25
ENDBRANCH   1  17
TORSDOF 5
ENDMDL
MODEL 3
REMARK VINA RESULT:    -7.959      1.859      2.483
REMARK INTER + INTRA:         -11.747
REMARK INTER:                 -10.322
REMARK INTRA:                  -1.425
REMARK UNBOUND:                -1.462
REMARK  Name = 
REMARK  6 active torsions:
REMARK  status: ('A' for Active; 'I' for Inactive)
REMARK    1  A    between atoms: C_1  and  C_2
REMARK    2  A    between atoms: C_4  and  C_5
REMARK    3  A    between atoms: C_10  and  N_11
REMARK    4  A    between atoms: N_11  and  C_12
REMARK    5  A    between atoms: C_12  and  C_13
REMARK    6  A    between atoms: C_17  and  C_18
REMARK                            x       y       z     vdW  Elec       q    Type
REMARK                         _______ _______ _______ _____ _____    ______ ____
ROOT
ATOM      1  C   UNL     1      44.368   5.187  11.618  0.00  0.00    +0.000 C 
ATOM      2  C   UNL     1      44.600   4.186  12.742  0.00  0.00    +0.000 C 
ATOM      3  C   UNL     1      43.239   4.755  12.555  0.00  0.00    +0.000 C 
ENDROOT
BRANCH   1   4
ATOM      4  C   UNL     1      45.025   6.552  11.841  0.00  0.00    +0.000 A 
ATOM      5  C   UNL     1      44.495   7.750  11.346  0.00  0.00    +0.000 A 
ATOM      6  C   UNL     1      45.038   8.984  11.718  0.00  0.00    +0.000 A 
ATOM      7  C   UNL     1      46.124   9.046  12.599  0.00  0.00    +0.000 A 
ATOM      8  C   UNL     1      46.700   7.877  13.113  0.00  0.00    +0.000 A 
ATOM      9  C   UNL     1      46.145   6.656  12.689  0.00  0.00    +0.000 A 
BRANCH   8  10
ATOM     10  C   UNL     1      47.763   7.885  14.148  0.00  0.00    +0.000 A 
ATOM     11  C   UNL     1      48.129   9.075  14.807  0.00  0.00    +0.000 A 
ATOM     12  C   UNL     1      49.033   9.066  15.875  0.00  0.00    +0.000 A 
ATOM     13  C   UNL     1      49.581   7.865  16.300  0.00  0.00    +0.000 A 
ATOM     14  F   UNL     1      50.417   7.850  17.346  0.00  0.00    +0.000 F 
ATOM     15  C   UNL     1      49.265   6.676  15.661  0.00  0.00    +0.000 A 
ATOM     16  C   UNL     1      48.373   6.690  14.583  0.00  0.00    +0.000 A 
ENDBRANCH   8  10
ENDBRANCH   1   4
BRANCH   1  17
ATOM     17  N   UNL     1      44.136   4.813  10.208  0.00  0.00    +0.000 N 
ATOM     18  H   UNL     1      43.182   4.533  10.004  0.00  0.00    +0.000 HD
BRANCH  17  25
ATOM     19  C   UNL     1      44.101   1.896   9.833  0.00  0.00    +0.000 C 
ATOM     20  C   UNL     1      45.049   2.822   9.114  0.00  0.00    +0.000 A 
ATOM     21  C   UNL     1      45.912   2.241   8.161  0.00  0.00    +0.000 A 
ATOM     22  C   UNL     1      46.789   3.015   7.396  0.00  0.00    +0.000 A 
ATOM     23  C   UNL     1      46.776   4.399   7.571  0.00  0.00    +0.000 A 
ATOM     24  C   UNL     1      45.912   4.989   8.508  0.00  0.00    +0.000 A 
ATOM     25  C   UNL     1      45.054   4.226   9.310  0.00  0.00    +0.000 A 
BRANCH  22  26
ATOM     26  C   UNL     1      47.676   2.307   6.435  0.00  0.00    +0.000 C 
ATOM     27  N   UNL     1      47.901   2.867   5.206  0.00  0.00    +0.000 N 
ATOM     28  O   UNL     1      48.227   1.242   6.721  0.00  0.00    +0.000 OA
ATOM     29  H   UNL     1      47.556   3.761   4.906  0.00  0.00    +0.000 HD
ATOM     30  H   UNL     1      48.542   2.372   4.599  0.00  0.00    +0.000 HD
ENDBRANCH  22  26
ENDBRANCH  17  25
ENDBRANCH   1  17
TORSDOF 5
ENDMDL
MODEL 4
REMARK VINA RESULT:    -7.655      4.141      7.889
REMARK INTER + INTRA:         -11.354
REMARK INTER:                 -10.584
REMARK INTRA:                  -0.770
REMARK UNBOUND:                -1.462
REMARK  Name = 
REMARK  6 active torsions:
REMARK  status: ('A' for Active; 'I' for Inactive)
REMARK    1  A    between atoms: C_1  and  C_2
REMARK    2  A    between atoms: C_4  and  C_5
REMARK    3  A    between atoms: C_10  and  N_11
REMARK    4  A    between atoms: N_11  and  C_12
REMARK    5  A    between atoms: C_12  and  C_13
REMARK    6  A    between atoms: C_17  and  C_18
REMARK                            x       y       z     vdW  Elec       q    Type
REMARK                         _______ _______ _______ _____ _____    ______ ____
ROOT
ATOM      1  C   UNL     1      46.217   7.316  12.297  0.00  0.00    +0.000 C 
ATOM      2  C   UNL     1      46.063   8.707  11.697  0.00  0.00    +0.000 C 
ATOM      3  C   UNL     1      45.656   8.484  13.110  0.00  0.00    +0.000 C 
ENDROOT
BRANCH   1   4
ATOM      4  C   UNL     1      45.242   6.275  11.739  0.00  0.00    +0.000 A 
ATOM      5  C   UNL     1      43.864   6.300  11.992  0.00  0.00    +0.000 A 
ATOM      6  C   UNL     1      42.996   5.430  11.325  0.00  0.00    +0.000 A 
ATOM      7  C   UNL     1      43.488   4.518  10.385  0.00  0.00    +0.000 A 
ATOM      8  C   UNL     1      44.858   4.443  10.103  0.00  0.00    +0.000 A 
ATOM      9  C   UNL     1      45.702   5.312  10.819  0.00  0.00    +0.000 A 
BRANCH   8  10
ATOM     10  C   UNL     1      45.419   3.591   9.026  0.00  0.00    +0.000 A 
ATOM     11  C   UNL     1      46.073   4.158   7.915  0.00  0.00    +0.000 A 
ATOM     12  C   UNL     1      46.720   3.359   6.966  0.00  0.00    +0.000 A 
ATOM     13  C   UNL     1      46.723   1.980   7.118  0.00  0.00    +0.000 A 
ATOM     14  F   UNL     1      47.374   1.217   6.230  0.00  0.00    +0.000 F 
ATOM     15  C   UNL     1      46.068   1.384   8.183  0.00  0.00    +0.000 A 
ATOM     16  C   UNL     1      45.409   2.184   9.122  0.00  0.00    +0.000 A 
ENDBRANCH   8  10
ENDBRANCH   1   4
BRANCH   1  17
ATOM     17  N   UNL     1      47.484   6.780  12.837  0.00  0.00    +0.000 N 
ATOM     18  H   UNL     1      48.146   6.487  12.127  0.00  0.00    +0.000 HD
BRANCH  17  25
ATOM     19  C   UNL     1      49.267   7.931  14.873  0.00  0.00    +0.000 C 
ATOM     20  C   UNL     1      48.531   6.626  15.044  0.00  0.00    +0.000 A 
ATOM     21  C   UNL     1      48.667   5.973  16.287  0.00  0.00    +0.000 A 
ATOM     22  C   UNL     1      47.981   4.789  16.574  0.00  0.00    +0.000 A 
ATOM     23  C   UNL     1      47.122   4.270  15.605  0.00  0.00    +0.000 A 
ATOM     24  C   UNL     1      46.970   4.918  14.369  0.00  0.00    +0.000 A 
ATOM     25  C   UNL     1      47.678   6.084  14.050  0.00  0.00    +0.000 A 
BRANCH  22  26
ATOM     26  C   UNL     1      48.208   4.165  17.905  0.00  0.00    +0.000 C 
ATOM     27  N   UNL     1      47.659   2.937  18.162  0.00  0.00    +0.000 N 
ATOM     28  O   UNL     1      48.892   4.712  18.772  0.00  0.00    +0.000 OA
ATOM     29  H   UNL     1      47.148   2.382  17.500  0.00  0.00    +0.000 HD
ATOM     30  H   UNL     1      47.873   2.532  19.065  0.00  0.00    +0.000 HD
ENDBRANCH  22  26
ENDBRANCH  17  25
ENDBRANCH   1  17
TORSDOF 5
ENDMDL
MODEL 5
REMARK VINA RESULT:    -7.337      4.055      7.319
REMARK INTER + INTRA:         -10.943
REMARK INTER:                  -9.526
REMARK INTRA:                  -1.417
REMARK UNBOUND:                -1.462
REMARK  Name = 
REMARK  6 active torsions:
REMARK  status: ('A' for Active; 'I' for Inactive)
REMARK    1  A    between atoms: C_1  and  C_2
REMARK    2  A    between atoms: C_4  and  C_5
REMARK    3  A    between atoms: C_10  and  N_11
REMARK    4  A    between atoms: N_11  and  C_12
REMARK    5  A    between atoms: C_12  and  C_13
REMARK    6  A    between atoms: C_17  and  C_18
REMARK                            x       y       z     vdW  Elec       q    Type
REMARK                         _______ _______ _______ _____ _____    ______ ____
ROOT
ATOM      1  C   UNL     1      43.915   5.947  11.829  0.00  0.00    +0.000 C 
ATOM      2  C   UNL     1      43.419   6.864  10.719  0.00  0.00    +0.000 C 
ATOM      3  C   UNL     1      42.522   6.576  11.870  0.00  0.00    +0.000 C 
ENDROOT
BRANCH   1   4
ATOM      4  C   UNL     1      44.044   4.476  11.422  0.00  0.00    +0.000 A 
ATOM      5  C   UNL     1      43.301   3.447  12.015  0.00  0.00    +0.000 A 
ATOM      6  C   UNL     1      43.330   2.149  11.496  0.00  0.00    +0.000 A 
ATOM      7  C   UNL     1      44.103   1.853  10.367  0.00  0.00    +0.000 A 
ATOM      8  C   UNL     1      44.874   2.841   9.743  0.00  0.00    +0.000 A 
ATOM      9  C   UNL     1      44.843   4.126  10.315  0.00  0.00    +0.000 A 
BRANCH   8  10
ATOM     10  C   UNL     1      45.605   2.617   8.471  0.00  0.00    +0.000 A 
ATOM     11  C   UNL     1      45.754   3.650   7.526  0.00  0.00    +0.000 A 
ATOM     12  C   UNL     1      46.554   3.485   6.390  0.00  0.00    +0.000 A 
ATOM     13  C   UNL     1      47.218   2.284   6.186  0.00  0.00    +0.000 A 
ATOM     14  F   UNL     1      48.013   2.138   5.118  0.00  0.00    +0.000 F 
ATOM     15  C   UNL     1      47.075   1.235   7.081  0.00  0.00    +0.000 A 
ATOM     16  C   UNL     1      46.263   1.397   8.208  0.00  0.00    +0.000 A 
ENDBRANCH   8  10
ENDBRANCH   1   4
BRANCH   1  17
ATOM     17  N   UNL     1      44.790   6.382  12.937  0.00  0.00    +0.000 N 
ATOM     18  H   UNL     1      44.294   6.799  13.718  0.00  0.00    +0.000 HD
BRANCH  17  25
ATOM     19  C   UNL     1      46.978   4.663  13.886  0.00  0.00    +0.000 C 
ATOM     20  C   UNL     1      47.185   6.037  13.301  0.00  0.00    +0.000 A 
ATOM     21  C   UNL     1      48.519   6.472  13.147  0.00  0.00    +0.000 A 
ATOM     22  C   UNL     1      48.826   7.704  12.561  0.00  0.00    +0.000 A 
ATOM     23  C   UNL     1      47.776   8.497  12.096  0.00  0.00    +0.000 A 
ATOM     24  C   UNL     1      46.446   8.067  12.234  0.00  0.00    +0.000 A 
ATOM     25  C   UNL     1      46.118   6.854  12.852  0.00  0.00    +0.000 A 
BRANCH  22  26
ATOM     26  C   UNL     1      50.261   8.083  12.464  0.00  0.00    +0.000 C 
ATOM     27  N   UNL     1      51.090   7.809  13.519  0.00  0.00    +0.000 N 
ATOM     28  O   UNL     1      50.726   8.618  11.456  0.00  0.00    +0.000 OA
ATOM     29  H   UNL     1      50.823   7.315  14.352  0.00  0.00    +0.000 HD
ATOM     30  H   UNL     1      52.066   8.047  13.395  0.00  0.00    +0.000 HD
ENDBRANCH  22  26
ENDBRANCH  17  25
ENDBRANCH   1  17
TORSDOF 5
ENDMDL
MODEL 6
REMARK VINA RESULT:    -7.051      4.416      7.858
REMARK INTER + INTRA:         -10.574
REMARK INTER:                  -9.069
REMARK INTRA:                  -1.504
REMARK UNBOUND:                -1.462
REMARK  Name = 
REMARK  6 active torsions:
REMARK  status: ('A' for Active; 'I' for Inactive)
REMARK    1  A    between atoms: C_1  and  C_2
REMARK    2  A    between atoms: C_4  and  C_5
REMARK    3  A    between atoms: C_10  and  N_11
REMARK    4  A    between atoms: N_11  and  C_12
REMARK    5  A    between atoms: C_12  and  C_13
REMARK    6  A    between atoms: C_17  and  C_18
REMARK                            x       y       z     vdW  Elec       q    Type
REMARK                         _______ _______ _______ _____ _____    ______ ____
ROOT
ATOM      1  C   UNL     1      48.778   7.958  16.029  0.00  0.00    +0.000 C 
ATOM      2  C   UNL     1      49.789   8.997  16.497  0.00  0.00    +0.000 C 
ATOM      3  C   UNL     1      48.339   9.267  16.688  0.00  0.00    +0.000 C 
ENDROOT
BRANCH   1   4
ATOM      4  C   UNL     1      48.664   7.827  14.508  0.00  0.00    +0.000 A 
ATOM      5  C   UNL     1      49.629   8.322  13.620  0.00  0.00    +0.000 A 
ATOM      6  C   UNL     1      49.564   8.031  12.254  0.00  0.00    +0.000 A 
ATOM      7  C   UNL     1      48.533   7.233  11.746  0.00  0.00    +0.000 A 
ATOM      8  C   UNL     1      47.536   6.723  12.587  0.00  0.00    +0.000 A 
ATOM      9  C   UNL     1      47.619   7.066  13.950  0.00  0.00    +0.000 A 
BRANCH   8  10
ATOM     10  C   UNL     1      46.499   5.767  12.129  0.00  0.00    +0.000 A 
ATOM     11  C   UNL     1      45.928   5.872  10.846  0.00  0.00    +0.000 A 
ATOM     12  C   UNL     1      45.050   4.898  10.359  0.00  0.00    +0.000 A 
ATOM     13  C   UNL     1      44.733   3.803  11.149  0.00  0.00    +0.000 A 
ATOM     14  F   UNL     1      43.922   2.851  10.669  0.00  0.00    +0.000 F 
ATOM     15  C   UNL     1      45.254   3.677  12.427  0.00  0.00    +0.000 A 
ATOM     16  C   UNL     1      46.120   4.660  12.917  0.00  0.00    +0.000 A 
ENDBRANCH   8  10
ENDBRANCH   1   4
BRANCH   1  17
ATOM     17  N   UNL     1      48.405   6.756  16.804  0.00  0.00    +0.000 N 
ATOM     18  H   UNL     1      47.741   6.934  17.550  0.00  0.00    +0.000 HD
BRANCH  17  25
ATOM     19  C   UNL     1      47.153   4.095  16.789  0.00  0.00    +0.000 C 
ATOM     20  C   UNL     1      48.616   4.332  17.067  0.00  0.00    +0.000 A 
ATOM     21  C   UNL     1      49.423   3.191  17.259  0.00  0.00    +0.000 A 
ATOM     22  C   UNL     1      50.803   3.294  17.464  0.00  0.00    +0.000 A 
ATOM     23  C   UNL     1      51.382   4.562  17.446  0.00  0.00    +0.000 A 
ATOM     24  C   UNL     1      50.590   5.704  17.243  0.00  0.00    +0.000 A 
ATOM     25  C   UNL     1      49.202   5.623  17.073  0.00  0.00    +0.000 A 
BRANCH  22  26
ATOM     26  C   UNL     1      51.563   2.034  17.680  0.00  0.00    +0.000 C 
ATOM     27  N   UNL     1      52.630   2.044  18.539  0.00  0.00    +0.000 N 
ATOM     28  O   UNL     1      51.249   0.980  17.124  0.00  0.00    +0.000 OA
ATOM     29  H   UNL     1      52.920   2.831  19.091  0.00  0.00    +0.000 HD
ATOM     30  H   UNL     1      53.093   1.157  18.688  0.00  0.00    +0.000 HD
ENDBRANCH  22  26
ENDBRANCH  17  25
ENDBRANCH   1  17
TORSDOF 5
ENDMDL
MODEL 7
REMARK VINA RESULT:    -6.865      3.644      5.682
REMARK INTER + INTRA:         -10.333
REMARK INTER:                  -8.786
REMARK INTRA:                  -1.547
REMARK UNBOUND:                -1.462
REMARK  Name = 
REMARK  6 active torsions:
REMARK  status: ('A' for Active; 'I' for Inactive)
REMARK    1  A    between atoms: C_1  and  C_2
REMARK    2  A    between atoms: C_4  and  C_5
REMARK    3  A    between atoms: C_10  and  N_11
REMARK    4  A    between atoms: N_11  and  C_12
REMARK    5  A    between atoms: C_12  and  C_13
REMARK    6  A    between atoms: C_17  and  C_18
REMARK                            x       y       z     vdW  Elec       q    Type
REMARK                         _______ _______ _______ _____ _____    ______ ____
ROOT
ATOM      1  C   UNL     1      48.726   7.706  14.444  0.00  0.00    +0.000 C 
ATOM      2  C   UNL     1      48.191   9.122  14.281  0.00  0.00    +0.000 C 
ATOM      3  C   UNL     1      49.559   8.809  13.789  0.00  0.00    +0.000 C 
ENDROOT
BRANCH   1   4
ATOM      4  C   UNL     1      49.038   7.311  15.890  0.00  0.00    +0.000 A 
ATOM      5  C   UNL     1      48.522   7.992  17.000  0.00  0.00    +0.000 A 
ATOM      6  C   UNL     1      48.700   7.493  18.295  0.00  0.00    +0.000 A 
ATOM      7  C   UNL     1      49.394   6.296  18.506  0.00  0.00    +0.000 A 
ATOM      8  C   UNL     1      49.941   5.582  17.432  0.00  0.00    +0.000 A 
ATOM      9  C   UNL     1      49.769   6.135  16.149  0.00  0.00    +0.000 A 
BRANCH   8  10
ATOM     10  C   UNL     1      50.570   4.247  17.582  0.00  0.00    +0.000 A 
ATOM     11  C   UNL     1      49.874   3.072  17.240  0.00  0.00    +0.000 A 
ATOM     12  C   UNL     1      50.506   1.823  17.253  0.00  0.00    +0.000 A 
ATOM     13  C   UNL     1      51.844   1.735  17.605  0.00  0.00    +0.000 A 
ATOM     14  F   UNL     1      52.460   0.546  17.581  0.00  0.00    +0.000 F 
ATOM     15  C   UNL     1      52.556   2.866  17.973  0.00  0.00    +0.000 A 
ATOM     16  C   UNL     1      51.918   4.111  17.975  0.00  0.00    +0.000 A 
ENDBRANCH   8  10
ENDBRANCH   1   4
BRANCH   1  17
ATOM     17  N   UNL     1      48.408   6.589  13.530  0.00  0.00    +0.000 N 
ATOM     18  H   UNL     1      49.153   6.359  12.881  0.00  0.00    +0.000 HD
BRANCH  17  25
ATOM     19  C   UNL     1      46.889   4.457  14.870  0.00  0.00    +0.000 C 
ATOM     20  C   UNL     1      46.395   5.203  13.656  0.00  0.00    +0.000 A 
ATOM     21  C   UNL     1      45.098   4.890  13.198  0.00  0.00    +0.000 A 
ATOM     22  C   UNL     1      44.519   5.563  12.117  0.00  0.00    +0.000 A 
ATOM     23  C   UNL     1      45.245   6.586  11.508  0.00  0.00    +0.000 A 
ATOM     24  C   UNL     1      46.532   6.914  11.965  0.00  0.00    +0.000 A 
ATOM     25  C   UNL     1      47.143   6.225  13.021  0.00  0.00    +0.000 A 
BRANCH  22  26
ATOM     26  C   UNL     1      43.156   5.145  11.695  0.00  0.00    +0.000 C 
ATOM     27  N   UNL     1      42.132   6.051  11.770  0.00  0.00    +0.000 N 
ATOM     28  O   UNL     1      42.927   4.014  11.260  0.00  0.00    +0.000 OA
ATOM     29  H   UNL     1      42.230   7.013  12.042  0.00  0.00    +0.000 HD
ATOM     30  H   UNL     1      41.230   5.737  11.434  0.00  0.00    +0.000 HD
ENDBRANCH  22  26
ENDBRANCH  17  25
ENDBRANCH   1  17
TORSDOF 5
ENDMDL
MODEL 8
REMARK VINA RESULT:    -6.839      4.571      8.266
REMARK INTER + INTRA:         -10.300
REMARK INTER:                  -8.986
REMARK INTRA:                  -1.315
REMARK UNBOUND:                -1.462
REMARK  Name = 
REMARK  6 active torsions:
REMARK  status: ('A' for Active; 'I' for Inactive)
REMARK    1  A    between atoms: C_1  and  C_2
REMARK    2  A    between atoms: C_4  and  C_5
REMARK    3  A    between atoms: C_10  and  N_11
REMARK    4  A    between atoms: N_11  and  C_12
REMARK    5  A    between atoms: C_12  and  C_13
REMARK    6  A    between atoms: C_17  and  C_18
REMARK                            x       y       z     vdW  Elec       q    Type
REMARK                         _______ _______ _______ _____ _____    ______ ____
ROOT
ATOM      1  C   UNL     1      49.070   8.162  12.753  0.00  0.00    +0.000 C 
ATOM      2  C   UNL     1      49.985   7.583  11.681  0.00  0.00    +0.000 C 
ATOM      3  C   UNL     1      49.864   9.060  11.801  0.00  0.00    +0.000 C 
ENDROOT
BRANCH   1   4
ATOM      4  C   UNL     1      47.577   7.952  12.489  0.00  0.00    +0.000 A 
ATOM      5  C   UNL     1      46.617   8.957  12.668  0.00  0.00    +0.000 A 
ATOM      6  C   UNL     1      45.294   8.769  12.255  0.00  0.00    +0.000 A 
ATOM      7  C   UNL     1      44.904   7.570  11.648  0.00  0.00    +0.000 A 
ATOM      8  C   UNL     1      45.820   6.528  11.456  0.00  0.00    +0.000 A 
ATOM      9  C   UNL     1      47.133   6.745  11.915  0.00  0.00    +0.000 A 
BRANCH   8  10
ATOM     10  C   UNL     1      45.497   5.292  10.702  0.00  0.00    +0.000 A 
ATOM     11  C   UNL     1      44.890   4.191  11.336  0.00  0.00    +0.000 A 
ATOM     12  C   UNL     1      44.462   3.077  10.606  0.00  0.00    +0.000 A 
ATOM     13  C   UNL     1      44.632   3.052   9.229  0.00  0.00    +0.000 A 
ATOM     14  F   UNL     1      44.189   2.003   8.524  0.00  0.00    +0.000 F 
ATOM     15  C   UNL     1      45.248   4.106   8.572  0.00  0.00    +0.000 A 
ATOM     16  C   UNL     1      45.689   5.211   9.307  0.00  0.00    +0.000 A 
ENDBRANCH   8  10
ENDBRANCH   1   4
BRANCH   1  17
ATOM     17  N   UNL     1      49.453   8.325  14.170  0.00  0.00    +0.000 N 
ATOM     18  H   UNL     1      50.029   9.139  14.354  0.00  0.00    +0.000 HD
BRANCH  17  25
ATOM     19  C   UNL     1      52.150   7.957  15.285  0.00  0.00    +0.000 C 
ATOM     20  C   UNL     1      50.959   7.120  15.677  0.00  0.00    +0.000 A 
ATOM     21  C   UNL     1      51.159   6.158  16.690  0.00  0.00    +0.000 A 
ATOM     22  C   UNL     1      50.110   5.369  17.172  0.00  0.00    +0.000 A 
ATOM     23  C   UNL     1      48.834   5.572  16.647  0.00  0.00    +0.000 A 
ATOM     24  C   UNL     1      48.621   6.536  15.648  0.00  0.00    +0.000 A 
ATOM     25  C   UNL     1      49.666   7.309  15.127  0.00  0.00    +0.000 A 
BRANCH  22  26
ATOM     26  C   UNL     1      50.427   4.366  18.223  0.00  0.00    +0.000 C 
ATOM     27  N   UNL     1      49.977   3.083  18.071  0.00  0.00    +0.000 N 
ATOM     28  O   UNL     1      51.100   4.654  19.215  0.00  0.00    +0.000 OA
ATOM     29  H   UNL     1      49.484   2.734  17.269  0.00  0.00    +0.000 HD
ATOM     30  H   UNL     1      50.250   2.424  18.790  0.00  0.00    +0.000 HD
ENDBRANCH  22  26
ENDBRANCH  17  25
ENDBRANCH   1  17
TORSDOF 5
ENDMDL
MODEL 9
REMARK VINA RESULT:    -6.786      4.108      7.411
REMARK INTER + INTRA:         -10.231
REMARK INTER:                  -9.439
REMARK INTRA:                  -0.792
REMARK UNBOUND:                -1.462
REMARK  Name = 
REMARK  6 active torsions:
REMARK  status: ('A' for Active; 'I' for Inactive)
REMARK    1  A    between atoms: C_1  and  C_2
REMARK    2  A    between atoms: C_4  and  C_5
REMARK    3  A    between atoms: C_10  and  N_11
REMARK    4  A    between atoms: N_11  and  C_12
REMARK    5  A    between atoms: C_12  and  C_13
REMARK    6  A    between atoms: C_17  and  C_18
REMARK                            x       y       z     vdW  Elec       q    Type
REMARK                         _______ _______ _______ _____ _____    ______ ____
ROOT
ATOM      1  C   UNL     1      46.285   5.133  13.884  0.00  0.00    +0.000 C 
ATOM      2  C   UNL     1      46.217   4.158  15.051  0.00  0.00    +0.000 C 
ATOM      3  C   UNL     1      47.363   4.071  14.107  0.00  0.00    +0.000 C 
ENDROOT
BRANCH   1   4
ATOM      4  C   UNL     1      45.233   4.893  12.798  0.00  0.00    +0.000 A 
ATOM      5  C   UNL     1      43.955   5.467  12.826  0.00  0.00    +0.000 A 
ATOM      6  C   UNL     1      43.093   5.353  11.731  0.00  0.00    +0.000 A 
ATOM      7  C   UNL     1      43.492   4.664  10.580  0.00  0.00    +0.000 A 
ATOM      8  C   UNL     1      44.754   4.061  10.504  0.00  0.00    +0.000 A 
ATOM      9  C   UNL     1      45.579   4.170  11.639  0.00  0.00    +0.000 A 
BRANCH   8  10
ATOM     10  C   UNL     1      45.280   3.434   9.267  0.00  0.00    +0.000 A 
ATOM     11  C   UNL     1      45.746   4.218   8.195  0.00  0.00    +0.000 A 
ATOM     12  C   UNL     1      46.365   3.636   7.083  0.00  0.00    +0.000 A 
ATOM     13  C   UNL     1      46.528   2.259   7.032  0.00  0.00    +0.000 A 
ATOM     14  F   UNL     1      47.154   1.704   5.986  0.00  0.00    +0.000 F 
ATOM     15  C   UNL     1      46.060   1.452   8.056  0.00  0.00    +0.000 A 
ATOM     16  C   UNL     1      45.428   2.035   9.159  0.00  0.00    +0.000 A 
ENDBRANCH   8  10
ENDBRANCH   1   4
BRANCH   1  17
ATOM     17  N   UNL     1      46.793   6.517  13.987  0.00  0.00    +0.000 N 
ATOM     18  H   UNL     1      46.072   7.214  14.140  0.00  0.00    +0.000 HD
BRANCH  17  25
ATOM     19  C   UNL     1      49.230   7.001  15.560  0.00  0.00    +0.000 C 
ATOM     20  C   UNL     1      49.107   7.306  14.088  0.00  0.00    +0.000 A 
ATOM     21  C   UNL     1      50.263   7.786  13.436  0.00  0.00    +0.000 A 
ATOM     22  C   UNL     1      50.278   8.043  12.062  0.00  0.00    +0.000 A 
ATOM     23  C   UNL     1      49.119   7.787  11.328  0.00  0.00    +0.000 A 
ATOM     24  C   UNL     1      47.967   7.298  11.965  0.00  0.00    +0.000 A 
ATOM     25  C   UNL     1      47.923   7.069  13.346  0.00  0.00    +0.000 A 
BRANCH  22  26
ATOM     26  C   UNL     1      51.538   8.569  11.472  0.00  0.00    +0.000 C 
ATOM     27  N   UNL     1      52.686   7.836  11.604  0.00  0.00    +0.000 N 
ATOM     28  O   UNL     1      51.572   9.633  10.852  0.00  0.00    +0.000 OA
ATOM     29  H   UNL     1      52.747   6.927  12.028  0.00  0.00    +0.000 HD
ATOM     30  H   UNL     1      53.511   8.210  11.153  0.00  0.00    +0.000 HD
ENDBRANCH  22  26
ENDBRANCH  17  25
ENDBRANCH   1  17
TORSDOF 5
ENDMDL
