MODEL 1
REMARK VINA RESULT:    -7.907      0.000      0.000
REMARK INTER + INTRA:         -11.723
REMARK INTER:                 -10.680
REMARK INTRA:                  -1.043
REMARK UNBOUND:                -1.043
REMARK  Name = 
REMARK  6 active torsions:
REMARK  status: ('A' for Active; 'I' for Inactive)
REMARK    1  A    between atoms: C_2  and  C_25
REMARK    2  A    between atoms: N_3  and  C_4
REMARK    3  A    between atoms: C_4  and  C_5
REMARK    4  A    between atoms: C_8  and  C_9
REMARK    5  A    between atoms: C_9  and  N_10
REMARK    6  A    between atoms: C_11  and  C_13
REMARK                            x       y       z     vdW  Elec       q    Type
REMARK                         _______ _______ _______ _____ _____    ______ ____
ROOT
ATOM      1  C   UNL     1      45.127   6.210  11.022  0.00  0.00    +0.000 A 
ATOM      2  C   UNL     1      44.542   7.309  11.647  0.00  0.00    +0.000 A 
ATOM      3  C   UNL     1      45.299   8.060  12.545  0.00  0.00    +0.000 A 
ATOM      4  C   UNL     1      46.620   7.698  12.814  0.00  0.00    +0.000 A 
ATOM      5  C   UNL     1      47.131   6.609  12.116  0.00  0.00    +0.000 A 
ATOM      6  N   UNL     1      46.423   5.865  11.232  0.00  0.00    +0.000 NA
ENDROOT
BRANCH   1   7
ATOM      7  C   UNL     1      44.320   5.366  10.062  0.00  0.00    +0.000 C 
BRANCH   7  10
ATOM      8  O   UNL     1      44.357   2.578   9.645  0.00  0.00    +0.000 OA
ATOM      9  C   UNL     1      45.088   3.290   8.964  0.00  0.00    +0.000 C 
ATOM     10  N   UNL     1      45.152   4.653   9.117  0.00  0.00    +0.000 N 
ATOM     11  H   UNL     1      45.619   5.206   8.416  0.00  0.00    +0.000 HD
BRANCH   9  12
ATOM     12  C   UNL     1      45.936   2.755   7.920  0.00  0.00    +0.000 A 
ATOM     13  C   UNL     1      46.396   3.298   6.729  0.00  0.00    +0.000 A 
ATOM     14  C   UNL     1      47.187   2.324   6.073  0.00  0.00    +0.000 A 
ATOM     15  C   UNL     1      47.212   1.211   6.878  0.00  0.00    +0.000 A 
ATOM     16  N   UNL     1      46.475   1.487   8.000  0.00  0.00    +0.000 N 
ATOM     17  H   UNL     1      46.326   0.862   8.783  0.00  0.00    +0.000 HD
ENDBRANCH   9  12
ENDBRANCH   7  10
ENDBRANCH   1   7
BRANCH   4  18
ATOM     18  C   UNL     1      47.464   8.470  13.786  0.00  0.00    +0.000 C 
BRANCH  18  19
ATOM     19  N   UNL     1      47.797   7.677  14.944  0.00  0.00    +0.000 N 
ATOM     20  C   UNL     1      49.014   7.054  15.059  0.00  0.00    +0.000 C 
ATOM     21  O   UNL     1      49.894   7.182  14.213  0.00  0.00    +0.000 OA
ATOM     22  H   UNL     1      47.021   7.349  15.511  0.00  0.00    +0.000 HD
BRANCH  20  23
ATOM     23  C   UNL     1      49.232   6.275  16.285  0.00  0.00    +0.000 A 
ATOM     24  C   UNL     1      50.227   6.652  17.178  0.00  0.00    +0.000 A 
ATOM     25  S   UNL     1      50.310   5.665  18.567  0.00  0.00    +0.000 S 
ATOM     26  C   UNL     1      49.053   4.666  18.000  0.00  0.00    +0.000 A 
ATOM     27  N   UNL     1      48.638   3.588  18.716  0.00  0.00    +0.000 NA
ATOM     28  C   UNL     1      47.695   2.907  18.155  0.00  0.00    +0.000 A 
ATOM     29  N   UNL     1      47.123   3.208  16.945  0.00  0.00    +0.000 N 
ATOM     30  C   UNL     1      47.492   4.304  16.202  0.00  0.00    +0.000 A 
ATOM     31  O   UNL     1      46.933   4.571  15.144  0.00  0.00    +0.000 OA
ATOM     32  C   UNL     1      48.560   5.096  16.781  0.00  0.00    +0.000 A 
ATOM     33  H   UNL     1      46.379   2.642  16.570  0.00  0.00    +0.000 HD
ENDBRANCH  20  23
ENDBRANCH  18  19
ENDBRANCH   4  18
TORSDOF 6
ENDMDL
MODEL 2
REMARK VINA RESULT:    -7.555      1.148      1.189
REMARK INTER + INTRA:         -11.247
REMARK INTER:                 -10.498
REMARK INTRA:                  -0.749
REMARK UNBOUND:                -1.043
REMARK  Name = 
REMARK  6 active torsions:
REMARK  status: ('A' for Active; 'I' for Inactive)
REMARK    1  A    between atoms: C_2  and  C_25
REMARK    2  A    between atoms: N_3  and  C_4
REMARK    3  A    between atoms: C_4  and  C_5
REMARK    4  A    between atoms: C_8  and  C_9
REMARK    5  A    between atoms: C_9  and  N_10
REMARK    6  A    between atoms: C_11  and  C_13
REMARK                            x       y       z     vdW  Elec       q    Type
REMARK                         _______ _______ _______ _____ _____    ______ ____
ROOT
ATOM      1  C   UNL     1      45.082   4.969  11.608  0.00  0.00    +0.000 A 
ATOM      2  C   UNL     1      45.077   6.292  11.175  0.00  0.00    +0.000 A 
ATOM      3  C   UNL     1      45.891   7.221  11.821  0.00  0.00    +0.000 A 
ATOM      4  C   UNL     1      46.687   6.819  12.894  0.00  0.00    +0.000 A 
ATOM      5  C   UNL     1      46.656   5.471  13.234  0.00  0.00    +0.000 A 
ATOM      6  N   UNL     1      45.882   4.543  12.620  0.00  0.00    +0.000 NA
ENDROOT
BRANCH   1   7
ATOM      7  C   UNL     1      44.192   3.947  10.938  0.00  0.00    +0.000 C 
BRANCH   7  10
ATOM      8  O   UNL     1      44.871   4.525   8.263  0.00  0.00    +0.000 OA
ATOM      9  C   UNL     1      45.228   3.456   8.750  0.00  0.00    +0.000 C 
ATOM     10  N   UNL     1      44.920   3.084  10.035  0.00  0.00    +0.000 N 
ATOM     11  H   UNL     1      45.391   2.293  10.445  0.00  0.00    +0.000 HD
BRANCH   9  12
ATOM     12  C   UNL     1      46.028   2.499   8.015  0.00  0.00    +0.000 A 
ATOM     13  C   UNL     1      46.906   2.647   6.952  0.00  0.00    +0.000 A 
ATOM     14  C   UNL     1      47.406   1.367   6.608  0.00  0.00    +0.000 A 
ATOM     15  C   UNL     1      46.840   0.463   7.474  0.00  0.00    +0.000 A 
ATOM     16  N   UNL     1      46.029   1.156   8.334  0.00  0.00    +0.000 N 
ATOM     17  H   UNL     1      45.491   0.760   9.095  0.00  0.00    +0.000 HD
ENDBRANCH   9  12
ENDBRANCH   7  10
ENDBRANCH   1   7
BRANCH   4  18
ATOM     18  C   UNL     1      47.566   7.790  13.629  0.00  0.00    +0.000 C 
BRANCH  18  19
ATOM     19  N   UNL     1      47.839   7.344  14.973  0.00  0.00    +0.000 N 
ATOM     20  C   UNL     1      49.106   6.999  15.369  0.00  0.00    +0.000 C 
ATOM     21  O   UNL     1      50.074   7.100  14.620  0.00  0.00    +0.000 OA
ATOM     22  H   UNL     1      47.047   7.010  15.513  0.00  0.00    +0.000 HD
BRANCH  20  23
ATOM     23  C   UNL     1      49.255   6.560  16.763  0.00  0.00    +0.000 A 
ATOM     24  C   UNL     1      49.851   7.401  17.695  0.00  0.00    +0.000 A 
ATOM     25  S   UNL     1      49.899   6.752  19.271  0.00  0.00    +0.000 S 
ATOM     26  C   UNL     1      49.173   5.301  18.755  0.00  0.00    +0.000 A 
ATOM     27  N   UNL     1      48.948   4.282  19.625  0.00  0.00    +0.000 NA
ATOM     28  C   UNL     1      48.415   3.233  19.092  0.00  0.00    +0.000 A 
ATOM     29  N   UNL     1      48.080   3.111  17.768  0.00  0.00    +0.000 N 
ATOM     30  C   UNL     1      48.263   4.126  16.859  0.00  0.00    +0.000 A 
ATOM     31  O   UNL     1      47.915   4.002  15.690  0.00  0.00    +0.000 OA
ATOM     32  C   UNL     1      48.875   5.323  17.404  0.00  0.00    +0.000 A 
ATOM     33  H   UNL     1      47.652   2.269  17.419  0.00  0.00    +0.000 HD
ENDBRANCH  20  23
ENDBRANCH  18  19
ENDBRANCH   4  18
TORSDOF 6
ENDMDL
MODEL 3
REMARK VINA RESULT:    -7.398      2.604      4.437
REMARK INTER + INTRA:         -11.036
REMARK INTER:                  -9.978
REMARK INTRA:                  -1.058
REMARK UNBOUND:                -1.043
REMARK  Name = 
REMARK  6 active torsions:
REMARK  status: ('A' for Active; 'I' for Inactive)
REMARK    1  A    between atoms: C_2  and  C_25
REMARK    2  A    between atoms: N_3  and  C_4
REMARK    3  A    between atoms: C_4  and  C_5
REMARK    4  A    between atoms: C_8  and  C_9
REMARK    5  A    between atoms: C_9  and  N_10
REMARK    6  A    between atoms: C_11  and  C_13
REMARK                            x       y       z     vdW  Elec       q    Type
REMARK                         _______ _______ _______ _____ _____    ______ ____
ROOT
ATOM      1  C   UNL     1      45.155   3.724  12.243  0.00  0.00    +0.000 A 
ATOM      2  C   UNL     1      45.071   5.093  12.486  0.00  0.00    +0.000 A 
ATOM      3  C   UNL     1      45.882   5.658  13.468  0.00  0.00    +0.000 A 
ATOM      4  C   UNL     1      46.755   4.851  14.199  0.00  0.00    +0.000 A 
ATOM      5  C   UNL     1      46.798   3.502  13.863  0.00  0.00    +0.000 A 
ATOM      6  N   UNL     1      46.028   2.925  12.908  0.00  0.00    +0.000 NA
ENDROOT
BRANCH   1   7
ATOM      7  C   UNL     1      44.269   3.083  11.199  0.00  0.00    +0.000 C 
BRANCH   7  10
ATOM      8  O   UNL     1      44.439   4.321   8.671  0.00  0.00    +0.000 OA
ATOM      9  C   UNL     1      45.062   3.282   8.867  0.00  0.00    +0.000 C 
ATOM     10  N   UNL     1      45.017   2.600  10.058  0.00  0.00    +0.000 N 
ATOM     11  H   UNL     1      45.685   1.867  10.232  0.00  0.00    +0.000 HD
BRANCH   9  12
ATOM     12  C   UNL     1      45.920   2.692   7.862  0.00  0.00    +0.000 A 
ATOM     13  C   UNL     1      46.388   3.169   6.647  0.00  0.00    +0.000 A 
ATOM     14  C   UNL     1      47.187   2.162   6.052  0.00  0.00    +0.000 A 
ATOM     15  C   UNL     1      47.208   1.096   6.918  0.00  0.00    +0.000 A 
ATOM     16  N   UNL     1      46.462   1.432   8.017  0.00  0.00    +0.000 N 
ATOM     17  H   UNL     1      46.307   0.851   8.833  0.00  0.00    +0.000 HD
ENDBRANCH   9  12
ENDBRANCH   7  10
ENDBRANCH   1   7
BRANCH   4  18
ATOM     18  C   UNL     1      47.634   5.416  15.277  0.00  0.00    +0.000 C 
BRANCH  18  19
ATOM     19  N   UNL     1      48.138   6.719  14.919  0.00  0.00    +0.000 N 
ATOM     20  C   UNL     1      49.414   7.106  15.241  0.00  0.00    +0.000 C 
ATOM     21  O   UNL     1      50.203   6.349  15.800  0.00  0.00    +0.000 OA
ATOM     22  H   UNL     1      47.449   7.432  14.702  0.00  0.00    +0.000 HD
BRANCH  20  23
ATOM     23  C   UNL     1      49.810   8.457  14.821  0.00  0.00    +0.000 A 
ATOM     24  C   UNL     1      50.408   9.319  15.733  0.00  0.00    +0.000 A 
ATOM     25  S   UNL     1      50.843  10.826  15.065  0.00  0.00    +0.000 S 
ATOM     26  C   UNL     1      50.201  10.401  13.546  0.00  0.00    +0.000 A 
ATOM     27  N   UNL     1      50.223  11.276  12.506  0.00  0.00    +0.000 NA
ATOM     28  C   UNL     1      49.680  10.830  11.423  0.00  0.00    +0.000 A 
ATOM     29  N   UNL     1      49.119   9.586  11.281  0.00  0.00    +0.000 N 
ATOM     30  C   UNL     1      49.099   8.661  12.297  0.00  0.00    +0.000 A 
ATOM     31  O   UNL     1      48.629   7.541  12.127  0.00  0.00    +0.000 OA
ATOM     32  C   UNL     1      49.685   9.117  13.543  0.00  0.00    +0.000 A 
ATOM     33  H   UNL     1      48.724   9.295  10.401  0.00  0.00    +0.000 HD
ENDBRANCH  20  23
ENDBRANCH  18  19
ENDBRANCH   4  18
TORSDOF 6
ENDMDL
MODEL 4
REMARK VINA RESULT:    -7.355      4.613      9.502
REMARK INTER + INTRA:         -10.978
REMARK INTER:                 -10.181
REMARK INTRA:                  -0.796
REMARK UNBOUND:                -1.043
REMARK  Name = 
REMARK  6 active torsions:
REMARK  status: ('A' for Active; 'I' for Inactive)
REMARK    1  A    between atoms: C_2  and  C_25
REMARK    2  A    between atoms: N_3  and  C_4
REMARK    3  A    between atoms: C_4  and  C_5
REMARK    4  A    between atoms: C_8  and  C_9
REMARK    5  A    between atoms: C_9  and  N_10
REMARK    6  A    between atoms: C_11  and  C_13
REMARK                            x       y       z     vdW  Elec       q    Type
REMARK                         _______ _______ _______ _____ _____    ______ ____
ROOT
ATOM      1  C   UNL     1      51.305   2.851  17.627  0.00  0.00    +0.000 A 
ATOM      2  C   UNL     1      50.673   3.979  18.145  0.00  0.00    +0.000 A 
ATOM      3  C   UNL     1      49.313   4.164  17.907  0.00  0.00    +0.000 A 
ATOM      4  C   UNL     1      48.606   3.228  17.150  0.00  0.00    +0.000 A 
ATOM      5  C   UNL     1      49.310   2.114  16.705  0.00  0.00    +0.000 A 
ATOM      6  N   UNL     1      50.630   1.903  16.927  0.00  0.00    +0.000 NA
ENDROOT
BRANCH   1   7
ATOM      7  C   UNL     1      52.785   2.640  17.852  0.00  0.00    +0.000 C 
BRANCH   7  10
ATOM      8  O   UNL     1      54.091   0.426  16.694  0.00  0.00    +0.000 OA
ATOM      9  C   UNL     1      53.736   0.360  17.867  0.00  0.00    +0.000 C 
ATOM     10  N   UNL     1      53.073   1.381  18.502  0.00  0.00    +0.000 N 
ATOM     11  H   UNL     1      52.974   1.355  19.504  0.00  0.00    +0.000 HD
BRANCH   9  12
ATOM     12  C   UNL     1      54.006  -0.797  18.694  0.00  0.00    +0.000 A 
ATOM     13  C   UNL     1      55.160  -1.237  19.325  0.00  0.00    +0.000 A 
ATOM     14  C   UNL     1      54.865  -2.450  19.994  0.00  0.00    +0.000 A 
ATOM     15  C   UNL     1      53.536  -2.722  19.777  0.00  0.00    +0.000 A 
ATOM     16  N   UNL     1      53.020  -1.709  19.012  0.00  0.00    +0.000 N 
ATOM     17  H   UNL     1      52.058  -1.626  18.704  0.00  0.00    +0.000 HD
ENDBRANCH   9  12
ENDBRANCH   7  10
ENDBRANCH   1   7
BRANCH   4  18
ATOM     18  C   UNL     1      47.143   3.397  16.857  0.00  0.00    +0.000 C 
BRANCH  18  19
ATOM     19  N   UNL     1      46.915   4.439  15.887  0.00  0.00    +0.000 N 
ATOM     20  C   UNL     1      46.983   4.191  14.539  0.00  0.00    +0.000 C 
ATOM     21  O   UNL     1      47.190   3.066  14.094  0.00  0.00    +0.000 OA
ATOM     22  H   UNL     1      47.002   5.396  16.215  0.00  0.00    +0.000 HD
BRANCH  20  23
ATOM     23  C   UNL     1      46.731   5.335  13.654  0.00  0.00    +0.000 A 
ATOM     24  C   UNL     1      47.738   6.262  13.414  0.00  0.00    +0.000 A 
ATOM     25  S   UNL     1      47.287   7.496  12.327  0.00  0.00    +0.000 S 
ATOM     26  C   UNL     1      45.713   6.867  12.178  0.00  0.00    +0.000 A 
ATOM     27  N   UNL     1      44.783   7.480  11.399  0.00  0.00    +0.000 NA
ATOM     28  C   UNL     1      43.626   6.907  11.398  0.00  0.00    +0.000 A 
ATOM     29  N   UNL     1      43.312   5.772  12.102  0.00  0.00    +0.000 N 
ATOM     30  C   UNL     1      44.227   5.104  12.880  0.00  0.00    +0.000 A 
ATOM     31  O   UNL     1      43.929   4.068  13.464  0.00  0.00    +0.000 OA
ATOM     32  C   UNL     1      45.542   5.715  12.927  0.00  0.00    +0.000 A 
ATOM     33  H   UNL     1      42.391   5.368  12.046  0.00  0.00    +0.000 HD
ENDBRANCH  20  23
ENDBRANCH  18  19
ENDBRANCH   4  18
TORSDOF 6
ENDMDL
MODEL 5
REMARK VINA RESULT:    -7.288      2.157      2.553
REMARK INTER + INTRA:         -10.887
REMARK INTER:                  -9.972
REMARK INTRA:                  -0.915
REMARK UNBOUND:                -1.043
REMARK  Name = 
REMARK  6 active torsions:
REMARK  status: ('A' for Active; 'I' for Inactive)
REMARK    1  A    between atoms: C_2  and  C_25
REMARK    2  A    between atoms: N_3  and  C_4
REMARK    3  A    between atoms: C_4  and  C_5
REMARK    4  A    between atoms: C_8  and  C_9
REMARK    5  A    between atoms: C_9  and  N_10
REMARK    6  A    between atoms: C_11  and  C_13
REMARK                            x       y       z     vdW  Elec       q    Type
REMARK                         _______ _______ _______ _____ _____    ______ ____
ROOT
ATOM      1  C   UNL     1      45.409   4.651  11.764  0.00  0.00    +0.000 A 
ATOM      2  C   UNL     1      45.744   5.878  11.198  0.00  0.00    +0.000 A 
ATOM      3  C   UNL     1      46.557   6.755  11.912  0.00  0.00    +0.000 A 
ATOM      4  C   UNL     1      47.015   6.401  13.182  0.00  0.00    +0.000 A 
ATOM      5  C   UNL     1      46.661   5.141  13.652  0.00  0.00    +0.000 A 
ATOM      6  N   UNL     1      45.879   4.263  12.978  0.00  0.00    +0.000 NA
ENDROOT
BRANCH   1   7
ATOM      7  C   UNL     1      44.510   3.691  11.019  0.00  0.00    +0.000 C 
BRANCH   7  10
ATOM      8  O   UNL     1      44.509   4.412   8.293  0.00  0.00    +0.000 OA
ATOM      9  C   UNL     1      45.162   3.436   8.650  0.00  0.00    +0.000 C 
ATOM     10  N   UNL     1      45.199   3.000   9.951  0.00  0.00    +0.000 N 
ATOM     11  H   UNL     1      45.890   2.320  10.223  0.00  0.00    +0.000 HD
BRANCH   9  12
ATOM     12  C   UNL     1      45.971   2.667   7.728  0.00  0.00    +0.000 A 
ATOM     13  C   UNL     1      46.490   2.967   6.477  0.00  0.00    +0.000 A 
ATOM     14  C   UNL     1      47.200   1.835   6.008  0.00  0.00    +0.000 A 
ATOM     15  C   UNL     1      47.118   0.871   6.983  0.00  0.00    +0.000 A 
ATOM     16  N   UNL     1      46.396   1.388   8.026  0.00  0.00    +0.000 N 
ATOM     17  H   UNL     1      46.184   0.915   8.897  0.00  0.00    +0.000 HD
ENDBRANCH   9  12
ENDBRANCH   7  10
ENDBRANCH   1   7
BRANCH   4  18
ATOM     18  C   UNL     1      47.880   7.323  13.993  0.00  0.00    +0.000 C 
BRANCH  18  19
ATOM     19  N   UNL     1      47.950   6.906  15.372  0.00  0.00    +0.000 N 
ATOM     20  C   UNL     1      49.142   6.560  15.955  0.00  0.00    +0.000 C 
ATOM     21  O   UNL     1      50.209   6.636  15.352  0.00  0.00    +0.000 OA
ATOM     22  H   UNL     1      47.084   6.591  15.798  0.00  0.00    +0.000 HD
BRANCH  20  23
ATOM     23  C   UNL     1      49.082   6.153  17.365  0.00  0.00    +0.000 A 
ATOM     24  C   UNL     1      49.554   4.903  17.747  0.00  0.00    +0.000 A 
ATOM     25  S   UNL     1      49.451   4.616  19.425  0.00  0.00    +0.000 S 
ATOM     26  C   UNL     1      48.723   6.131  19.695  0.00  0.00    +0.000 A 
ATOM     27  N   UNL     1      48.345   6.514  20.943  0.00  0.00    +0.000 NA
ATOM     28  C   UNL     1      47.784   7.676  20.997  0.00  0.00    +0.000 A 
ATOM     29  N   UNL     1      47.571   8.495  19.918  0.00  0.00    +0.000 N 
ATOM     30  C   UNL     1      47.962   8.161  18.644  0.00  0.00    +0.000 A 
ATOM     31  O   UNL     1      47.796   8.932  17.705  0.00  0.00    +0.000 OA
ATOM     32  C   UNL     1      48.585   6.856  18.524  0.00  0.00    +0.000 A 
ATOM     33  H   UNL     1      47.140   9.398  20.032  0.00  0.00    +0.000 HD
ENDBRANCH  20  23
ENDBRANCH  18  19
ENDBRANCH   4  18
TORSDOF 6
ENDMDL
MODEL 6
REMARK VINA RESULT:    -7.018      1.983      2.247
REMARK INTER + INTRA:         -10.522
REMARK INTER:                  -9.645
REMARK INTRA:                  -0.878
REMARK UNBOUND:                -1.043
REMARK  Name = 
REMARK  6 active torsions:
REMARK  status: ('A' for Active; 'I' for Inactive)
REMARK    1  A    between atoms: C_2  and  C_25
REMARK    2  A    between atoms: N_3  and  C_4
REMARK    3  A    between atoms: C_4  and  C_5
REMARK    4  A    between atoms: C_8  and  C_9
REMARK    5  A    between atoms: C_9  and  N_10
REMARK    6  A    between atoms: C_11  and  C_13
REMARK                            x       y       z     vdW  Elec       q    Type
REMARK                         _______ _______ _______ _____ _____    ______ ____
ROOT
ATOM      1  C   UNL     1      45.528   4.824  12.192  0.00  0.00    +0.000 A 
ATOM      2  C   UNL     1      45.749   6.068  11.608  0.00  0.00    +0.000 A 
ATOM      3  C   UNL     1      46.568   6.987  12.261  0.00  0.00    +0.000 A 
ATOM      4  C   UNL     1      47.145   6.657  13.488  0.00  0.00    +0.000 A 
ATOM      5  C   UNL     1      46.898   5.378  13.978  0.00  0.00    +0.000 A 
ATOM      6  N   UNL     1      46.113   4.460  13.362  0.00  0.00    +0.000 NA
ENDROOT
BRANCH   1   7
ATOM      7  C   UNL     1      44.625   3.817  11.515  0.00  0.00    +0.000 C 
BRANCH   7  10
ATOM      8  O   UNL     1      44.241   4.193   8.748  0.00  0.00    +0.000 OA
ATOM      9  C   UNL     1      45.061   3.362   9.127  0.00  0.00    +0.000 C 
ATOM     10  N   UNL     1      45.293   3.098  10.454  0.00  0.00    +0.000 N 
ATOM     11  H   UNL     1      46.100   2.552  10.713  0.00  0.00    +0.000 HD
BRANCH   9  12
ATOM     12  C   UNL     1      45.874   2.600   8.203  0.00  0.00    +0.000 A 
ATOM     13  C   UNL     1      46.600   2.972   7.082  0.00  0.00    +0.000 A 
ATOM     14  C   UNL     1      47.200   1.811   6.536  0.00  0.00    +0.000 A 
ATOM     15  C   UNL     1      46.847   0.755   7.340  0.00  0.00    +0.000 A 
ATOM     16  N   UNL     1      46.067   1.242   8.356  0.00  0.00    +0.000 N 
ATOM     17  H   UNL     1      45.670   0.700   9.114  0.00  0.00    +0.000 HD
ENDBRANCH   9  12
ENDBRANCH   7  10
ENDBRANCH   1   7
BRANCH   4  18
ATOM     18  C   UNL     1      48.020   7.623  14.232  0.00  0.00    +0.000 C 
BRANCH  18  19
ATOM     19  N   UNL     1      49.189   6.972  14.771  0.00  0.00    +0.000 N 
ATOM     20  C   UNL     1      49.544   7.113  16.088  0.00  0.00    +0.000 C 
ATOM     21  O   UNL     1      48.861   7.754  16.882  0.00  0.00    +0.000 OA
ATOM     22  H   UNL     1      49.890   6.666  14.102  0.00  0.00    +0.000 HD
BRANCH  20  23
ATOM     23  C   UNL     1      50.755   6.400  16.515  0.00  0.00    +0.000 A 
ATOM     24  C   UNL     1      52.002   6.989  16.346  0.00  0.00    +0.000 A 
ATOM     25  S   UNL     1      53.291   6.043  16.938  0.00  0.00    +0.000 S 
ATOM     26  C   UNL     1      52.235   4.789  17.395  0.00  0.00    +0.000 A 
ATOM     27  N   UNL     1      52.706   3.643  17.953  0.00  0.00    +0.000 NA
ATOM     28  C   UNL     1      51.796   2.769  18.227  0.00  0.00    +0.000 A 
ATOM     29  N   UNL     1      50.454   2.937  17.998  0.00  0.00    +0.000 N 
ATOM     30  C   UNL     1      49.931   4.089  17.463  0.00  0.00    +0.000 A 
ATOM     31  O   UNL     1      48.722   4.226  17.309  0.00  0.00    +0.000 OA
ATOM     32  C   UNL     1      50.914   5.100  17.122  0.00  0.00    +0.000 A 
ATOM     33  H   UNL     1      49.794   2.219  18.250  0.00  0.00    +0.000 HD
ENDBRANCH  20  23
ENDBRANCH  18  19
ENDBRANCH   4  18
TORSDOF 6
ENDMDL
MODEL 7
REMARK VINA RESULT:    -6.906      3.751      5.119
REMARK INTER + INTRA:         -10.371
REMARK INTER:                  -9.313
REMARK INTRA:                  -1.058
REMARK UNBOUND:                -1.043
REMARK  Name = 
REMARK  6 active torsions:
REMARK  status: ('A' for Active; 'I' for Inactive)
REMARK    1  A    between atoms: C_2  and  C_25
REMARK    2  A    between atoms: N_3  and  C_4
REMARK    3  A    between atoms: C_4  and  C_5
REMARK    4  A    between atoms: C_8  and  C_9
REMARK    5  A    between atoms: C_9  and  N_10
REMARK    6  A    between atoms: C_11  and  C_13
REMARK                            x       y       z     vdW  Elec       q    Type
REMARK                         _______ _______ _______ _____ _____    ______ ____
ROOT
ATOM      1  C   UNL     1      44.778   4.909  11.754  0.00  0.00    +0.000 A 
ATOM      2  C   UNL     1      44.069   6.043  11.366  0.00  0.00    +0.000 A 
ATOM      3  C   UNL     1      44.534   7.299  11.754  0.00  0.00    +0.000 A 
ATOM      4  C   UNL     1      45.690   7.404  12.528  0.00  0.00    +0.000 A 
ATOM      5  C   UNL     1      46.353   6.220  12.837  0.00  0.00    +0.000 A 
ATOM      6  N   UNL     1      45.930   4.987  12.468  0.00  0.00    +0.000 NA
ENDROOT
BRANCH   1   7
ATOM      7  C   UNL     1      44.282   3.535  11.365  0.00  0.00    +0.000 C 
BRANCH   7  10
ATOM      8  O   UNL     1      44.160   4.005   8.588  0.00  0.00    +0.000 OA
ATOM      9  C   UNL     1      44.996   3.218   9.022  0.00  0.00    +0.000 C 
ATOM     10  N   UNL     1      45.109   2.911  10.356  0.00  0.00    +0.000 N 
ATOM     11  H   UNL     1      45.922   2.413  10.679  0.00  0.00    +0.000 HD
BRANCH   9  12
ATOM     12  C   UNL     1      45.955   2.556   8.163  0.00  0.00    +0.000 A 
ATOM     13  C   UNL     1      46.300   1.221   8.014  0.00  0.00    +0.000 A 
ATOM     14  C   UNL     1      47.320   1.132   7.036  0.00  0.00    +0.000 A 
ATOM     15  C   UNL     1      47.570   2.408   6.592  0.00  0.00    +0.000 A 
ATOM     16  N   UNL     1      46.726   3.257   7.259  0.00  0.00    +0.000 N 
ATOM     17  H   UNL     1      46.667   4.261   7.130  0.00  0.00    +0.000 HD
ENDBRANCH   9  12
ENDBRANCH   7  10
ENDBRANCH   1   7
BRANCH   4  18
ATOM     18  C   UNL     1      46.216   8.735  12.981  0.00  0.00    +0.000 C 
BRANCH  18  19
ATOM     19  N   UNL     1      47.442   9.078  12.303  0.00  0.00    +0.000 N 
ATOM     20  C   UNL     1      48.447   9.759  12.942  0.00  0.00    +0.000 C 
ATOM     21  O   UNL     1      48.375  10.064  14.129  0.00  0.00    +0.000 OA
ATOM     22  H   UNL     1      47.419   9.073  11.288  0.00  0.00    +0.000 HD
BRANCH  20  23
ATOM     23  C   UNL     1      49.645  10.049  12.144  0.00  0.00    +0.000 A 
ATOM     24  C   UNL     1      50.030  11.365  11.924  0.00  0.00    +0.000 A 
ATOM     25  S   UNL     1      51.467  11.516  11.018  0.00  0.00    +0.000 S 
ATOM     26  C   UNL     1      51.599   9.828  10.842  0.00  0.00    +0.000 A 
ATOM     27  N   UNL     1      52.618   9.274  10.133  0.00  0.00    +0.000 NA
ATOM     28  C   UNL     1      52.579   7.986  10.062  0.00  0.00    +0.000 A 
ATOM     29  N   UNL     1      51.618   7.197  10.640  0.00  0.00    +0.000 N 
ATOM     30  C   UNL     1      50.587   7.711  11.389  0.00  0.00    +0.000 A 
ATOM     31  O   UNL     1      49.766   6.978  11.929  0.00  0.00    +0.000 OA
ATOM     32  C   UNL     1      50.575   9.158  11.488  0.00  0.00    +0.000 A 
ATOM     33  H   UNL     1      51.655   6.194  10.558  0.00  0.00    +0.000 HD
ENDBRANCH  20  23
ENDBRANCH  18  19
ENDBRANCH   4  18
TORSDOF 6
ENDMDL
MODEL 8
REMARK VINA RESULT:    -6.880      3.745      8.278
REMARK INTER + INTRA:         -10.336
REMARK INTER:                  -9.374
REMARK INTRA:                  -0.963
REMARK UNBOUND:                -1.043
REMARK  Name = 
REMARK  6 active torsions:
REMARK  status: ('A' for Active; 'I' for Inactive)
REMARK    1  A    between atoms: C_2  and  C_25
REMARK    2  A    between atoms: N_3  and  C_4
REMARK    3  A    between atoms: C_4  and  C_5
REMARK    4  A    between atoms: C_8  and  C_9
REMARK    5  A    between atoms: C_9  and  N_10
REMARK    6  A    between atoms: C_11  and  C_13
REMARK                            x       y       z     vdW  Elec       q    Type
REMARK                         _______ _______ _______ _____ _____    ______ ____
ROOT
ATOM      1  C   UNL     1      49.375   5.210  17.237  0.00  0.00    +0.000 A 
ATOM      2  C   UNL     1      50.090   6.327  16.811  0.00  0.00    +0.000 A 
ATOM      3  C   UNL     1      49.710   6.966  15.632  0.00  0.00    +0.000 A 
ATOM      4  C   UNL     1      48.631   6.478  14.893  0.00  0.00    +0.000 A 
ATOM      5  C   UNL     1      47.953   5.381  15.415  0.00  0.00    +0.000 A 
ATOM      6  N   UNL     1      48.294   4.743  16.561  0.00  0.00    +0.000 NA
ENDROOT
BRANCH   1   7
ATOM      7  C   UNL     1      49.782   4.486  18.500  0.00  0.00    +0.000 C 
BRANCH   7  10
ATOM      8  O   UNL     1      49.961   1.960  17.260  0.00  0.00    +0.000 OA
ATOM      9  C   UNL     1      50.984   2.486  17.688  0.00  0.00    +0.000 C 
ATOM     10  N   UNL     1      50.985   3.701  18.327  0.00  0.00    +0.000 N 
ATOM     11  H   UNL     1      51.860   4.172  18.488  0.00  0.00    +0.000 HD
BRANCH   9  12
ATOM     12  C   UNL     1      52.288   1.877  17.537  0.00  0.00    +0.000 A 
ATOM     13  C   UNL     1      53.570   2.372  17.725  0.00  0.00    +0.000 A 
ATOM     14  C   UNL     1      54.493   1.344  17.415  0.00  0.00    +0.000 A 
ATOM     15  C   UNL     1      53.763   0.235  17.061  0.00  0.00    +0.000 A 
ATOM     16  N   UNL     1      52.435   0.557  17.159  0.00  0.00    +0.000 N 
ATOM     17  H   UNL     1      51.656  -0.064  16.977  0.00  0.00    +0.000 HD
ENDBRANCH   9  12
ENDBRANCH   7  10
ENDBRANCH   1   7
BRANCH   4  18
ATOM     18  C   UNL     1      48.199   7.126  13.610  0.00  0.00    +0.000 C 
BRANCH  18  19
ATOM     19  N   UNL     1      47.446   6.215  12.784  0.00  0.00    +0.000 N 
ATOM     20  C   UNL     1      46.457   6.660  11.944  0.00  0.00    +0.000 C 
ATOM     21  O   UNL     1      46.199   7.853  11.816  0.00  0.00    +0.000 OA
ATOM     22  H   UNL     1      47.456   5.237  13.057  0.00  0.00    +0.000 HD
BRANCH  20  23
ATOM     23  C   UNL     1      45.764   5.634  11.155  0.00  0.00    +0.000 A 
ATOM     24  C   UNL     1      45.859   5.642   9.769  0.00  0.00    +0.000 A 
ATOM     25  S   UNL     1      45.032   4.354   9.018  0.00  0.00    +0.000 S 
ATOM     26  C   UNL     1      44.472   3.768  10.514  0.00  0.00    +0.000 A 
ATOM     27  N   UNL     1      43.666   2.675  10.582  0.00  0.00    +0.000 NA
ATOM     28  C   UNL     1      43.298   2.358  11.778  0.00  0.00    +0.000 A 
ATOM     29  N   UNL     1      43.665   3.030  12.916  0.00  0.00    +0.000 N 
ATOM     30  C   UNL     1      44.500   4.121  12.897  0.00  0.00    +0.000 A 
ATOM     31  O   UNL     1      44.845   4.676  13.935  0.00  0.00    +0.000 OA
ATOM     32  C   UNL     1      44.932   4.530  11.574  0.00  0.00    +0.000 A 
ATOM     33  H   UNL     1      43.353   2.719  13.822  0.00  0.00    +0.000 HD
ENDBRANCH  20  23
ENDBRANCH  18  19
ENDBRANCH   4  18
TORSDOF 6
ENDMDL
MODEL 9
REMARK VINA RESULT:    -6.687      3.078      8.447
REMARK INTER + INTRA:         -10.075
REMARK INTER:                  -9.256
REMARK INTRA:                  -0.820
REMARK UNBOUND:                -1.043
REMARK  Name = 
REMARK  6 active torsions:
REMARK  status: ('A' for Active; 'I' for Inactive)
REMARK    1  A    between atoms: C_2  and  C_25
REMARK    2  A    between atoms: N_3  and  C_4
REMARK    3  A    between atoms: C_4  and  C_5
REMARK    4  A    between atoms: C_8  and  C_9
REMARK    5  A    between atoms: C_9  and  N_10
REMARK    6  A    between atoms: C_11  and  C_13
REMARK                            x       y       z     vdW  Elec       q    Type
REMARK                         _______ _______ _______ _____ _____    ______ ____
ROOT
ATOM      1  C   UNL     1      49.086   6.938  16.393  0.00  0.00    +0.000 A 
ATOM      2  C   UNL     1      48.976   8.246  15.928  0.00  0.00    +0.000 A 
ATOM      3  C   UNL     1      48.435   8.472  14.664  0.00  0.00    +0.000 A 
ATOM      4  C   UNL     1      48.023   7.394  13.880  0.00  0.00    +0.000 A 
ATOM      5  C   UNL     1      48.137   6.126  14.441  0.00  0.00    +0.000 A 
ATOM      6  N   UNL     1      48.651   5.875  15.669  0.00  0.00    +0.000 NA
ENDROOT
BRANCH   1   7
ATOM      7  C   UNL     1      49.691   6.664  17.752  0.00  0.00    +0.000 C 
BRANCH   7  10
ATOM      8  O   UNL     1      49.050   4.045  18.574  0.00  0.00    +0.000 OA
ATOM      9  C   UNL     1      50.176   4.274  18.142  0.00  0.00    +0.000 C 
ATOM     10  N   UNL     1      50.580   5.524  17.743  0.00  0.00    +0.000 N 
ATOM     11  H   UNL     1      51.439   5.621  17.226  0.00  0.00    +0.000 HD
BRANCH   9  12
ATOM     12  C   UNL     1      51.174   3.236  17.996  0.00  0.00    +0.000 A 
ATOM     13  C   UNL     1      52.559   3.265  18.064  0.00  0.00    +0.000 A 
ATOM     14  C   UNL     1      53.043   1.955  17.824  0.00  0.00    +0.000 A 
ATOM     15  C   UNL     1      51.949   1.146  17.632  0.00  0.00    +0.000 A 
ATOM     16  N   UNL     1      50.826   1.921  17.760  0.00  0.00    +0.000 N 
ATOM     17  H   UNL     1      49.868   1.598  17.686  0.00  0.00    +0.000 HD
ENDBRANCH   9  12
ENDBRANCH   7  10
ENDBRANCH   1   7
BRANCH   4  18
ATOM     18  C   UNL     1      47.450   7.592  12.507  0.00  0.00    +0.000 C 
BRANCH  18  19
ATOM     19  N   UNL     1      46.774   6.407  12.039  0.00  0.00    +0.000 N 
ATOM     20  C   UNL     1      45.423   6.240  12.205  0.00  0.00    +0.000 C 
ATOM     21  O   UNL     1      44.716   7.108  12.711  0.00  0.00    +0.000 OA
ATOM     22  H   UNL     1      47.352   5.591  11.864  0.00  0.00    +0.000 HD
BRANCH  20  23
ATOM     23  C   UNL     1      44.853   4.991  11.685  0.00  0.00    +0.000 A 
ATOM     24  C   UNL     1      44.085   4.181  12.514  0.00  0.00    +0.000 A 
ATOM     25  S   UNL     1      43.466   2.796  11.734  0.00  0.00    +0.000 S 
ATOM     26  C   UNL     1      44.244   3.201  10.276  0.00  0.00    +0.000 A 
ATOM     27  N   UNL     1      44.146   2.399   9.183  0.00  0.00    +0.000 NA
ATOM     28  C   UNL     1      44.807   2.815   8.154  0.00  0.00    +0.000 A 
ATOM     29  N   UNL     1      45.554   3.965   8.116  0.00  0.00    +0.000 N 
ATOM     30  C   UNL     1      45.658   4.819   9.187  0.00  0.00    +0.000 A 
ATOM     31  O   UNL     1      46.299   5.862   9.109  0.00  0.00    +0.000 OA
ATOM     32  C   UNL     1      44.946   4.390  10.375  0.00  0.00    +0.000 A 
ATOM     33  H   UNL     1      46.035   4.240   7.274  0.00  0.00    +0.000 HD
ENDBRANCH  20  23
ENDBRANCH  18  19
ENDBRANCH   4  18
TORSDOF 6
ENDMDL
