MODEL 1
REMARK VINA RESULT:    -7.872      0.000      0.000
REMARK INTER + INTRA:         -12.158
REMARK INTER:                 -11.093
REMARK INTRA:                  -1.065
REMARK UNBOUND:                -1.065
REMARK  Name = 
REMARK  7 active torsions:
REMARK  status: ('A' for Active; 'I' for Inactive)
REMARK    1  A    between atoms: C_2  and  C_19
REMARK    2  A    between atoms: N_3  and  C_4
REMARK    3  A    between atoms: C_4  and  C_5
REMARK    4  A    between atoms: C_8  and  C_9
REMARK    5  A    between atoms: C_9  and  C_10
REMARK    6  A    between atoms: C_10  and  C_11
REMARK    7  A    between atoms: C_11  and  N_12
REMARK                            x       y       z     vdW  Elec       q    Type
REMARK                         _______ _______ _______ _____ _____    ______ ____
ROOT
ATOM      1  C   UNL     1      46.792   7.246  13.151  0.00  0.00    +0.000 C 
ENDROOT
BRANCH   1   2
ATOM      2  C   UNL     1      46.092   6.145  12.400  0.00  0.00    +0.000 A 
ATOM      3  C   UNL     1      45.517   5.071  13.089  0.00  0.00    +0.000 A 
ATOM      4  C   UNL     1      44.851   4.058  12.398  0.00  0.00    +0.000 A 
ATOM      5  C   UNL     1      44.743   4.101  11.001  0.00  0.00    +0.000 A 
ATOM      6  C   UNL     1      45.351   5.156  10.310  0.00  0.00    +0.000 A 
ATOM      7  C   UNL     1      46.024   6.164  11.001  0.00  0.00    +0.000 A 
BRANCH   5   8
ATOM      8  C   UNL     1      44.007   3.026  10.242  0.00  0.00    +0.000 C 
BRANCH   8   9
ATOM      9  C   UNL     1      44.496   2.820   8.806  0.00  0.00    +0.000 C 
BRANCH   9  10
ATOM     10  C   UNL     1      45.586   1.747   8.658  0.00  0.00    +0.000 C 
BRANCH  10  11
ATOM     11  N   UNL     1      46.712   2.279   7.885  0.00  0.00    +0.000 NA
ATOM     12  C   UNL     1      47.245   1.328   6.911  0.00  0.00    +0.000 C 
ATOM     13  C   UNL     1      47.896   2.243   5.900  0.00  0.00    +0.000 C 
ATOM     14  N   UNL     1      46.930   3.342   5.793  0.00  0.00    +0.000 NA
ATOM     15  C   UNL     1      46.403   3.499   7.150  0.00  0.00    +0.000 C 
ATOM     16  H   UNL     1      46.158   3.020   5.213  0.00  0.00    +0.000 HD
ENDBRANCH  10  11
ENDBRANCH   9  10
ENDBRANCH   8   9
ENDBRANCH   5   8
ENDBRANCH   1   2
BRANCH   1  19
ATOM     17  O   UNL     1      49.492   6.962  13.851  0.00  0.00    +0.000 OA
ATOM     18  C   UNL     1      48.634   6.704  14.691  0.00  0.00    +0.000 C 
ATOM     19  N   UNL     1      47.293   6.784  14.420  0.00  0.00    +0.000 N 
ATOM     20  H   UNL     1      46.624   6.736  15.181  0.00  0.00    +0.000 HD
BRANCH  18  21
ATOM     21  C   UNL     1      49.001   6.232  16.032  0.00  0.00    +0.000 A 
ATOM     22  C   UNL     1      49.806   7.025  16.838  0.00  0.00    +0.000 A 
ATOM     23  S   UNL     1      50.131   6.342  18.365  0.00  0.00    +0.000 S 
ATOM     24  C   UNL     1      49.175   4.978  18.018  0.00  0.00    +0.000 A 
ATOM     25  N   UNL     1      48.990   4.002  18.945  0.00  0.00    +0.000 NA
ATOM     26  C   UNL     1      48.205   3.047  18.568  0.00  0.00    +0.000 A 
ATOM     27  N   UNL     1      47.604   2.974  17.338  0.00  0.00    +0.000 N 
ATOM     28  C   UNL     1      47.832   3.890  16.338  0.00  0.00    +0.000 A 
ATOM     29  O   UNL     1      47.401   3.716  15.206  0.00  0.00    +0.000 OA
ATOM     30  C   UNL     1      48.650   5.023  16.739  0.00  0.00    +0.000 A 
ATOM     31  H   UNL     1      47.036   2.178  17.091  0.00  0.00    +0.000 HD
ENDBRANCH  18  21
ENDBRANCH   1  19
TORSDOF 7
ENDMDL
MODEL 2
REMARK VINA RESULT:    -7.243      1.915      2.579
REMARK INTER + INTRA:         -11.273
REMARK INTER:                 -10.407
REMARK INTRA:                  -0.866
REMARK UNBOUND:                -1.065
REMARK  Name = 
REMARK  7 active torsions:
REMARK  status: ('A' for Active; 'I' for Inactive)
REMARK    1  A    between atoms: C_2  and  C_19
REMARK    2  A    between atoms: N_3  and  C_4
REMARK    3  A    between atoms: C_4  and  C_5
REMARK    4  A    between atoms: C_8  and  C_9
REMARK    5  A    between atoms: C_9  and  C_10
REMARK    6  A    between atoms: C_10  and  C_11
REMARK    7  A    between atoms: C_11  and  N_12
REMARK                            x       y       z     vdW  Elec       q    Type
REMARK                         _______ _______ _______ _____ _____    ______ ____
ROOT
ATOM      1  C   UNL     1      47.756   6.621  13.543  0.00  0.00    +0.000 C 
ENDROOT
BRANCH   1   2
ATOM      2  C   UNL     1      46.785   5.788  12.750  0.00  0.00    +0.000 A 
ATOM      3  C   UNL     1      46.345   6.218  11.493  0.00  0.00    +0.000 A 
ATOM      4  C   UNL     1      45.458   5.441  10.746  0.00  0.00    +0.000 A 
ATOM      5  C   UNL     1      44.996   4.214  11.242  0.00  0.00    +0.000 A 
ATOM      6  C   UNL     1      45.406   3.803  12.515  0.00  0.00    +0.000 A 
ATOM      7  C   UNL     1      46.287   4.584  13.265  0.00  0.00    +0.000 A 
BRANCH   5   8
ATOM      8  C   UNL     1      44.056   3.351  10.437  0.00  0.00    +0.000 C 
BRANCH   8   9
ATOM      9  C   UNL     1      44.476   3.148   8.980  0.00  0.00    +0.000 C 
BRANCH   9  10
ATOM     10  C   UNL     1      45.421   1.957   8.755  0.00  0.00    +0.000 C 
BRANCH  10  11
ATOM     11  N   UNL     1      46.609   2.391   8.017  0.00  0.00    +0.000 NA
ATOM     12  C   UNL     1      47.159   1.354   7.145  0.00  0.00    +0.000 C 
ATOM     13  C   UNL     1      47.903   2.171   6.113  0.00  0.00    +0.000 C 
ATOM     14  N   UNL     1      46.991   3.294   5.873  0.00  0.00    +0.000 NA
ATOM     15  C   UNL     1      46.393   3.566   7.182  0.00  0.00    +0.000 C 
ATOM     16  H   UNL     1      46.241   2.960   5.271  0.00  0.00    +0.000 HD
ENDBRANCH  10  11
ENDBRANCH   9  10
ENDBRANCH   8   9
ENDBRANCH   5   8
ENDBRANCH   1   2
BRANCH   1  19
ATOM     17  O   UNL     1      49.873   7.014  15.338  0.00  0.00    +0.000 OA
ATOM     18  C   UNL     1      48.838   6.497  15.750  0.00  0.00    +0.000 C 
ATOM     19  N   UNL     1      47.770   6.240  14.932  0.00  0.00    +0.000 N 
ATOM     20  H   UNL     1      46.878   5.978  15.339  0.00  0.00    +0.000 HD
BRANCH  18  21
ATOM     21  C   UNL     1      48.708   6.067  17.148  0.00  0.00    +0.000 A 
ATOM     22  C   UNL     1      48.980   4.748  17.485  0.00  0.00    +0.000 A 
ATOM     23  S   UNL     1      48.795   4.414  19.146  0.00  0.00    +0.000 S 
ATOM     24  C   UNL     1      48.382   6.031  19.480  0.00  0.00    +0.000 A 
ATOM     25  N   UNL     1      48.138   6.439  20.753  0.00  0.00    +0.000 NA
ATOM     26  C   UNL     1      47.882   7.700  20.870  0.00  0.00    +0.000 A 
ATOM     27  N   UNL     1      47.829   8.585  19.824  0.00  0.00    +0.000 N 
ATOM     28  C   UNL     1      47.980   8.201  18.513  0.00  0.00    +0.000 A 
ATOM     29  O   UNL     1      47.779   8.985  17.594  0.00  0.00    +0.000 OA
ATOM     30  C   UNL     1      48.344   6.805  18.334  0.00  0.00    +0.000 A 
ATOM     31  H   UNL     1      47.581   9.549  19.980  0.00  0.00    +0.000 HD
ENDBRANCH  18  21
ENDBRANCH   1  19
TORSDOF 7
ENDMDL
MODEL 3
REMARK VINA RESULT:    -6.932      4.476      8.951
REMARK INTER + INTRA:         -10.834
REMARK INTER:                 -10.006
REMARK INTRA:                  -0.828
REMARK UNBOUND:                -1.065
REMARK  Name = 
REMARK  7 active torsions:
REMARK  status: ('A' for Active; 'I' for Inactive)
REMARK    1  A    between atoms: C_2  and  C_19
REMARK    2  A    between atoms: N_3  and  C_4
REMARK    3  A    between atoms: C_4  and  C_5
REMARK    4  A    between atoms: C_8  and  C_9
REMARK    5  A    between atoms: C_9  and  C_10
REMARK    6  A    between atoms: C_10  and  C_11
REMARK    7  A    between atoms: C_11  and  N_12
REMARK                            x       y       z     vdW  Elec       q    Type
REMARK                         _______ _______ _______ _____ _____    ______ ____
ROOT
ATOM      1  C   UNL     1      47.206   3.349  16.960  0.00  0.00    +0.000 C 
ENDROOT
BRANCH   1   2
ATOM      2  C   UNL     1      48.688   3.308  17.222  0.00  0.00    +0.000 A 
ATOM      3  C   UNL     1      49.356   4.445  17.692  0.00  0.00    +0.000 A 
ATOM      4  C   UNL     1      50.726   4.407  17.953  0.00  0.00    +0.000 A 
ATOM      5  C   UNL     1      51.456   3.228  17.753  0.00  0.00    +0.000 A 
ATOM      6  C   UNL     1      50.795   2.103  17.247  0.00  0.00    +0.000 A 
ATOM      7  C   UNL     1      49.427   2.143  16.978  0.00  0.00    +0.000 A 
BRANCH   5   8
ATOM      8  C   UNL     1      52.934   3.164  18.053  0.00  0.00    +0.000 C 
BRANCH   8   9
ATOM      9  C   UNL     1      53.655   1.972  17.420  0.00  0.00    +0.000 C 
BRANCH   9  10
ATOM     10  C   UNL     1      54.274   0.998  18.434  0.00  0.00    +0.000 C 
BRANCH  10  11
ATOM     11  N   UNL     1      54.986  -0.073  17.731  0.00  0.00    +0.000 NA
ATOM     12  C   UNL     1      54.642  -1.410  18.214  0.00  0.00    +0.000 C 
ATOM     13  C   UNL     1      54.975  -2.273  17.019  0.00  0.00    +0.000 C 
ATOM     14  N   UNL     1      54.491  -1.465  15.895  0.00  0.00    +0.000 NA
ATOM     15  C   UNL     1      54.770  -0.082  16.290  0.00  0.00    +0.000 C 
ATOM     16  H   UNL     1      53.478  -1.561  15.858  0.00  0.00    +0.000 HD
ENDBRANCH  10  11
ENDBRANCH   9  10
ENDBRANCH   8   9
ENDBRANCH   5   8
ENDBRANCH   1   2
BRANCH   1  19
ATOM     17  O   UNL     1      47.345   3.063  14.174  0.00  0.00    +0.000 OA
ATOM     18  C   UNL     1      46.935   4.124  14.639  0.00  0.00    +0.000 C 
ATOM     19  N   UNL     1      46.868   4.357  15.988  0.00  0.00    +0.000 N 
ATOM     20  H   UNL     1      46.365   5.167  16.332  0.00  0.00    +0.000 HD
BRANCH  18  21
ATOM     21  C   UNL     1      46.545   5.236  13.764  0.00  0.00    +0.000 A 
ATOM     22  C   UNL     1      47.435   6.279  13.547  0.00  0.00    +0.000 A 
ATOM     23  S   UNL     1      46.837   7.483  12.500  0.00  0.00    +0.000 S 
ATOM     24  C   UNL     1      45.381   6.633  12.268  0.00  0.00    +0.000 A 
ATOM     25  N   UNL     1      44.425   7.107  11.427  0.00  0.00    +0.000 NA
ATOM     26  C   UNL     1      43.390   6.340  11.308  0.00  0.00    +0.000 A 
ATOM     27  N   UNL     1      43.220   5.153  11.972  0.00  0.00    +0.000 N 
ATOM     28  C   UNL     1      44.119   4.680  12.899  0.00  0.00    +0.000 A 
ATOM     29  O   UNL     1      43.868   3.696  13.582  0.00  0.00    +0.000 OA
ATOM     30  C   UNL     1      45.334   5.469  13.013  0.00  0.00    +0.000 A 
ATOM     31  H   UNL     1      42.369   4.623  11.867  0.00  0.00    +0.000 HD
ENDBRANCH  18  21
ENDBRANCH   1  19
TORSDOF 7
ENDMDL
MODEL 4
REMARK VINA RESULT:    -6.923      3.374      8.056
REMARK INTER + INTRA:         -10.821
REMARK INTER:                  -9.808
REMARK INTRA:                  -1.013
REMARK UNBOUND:                -1.065
REMARK  Name = 
REMARK  7 active torsions:
REMARK  status: ('A' for Active; 'I' for Inactive)
REMARK    1  A    between atoms: C_2  and  C_19
REMARK    2  A    between atoms: N_3  and  C_4
REMARK    3  A    between atoms: C_4  and  C_5
REMARK    4  A    between atoms: C_8  and  C_9
REMARK    5  A    between atoms: C_9  and  C_10
REMARK    6  A    between atoms: C_10  and  C_11
REMARK    7  A    between atoms: C_11  and  N_12
REMARK                            x       y       z     vdW  Elec       q    Type
REMARK                         _______ _______ _______ _____ _____    ______ ____
ROOT
ATOM      1  C   UNL     1      48.254   8.026  12.150  0.00  0.00    +0.000 C 
ENDROOT
BRANCH   1   2
ATOM      2  C   UNL     1      48.934   7.636  13.435  0.00  0.00    +0.000 A 
ATOM      3  C   UNL     1      50.253   8.030  13.686  0.00  0.00    +0.000 A 
ATOM      4  C   UNL     1      50.882   7.687  14.884  0.00  0.00    +0.000 A 
ATOM      5  C   UNL     1      50.201   6.943  15.857  0.00  0.00    +0.000 A 
ATOM      6  C   UNL     1      48.896   6.517  15.589  0.00  0.00    +0.000 A 
ATOM      7  C   UNL     1      48.270   6.854  14.388  0.00  0.00    +0.000 A 
BRANCH   5   8
ATOM      8  C   UNL     1      50.859   6.583  17.166  0.00  0.00    +0.000 C 
BRANCH   8   9
ATOM      9  C   UNL     1      51.223   5.103  17.304  0.00  0.00    +0.000 C 
BRANCH   9  10
ATOM     10  C   UNL     1      50.591   4.408  18.519  0.00  0.00    +0.000 C 
BRANCH  10  11
ATOM     11  N   UNL     1      49.811   3.246  18.083  0.00  0.00    +0.000 NA
ATOM     12  C   UNL     1      48.621   3.605  17.314  0.00  0.00    +0.000 C 
ATOM     13  C   UNL     1      48.374   2.349  16.509  0.00  0.00    +0.000 C 
ATOM     14  N   UNL     1      49.729   1.947  16.118  0.00  0.00    +0.000 NA
ATOM     15  C   UNL     1      50.562   2.298  17.270  0.00  0.00    +0.000 C 
ATOM     16  H   UNL     1      50.021   2.550  15.350  0.00  0.00    +0.000 HD
ENDBRANCH  10  11
ENDBRANCH   9  10
ENDBRANCH   8   9
ENDBRANCH   5   8
ENDBRANCH   1   2
BRANCH   1  19
ATOM     17  O   UNL     1      45.491   7.909  11.694  0.00  0.00    +0.000 OA
ATOM     18  C   UNL     1      46.186   6.955  11.356  0.00  0.00    +0.000 C 
ATOM     19  N   UNL     1      47.538   6.918  11.573  0.00  0.00    +0.000 N 
ATOM     20  H   UNL     1      48.098   6.200  11.125  0.00  0.00    +0.000 HD
BRANCH  18  21
ATOM     21  C   UNL     1      45.589   5.760  10.745  0.00  0.00    +0.000 A 
ATOM     22  C   UNL     1      45.823   5.490   9.404  0.00  0.00    +0.000 A 
ATOM     23  S   UNL     1      45.072   4.063   8.851  0.00  0.00    +0.000 S 
ATOM     24  C   UNL     1      44.438   3.736  10.396  0.00  0.00    +0.000 A 
ATOM     25  N   UNL     1      43.714   2.609  10.628  0.00  0.00    +0.000 NA
ATOM     26  C   UNL     1      43.333   2.461  11.854  0.00  0.00    +0.000 A 
ATOM     27  N   UNL     1      43.595   3.351  12.864  0.00  0.00    +0.000 N 
ATOM     28  C   UNL     1      44.245   4.545  12.658  0.00  0.00    +0.000 A 
ATOM     29  O   UNL     1      44.332   5.382  13.547  0.00  0.00    +0.000 OA
ATOM     30  C   UNL     1      44.759   4.723  11.311  0.00  0.00    +0.000 A 
ATOM     31  H   UNL     1      43.232   3.196  13.791  0.00  0.00    +0.000 HD
ENDBRANCH  18  21
ENDBRANCH   1  19
TORSDOF 7
ENDMDL
MODEL 5
REMARK VINA RESULT:    -6.904      2.446      4.137
REMARK INTER + INTRA:         -10.794
REMARK INTER:                  -9.764
REMARK INTRA:                  -1.030
REMARK UNBOUND:                -1.065
REMARK  Name = 
REMARK  7 active torsions:
REMARK  status: ('A' for Active; 'I' for Inactive)
REMARK    1  A    between atoms: C_2  and  C_19
REMARK    2  A    between atoms: N_3  and  C_4
REMARK    3  A    between atoms: C_4  and  C_5
REMARK    4  A    between atoms: C_8  and  C_9
REMARK    5  A    between atoms: C_9  and  C_10
REMARK    6  A    between atoms: C_10  and  C_11
REMARK    7  A    between atoms: C_11  and  N_12
REMARK                            x       y       z     vdW  Elec       q    Type
REMARK                         _______ _______ _______ _____ _____    ______ ____
ROOT
ATOM      1  C   UNL     1      47.160   5.073  14.488  0.00  0.00    +0.000 C 
ENDROOT
BRANCH   1   2
ATOM      2  C   UNL     1      46.381   4.871  13.216  0.00  0.00    +0.000 A 
ATOM      3  C   UNL     1      46.326   5.884  12.251  0.00  0.00    +0.000 A 
ATOM      4  C   UNL     1      45.620   5.695  11.062  0.00  0.00    +0.000 A 
ATOM      5  C   UNL     1      44.956   4.486  10.813  0.00  0.00    +0.000 A 
ATOM      6  C   UNL     1      44.980   3.489  11.794  0.00  0.00    +0.000 A 
ATOM      7  C   UNL     1      45.679   3.681  12.986  0.00  0.00    +0.000 A 
BRANCH   5   8
ATOM      8  C   UNL     1      44.208   4.258   9.523  0.00  0.00    +0.000 C 
BRANCH   8   9
ATOM      9  C   UNL     1      45.097   3.891   8.333  0.00  0.00    +0.000 C 
BRANCH   9  10
ATOM     10  C   UNL     1      45.729   2.493   8.425  0.00  0.00    +0.000 C 
BRANCH  10  11
ATOM     11  N   UNL     1      46.262   2.097   7.118  0.00  0.00    +0.000 NA
ATOM     12  C   UNL     1      46.607   3.234   6.266  0.00  0.00    +0.000 C 
ATOM     13  C   UNL     1      47.634   2.631   5.336  0.00  0.00    +0.000 C 
ATOM     14  N   UNL     1      48.425   1.785   6.236  0.00  0.00    +0.000 NA
ATOM     15  C   UNL     1      47.450   1.256   7.192  0.00  0.00    +0.000 C 
ATOM     16  H   UNL     1      49.052   2.393   6.761  0.00  0.00    +0.000 HD
ENDBRANCH  10  11
ENDBRANCH   9  10
ENDBRANCH   8   9
ENDBRANCH   5   8
ENDBRANCH   1   2
BRANCH   1  19
ATOM     17  O   UNL     1      49.394   5.806  16.013  0.00  0.00    +0.000 OA
ATOM     18  C   UNL     1      48.867   6.651  15.295  0.00  0.00    +0.000 C 
ATOM     19  N   UNL     1      47.752   6.384  14.544  0.00  0.00    +0.000 N 
ATOM     20  H   UNL     1      47.454   7.047  13.837  0.00  0.00    +0.000 HD
BRANCH  18  21
ATOM     21  C   UNL     1      49.373   8.029  15.245  0.00  0.00    +0.000 A 
ATOM     22  C   UNL     1      49.435   8.776  16.413  0.00  0.00    +0.000 A 
ATOM     23  S   UNL     1      50.056  10.347  16.188  0.00  0.00    +0.000 S 
ATOM     24  C   UNL     1      50.299  10.071  14.527  0.00  0.00    +0.000 A 
ATOM     25  N   UNL     1      50.860  11.024  13.737  0.00  0.00    +0.000 NA
ATOM     26  C   UNL     1      51.030  10.667  12.507  0.00  0.00    +0.000 A 
ATOM     27  N   UNL     1      50.671   9.447  11.993  0.00  0.00    +0.000 N 
ATOM     28  C   UNL     1      50.021   8.487  12.732  0.00  0.00    +0.000 A 
ATOM     29  O   UNL     1      49.582   7.472  12.208  0.00  0.00    +0.000 OA
ATOM     30  C   UNL     1      49.873   8.813  14.141  0.00  0.00    +0.000 A 
ATOM     31  H   UNL     1      50.793   9.247  11.013  0.00  0.00    +0.000 HD
ENDBRANCH  18  21
ENDBRANCH   1  19
TORSDOF 7
ENDMDL
MODEL 6
REMARK VINA RESULT:    -6.894      1.745      2.526
REMARK INTER + INTRA:         -10.780
REMARK INTER:                  -9.984
REMARK INTRA:                  -0.797
REMARK UNBOUND:                -1.065
REMARK  Name = 
REMARK  7 active torsions:
REMARK  status: ('A' for Active; 'I' for Inactive)
REMARK    1  A    between atoms: C_2  and  C_19
REMARK    2  A    between atoms: N_3  and  C_4
REMARK    3  A    between atoms: C_4  and  C_5
REMARK    4  A    between atoms: C_8  and  C_9
REMARK    5  A    between atoms: C_9  and  C_10
REMARK    6  A    between atoms: C_10  and  C_11
REMARK    7  A    between atoms: C_11  and  N_12
REMARK                            x       y       z     vdW  Elec       q    Type
REMARK                         _______ _______ _______ _____ _____    ______ ____
ROOT
ATOM      1  C   UNL     1      47.673   6.796  13.499  0.00  0.00    +0.000 C 
ENDROOT
BRANCH   1   2
ATOM      2  C   UNL     1      46.727   5.918  12.725  0.00  0.00    +0.000 A 
ATOM      3  C   UNL     1      46.258   6.317  11.469  0.00  0.00    +0.000 A 
ATOM      4  C   UNL     1      45.394   5.499  10.739  0.00  0.00    +0.000 A 
ATOM      5  C   UNL     1      44.984   4.261  11.253  0.00  0.00    +0.000 A 
ATOM      6  C   UNL     1      45.423   3.880  12.526  0.00  0.00    +0.000 A 
ATOM      7  C   UNL     1      46.281   4.702  13.258  0.00  0.00    +0.000 A 
BRANCH   5   8
ATOM      8  C   UNL     1      44.069   3.354  10.468  0.00  0.00    +0.000 C 
BRANCH   8   9
ATOM      9  C   UNL     1      44.545   3.057   9.044  0.00  0.00    +0.000 C 
BRANCH   9  10
ATOM     10  C   UNL     1      45.506   1.863   8.935  0.00  0.00    +0.000 C 
BRANCH  10  11
ATOM     11  N   UNL     1      46.054   1.782   7.579  0.00  0.00    +0.000 NA
ATOM     12  C   UNL     1      46.522   3.069   7.066  0.00  0.00    +0.000 C 
ATOM     13  C   UNL     1      47.531   2.645   6.023  0.00  0.00    +0.000 C 
ATOM     14  N   UNL     1      48.216   1.524   6.676  0.00  0.00    +0.000 NA
ATOM     15  C   UNL     1      47.166   0.850   7.442  0.00  0.00    +0.000 C 
ATOM     16  H   UNL     1      48.869   1.913   7.353  0.00  0.00    +0.000 HD
ENDBRANCH  10  11
ENDBRANCH   9  10
ENDBRANCH   8   9
ENDBRANCH   5   8
ENDBRANCH   1   2
BRANCH   1  19
ATOM     17  O   UNL     1      48.744   8.065  15.758  0.00  0.00    +0.000 OA
ATOM     18  C   UNL     1      48.630   6.842  15.766  0.00  0.00    +0.000 C 
ATOM     19  N   UNL     1      48.147   6.143  14.691  0.00  0.00    +0.000 N 
ATOM     20  H   UNL     1      47.904   5.164  14.799  0.00  0.00    +0.000 HD
BRANCH  18  21
ATOM     21  C   UNL     1      49.063   6.047  16.922  0.00  0.00    +0.000 A 
ATOM     22  C   UNL     1      48.111   5.499  17.770  0.00  0.00    +0.000 A 
ATOM     23  S   UNL     1      48.776   4.596  19.053  0.00  0.00    +0.000 S 
ATOM     24  C   UNL     1      50.361   4.873  18.498  0.00  0.00    +0.000 A 
ATOM     25  N   UNL     1      51.428   4.325  19.136  0.00  0.00    +0.000 NA
ATOM     26  C   UNL     1      52.568   4.577  18.583  0.00  0.00    +0.000 A 
ATOM     27  N   UNL     1      52.737   5.345  17.459  0.00  0.00    +0.000 N 
ATOM     28  C   UNL     1      51.697   5.991  16.833  0.00  0.00    +0.000 A 
ATOM     29  O   UNL     1      51.898   6.787  15.926  0.00  0.00    +0.000 OA
ATOM     30  C   UNL     1      50.384   5.679  17.374  0.00  0.00    +0.000 A 
ATOM     31  H   UNL     1      53.660   5.538  17.103  0.00  0.00    +0.000 HD
ENDBRANCH  18  21
ENDBRANCH   1  19
TORSDOF 7
ENDMDL
MODEL 7
REMARK VINA RESULT:    -6.688      2.905      8.526
REMARK INTER + INTRA:         -10.491
REMARK INTER:                  -9.132
REMARK INTRA:                  -1.359
REMARK UNBOUND:                -1.065
REMARK  Name = 
REMARK  7 active torsions:
REMARK  status: ('A' for Active; 'I' for Inactive)
REMARK    1  A    between atoms: C_2  and  C_19
REMARK    2  A    between atoms: N_3  and  C_4
REMARK    3  A    between atoms: C_4  and  C_5
REMARK    4  A    between atoms: C_8  and  C_9
REMARK    5  A    between atoms: C_9  and  C_10
REMARK    6  A    between atoms: C_10  and  C_11
REMARK    7  A    between atoms: C_11  and  N_12
REMARK                            x       y       z     vdW  Elec       q    Type
REMARK                         _______ _______ _______ _____ _____    ______ ____
ROOT
ATOM      1  C   UNL     1      47.222   7.845  12.134  0.00  0.00    +0.000 C 
ENDROOT
BRANCH   1   2
ATOM      2  C   UNL     1      47.819   7.852  13.516  0.00  0.00    +0.000 A 
ATOM      3  C   UNL     1      47.722   8.991  14.323  0.00  0.00    +0.000 A 
ATOM      4  C   UNL     1      48.260   8.997  15.612  0.00  0.00    +0.000 A 
ATOM      5  C   UNL     1      48.902   7.860  16.120  0.00  0.00    +0.000 A 
ATOM      6  C   UNL     1      49.032   6.735  15.297  0.00  0.00    +0.000 A 
ATOM      7  C   UNL     1      48.502   6.732  14.007  0.00  0.00    +0.000 A 
BRANCH   5   8
ATOM      8  C   UNL     1      49.468   7.842  17.518  0.00  0.00    +0.000 C 
BRANCH   8   9
ATOM      9  C   UNL     1      48.668   6.997  18.512  0.00  0.00    +0.000 C 
BRANCH   9  10
ATOM     10  C   UNL     1      49.423   5.770  19.048  0.00  0.00    +0.000 C 
BRANCH  10  11
ATOM     11  N   UNL     1      48.765   4.540  18.597  0.00  0.00    +0.000 NA
ATOM     12  C   UNL     1      47.440   4.770  18.025  0.00  0.00    +0.000 C 
ATOM     13  C   UNL     1      47.266   3.562  17.134  0.00  0.00    +0.000 C 
ATOM     14  N   UNL     1      48.597   3.410  16.536  0.00  0.00    +0.000 NA
ATOM     15  C   UNL     1      49.524   3.791  17.604  0.00  0.00    +0.000 C 
ATOM     16  H   UNL     1      48.688   4.111  15.803  0.00  0.00    +0.000 HD
ENDBRANCH  10  11
ENDBRANCH   9  10
ENDBRANCH   8   9
ENDBRANCH   5   8
ENDBRANCH   1   2
BRANCH   1  19
ATOM     17  O   UNL     1      44.467   7.398  11.866  0.00  0.00    +0.000 OA
ATOM     18  C   UNL     1      45.238   6.458  11.691  0.00  0.00    +0.000 C 
ATOM     19  N   UNL     1      46.594   6.584  11.835  0.00  0.00    +0.000 N 
ATOM     20  H   UNL     1      47.204   5.840  11.513  0.00  0.00    +0.000 HD
BRANCH  18  21
ATOM     21  C   UNL     1      44.737   5.116  11.370  0.00  0.00    +0.000 A 
ATOM     22  C   UNL     1      43.961   4.436  12.299  0.00  0.00    +0.000 A 
ATOM     23  S   UNL     1      43.449   2.899  11.770  0.00  0.00    +0.000 S 
ATOM     24  C   UNL     1      44.215   3.103  10.264  0.00  0.00    +0.000 A 
ATOM     25  N   UNL     1      44.124   2.148   9.302  0.00  0.00    +0.000 NA
ATOM     26  C   UNL     1      44.713   2.451   8.192  0.00  0.00    +0.000 A 
ATOM     27  N   UNL     1      45.400   3.616   7.967  0.00  0.00    +0.000 N 
ATOM     28  C   UNL     1      45.593   4.570   8.938  0.00  0.00    +0.000 A 
ATOM     29  O   UNL     1      46.335   5.525   8.753  0.00  0.00    +0.000 OA
ATOM     30  C   UNL     1      44.888   4.309  10.182  0.00  0.00    +0.000 A 
ATOM     31  H   UNL     1      45.873   3.772   7.090  0.00  0.00    +0.000 HD
ENDBRANCH  18  21
ENDBRANCH   1  19
TORSDOF 7
ENDMDL
MODEL 8
REMARK VINA RESULT:    -6.632      2.536      3.475
REMARK INTER + INTRA:         -10.411
REMARK INTER:                  -9.652
REMARK INTRA:                  -0.760
REMARK UNBOUND:                -1.065
REMARK  Name = 
REMARK  7 active torsions:
REMARK  status: ('A' for Active; 'I' for Inactive)
REMARK    1  A    between atoms: C_2  and  C_19
REMARK    2  A    between atoms: N_3  and  C_4
REMARK    3  A    between atoms: C_4  and  C_5
REMARK    4  A    between atoms: C_8  and  C_9
REMARK    5  A    between atoms: C_9  and  C_10
REMARK    6  A    between atoms: C_10  and  C_11
REMARK    7  A    between atoms: C_11  and  N_12
REMARK                            x       y       z     vdW  Elec       q    Type
REMARK                         _______ _______ _______ _____ _____    ______ ____
ROOT
ATOM      1  C   UNL     1      47.067   4.735  14.703  0.00  0.00    +0.000 C 
ENDROOT
BRANCH   1   2
ATOM      2  C   UNL     1      46.401   4.686  13.354  0.00  0.00    +0.000 A 
ATOM      3  C   UNL     1      46.479   5.780  12.486  0.00  0.00    +0.000 A 
ATOM      4  C   UNL     1      45.879   5.733  11.226  0.00  0.00    +0.000 A 
ATOM      5  C   UNL     1      45.190   4.585  10.809  0.00  0.00    +0.000 A 
ATOM      6  C   UNL     1      45.080   3.506  11.694  0.00  0.00    +0.000 A 
ATOM      7  C   UNL     1      45.674   3.557  12.955  0.00  0.00    +0.000 A 
BRANCH   5   8
ATOM      8  C   UNL     1      44.556   4.509   9.443  0.00  0.00    +0.000 C 
BRANCH   8   9
ATOM      9  C   UNL     1      45.485   3.991   8.343  0.00  0.00    +0.000 C 
BRANCH   9  10
ATOM     10  C   UNL     1      45.678   2.467   8.345  0.00  0.00    +0.000 C 
BRANCH  10  11
ATOM     11  N   UNL     1      46.290   2.036   7.085  0.00  0.00    +0.000 NA
ATOM     12  C   UNL     1      46.562   3.142   6.168  0.00  0.00    +0.000 C 
ATOM     13  C   UNL     1      47.671   2.576   5.312  0.00  0.00    +0.000 C 
ATOM     14  N   UNL     1      48.502   1.866   6.290  0.00  0.00    +0.000 NA
ATOM     15  C   UNL     1      47.544   1.314   7.251  0.00  0.00    +0.000 C 
ATOM     16  H   UNL     1      49.053   2.561   6.791  0.00  0.00    +0.000 HD
ENDBRANCH  10  11
ENDBRANCH   9  10
ENDBRANCH   8   9
ENDBRANCH   5   8
ENDBRANCH   1   2
BRANCH   1  19
ATOM     17  O   UNL     1      49.300   5.356  16.279  0.00  0.00    +0.000 OA
ATOM     18  C   UNL     1      48.666   6.274  15.766  0.00  0.00    +0.000 C 
ATOM     19  N   UNL     1      47.544   6.059  15.010  0.00  0.00    +0.000 N 
ATOM     20  H   UNL     1      47.154   6.819  14.463  0.00  0.00    +0.000 HD
BRANCH  18  21
ATOM     21  C   UNL     1      49.047   7.675  15.985  0.00  0.00    +0.000 A 
ATOM     22  C   UNL     1      49.808   8.334  15.030  0.00  0.00    +0.000 A 
ATOM     23  S   UNL     1      50.154   9.955  15.428  0.00  0.00    +0.000 S 
ATOM     24  C   UNL     1      49.265   9.845  16.875  0.00  0.00    +0.000 A 
ATOM     25  N   UNL     1      49.120  10.925  17.687  0.00  0.00    +0.000 NA
ATOM     26  C   UNL     1      48.383  10.716  18.728  0.00  0.00    +0.000 A 
ATOM     27  N   UNL     1      47.794   9.516  19.038  0.00  0.00    +0.000 N 
ATOM     28  C   UNL     1      47.986   8.376  18.294  0.00  0.00    +0.000 A 
ATOM     29  O   UNL     1      47.571   7.290  18.678  0.00  0.00    +0.000 OA
ATOM     30  C   UNL     1      48.747   8.577  17.073  0.00  0.00    +0.000 A 
ATOM     31  H   UNL     1      47.265   9.409  19.889  0.00  0.00    +0.000 HD
ENDBRANCH  18  21
ENDBRANCH   1  19
TORSDOF 7
ENDMDL
MODEL 9
REMARK VINA RESULT:    -6.603      3.385      4.967
REMARK INTER + INTRA:         -10.370
REMARK INTER:                  -9.351
REMARK INTRA:                  -1.018
REMARK UNBOUND:                -1.065
REMARK  Name = 
REMARK  7 active torsions:
REMARK  status: ('A' for Active; 'I' for Inactive)
REMARK    1  A    between atoms: C_2  and  C_19
REMARK    2  A    between atoms: N_3  and  C_4
REMARK    3  A    between atoms: C_4  and  C_5
REMARK    4  A    between atoms: C_8  and  C_9
REMARK    5  A    between atoms: C_9  and  C_10
REMARK    6  A    between atoms: C_10  and  C_11
REMARK    7  A    between atoms: C_11  and  N_12
REMARK                            x       y       z     vdW  Elec       q    Type
REMARK                         _______ _______ _______ _____ _____    ______ ____
ROOT
ATOM      1  C   UNL     1      48.230   4.634  17.157  0.00  0.00    +0.000 C 
ENDROOT
BRANCH   1   2
ATOM      2  C   UNL     1      47.935   5.149  15.774  0.00  0.00    +0.000 A 
ATOM      3  C   UNL     1      47.092   4.433  14.917  0.00  0.00    +0.000 A 
ATOM      4  C   UNL     1      46.801   4.914  13.639  0.00  0.00    +0.000 A 
ATOM      5  C   UNL     1      47.347   6.127  13.195  0.00  0.00    +0.000 A 
ATOM      6  C   UNL     1      48.220   6.822  14.038  0.00  0.00    +0.000 A 
ATOM      7  C   UNL     1      48.517   6.337  15.312  0.00  0.00    +0.000 A 
BRANCH   5   8
ATOM      8  C   UNL     1      47.024   6.672  11.826  0.00  0.00    +0.000 C 
BRANCH   8   9
ATOM      9  C   UNL     1      45.601   6.377  11.348  0.00  0.00    +0.000 C 
BRANCH   9  10
ATOM     10  C   UNL     1      45.524   5.427  10.143  0.00  0.00    +0.000 C 
BRANCH  10  11
ATOM     11  N   UNL     1      44.382   4.520  10.291  0.00  0.00    +0.000 NA
ATOM     12  C   UNL     1      44.714   3.285  10.999  0.00  0.00    +0.000 C 
ATOM     13  C   UNL     1      43.368   2.861  11.541  0.00  0.00    +0.000 C 
ATOM     14  N   UNL     1      42.781   4.132  11.977  0.00  0.00    +0.000 NA
ATOM     15  C   UNL     1      43.245   5.107  10.987  0.00  0.00    +0.000 C 
ATOM     16  H   UNL     1      43.215   4.385  12.863  0.00  0.00    +0.000 HD
ENDBRANCH  10  11
ENDBRANCH   9  10
ENDBRANCH   8   9
ENDBRANCH   5   8
ENDBRANCH   1   2
BRANCH   1  19
ATOM     17  O   UNL     1      49.794   4.819  19.476  0.00  0.00    +0.000 OA
ATOM     18  C   UNL     1      50.288   4.318  18.469  0.00  0.00    +0.000 C 
ATOM     19  N   UNL     1      49.603   4.220  17.287  0.00  0.00    +0.000 N 
ATOM     20  H   UNL     1      49.976   3.647  16.537  0.00  0.00    +0.000 HD
BRANCH  18  21
ATOM     21  C   UNL     1      51.677   3.842  18.461  0.00  0.00    +0.000 A 
ATOM     22  C   UNL     1      52.677   4.646  18.989  0.00  0.00    +0.000 A 
ATOM     23  S   UNL     1      54.229   3.946  18.915  0.00  0.00    +0.000 S 
ATOM     24  C   UNL     1      53.613   2.525  18.208  0.00  0.00    +0.000 A 
ATOM     25  N   UNL     1      54.430   1.478  17.923  0.00  0.00    +0.000 NA
ATOM     26  C   UNL     1      53.825   0.446  17.432  0.00  0.00    +0.000 A 
ATOM     27  N   UNL     1      52.479   0.378  17.183  0.00  0.00    +0.000 N 
ATOM     28  C   UNL     1      51.629   1.443  17.372  0.00  0.00    +0.000 A 
ATOM     29  O   UNL     1      50.464   1.399  17.000  0.00  0.00    +0.000 OA
ATOM     30  C   UNL     1      52.249   2.602  17.992  0.00  0.00    +0.000 A 
ATOM     31  H   UNL     1      52.076  -0.443  16.759  0.00  0.00    +0.000 HD
ENDBRANCH  18  21
ENDBRANCH   1  19
TORSDOF 7
ENDMDL
