MODEL 1
REMARK VINA RESULT:    -7.650      0.000      0.000
REMARK INTER + INTRA:         -10.543
REMARK INTER:                  -9.887
REMARK INTRA:                  -0.657
REMARK UNBOUND:                -0.657
REMARK  Name = 
REMARK  6 active torsions:
REMARK  status: ('A' for Active; 'I' for Inactive)
REMARK    1  A    between atoms: C_1  and  C_2
REMARK    2  A    between atoms: C_2  and  C_3
REMARK    3  A    between atoms: C_2  and  C_14
REMARK    4  A    between atoms: C_3  and  N_4
REMARK    5  A    between atoms: C_8  and  C_9
REMARK    6  A    between atoms: C_18  and  C_19
REMARK                            x       y       z     vdW  Elec       q    Type
REMARK                         _______ _______ _______ _____ _____    ______ ____
ROOT
ATOM      1  N   UNL     1      43.966   3.271  10.282  0.00  0.00    +0.000 N 
ATOM      2  C   UNL     1      44.912   3.070   9.264  0.00  0.00    +0.000 A 
ATOM      3  C   UNL     1      45.384   1.777   8.990  0.00  0.00    +0.000 A 
ATOM      4  N   UNL     1      46.262   1.475   7.995  0.00  0.00    +0.000 NA
ATOM      5  C   UNL     1      46.677   2.552   7.274  0.00  0.00    +0.000 A 
ATOM      6  C   UNL     1      46.250   3.840   7.552  0.00  0.00    +0.000 A 
ATOM      7  N   UNL     1      45.372   4.119   8.548  0.00  0.00    +0.000 NA
ATOM      8  H   UNL     1      43.159   2.681  10.095  0.00  0.00    +0.000 HD
ENDROOT
BRANCH   5   9
ATOM      9  C   UNL     1      47.595   2.326   6.127  0.00  0.00    +0.000 C 
ATOM     10  N   UNL     1      47.521   3.231   5.104  0.00  0.00    +0.000 N 
ATOM     11  O   UNL     1      48.384   1.389   6.099  0.00  0.00    +0.000 OA
ATOM     12  H   UNL     1      46.869   4.005   5.147  0.00  0.00    +0.000 HD
ATOM     13  H   UNL     1      48.141   3.129   4.312  0.00  0.00    +0.000 HD
ENDBRANCH   5   9
BRANCH   1  14
ATOM     14  C   UNL     1      43.565   4.667  10.444  0.00  0.00    +0.000 C 
BRANCH  14  16
ATOM     15  C   UNL     1      42.671   5.487  12.718  0.00  0.00    +0.000 C 
ATOM     16  C   UNL     1      43.825   5.035  11.877  0.00  0.00    +0.000 C 
BRANCH  16  17
ATOM     17  C   UNL     1      45.194   5.397  12.270  0.00  0.00    +0.000 A 
ATOM     18  C   UNL     1      45.959   6.290  11.507  0.00  0.00    +0.000 A 
ATOM     19  C   UNL     1      47.235   6.671  11.931  0.00  0.00    +0.000 A 
ATOM     20  C   UNL     1      47.754   6.168  13.124  0.00  0.00    +0.000 A 
ATOM     21  C   UNL     1      47.004   5.270  13.886  0.00  0.00    +0.000 A 
ATOM     22  C   UNL     1      45.734   4.881  13.453  0.00  0.00    +0.000 A 
BRANCH  21  23
ATOM     23  C   UNL     1      47.512   4.765  15.123  0.00  0.00    +0.000 C 
ATOM     24  N   UNL     1      47.912   4.335  16.125  0.00  0.00    +0.000 NA
ENDBRANCH  21  23
ENDBRANCH  16  17
ENDBRANCH  14  16
ENDBRANCH   1  14
TORSDOF 5
ENDMDL
MODEL 2
REMARK VINA RESULT:    -7.415      2.098      2.711
REMARK INTER + INTRA:         -10.239
REMARK INTER:                  -9.683
REMARK INTRA:                  -0.556
REMARK UNBOUND:                -0.657
REMARK  Name = 
REMARK  6 active torsions:
REMARK  status: ('A' for Active; 'I' for Inactive)
REMARK    1  A    between atoms: C_1  and  C_2
REMARK    2  A    between atoms: C_2  and  C_3
REMARK    3  A    between atoms: C_2  and  C_14
REMARK    4  A    between atoms: C_3  and  N_4
REMARK    5  A    between atoms: C_8  and  C_9
REMARK    6  A    between atoms: C_18  and  C_19
REMARK                            x       y       z     vdW  Elec       q    Type
REMARK                         _______ _______ _______ _____ _____    ______ ____
ROOT
ATOM      1  N   UNL     1      43.942   3.488  10.351  0.00  0.00    +0.000 N 
ATOM      2  C   UNL     1      44.887   3.245   9.341  0.00  0.00    +0.000 A 
ATOM      3  C   UNL     1      45.315   1.933   9.083  0.00  0.00    +0.000 A 
ATOM      4  N   UNL     1      46.189   1.591   8.097  0.00  0.00    +0.000 NA
ATOM      5  C   UNL     1      46.646   2.646   7.369  0.00  0.00    +0.000 A 
ATOM      6  C   UNL     1      46.262   3.951   7.631  0.00  0.00    +0.000 A 
ATOM      7  N   UNL     1      45.388   4.270   8.619  0.00  0.00    +0.000 NA
ATOM      8  H   UNL     1      43.116   2.925  10.163  0.00  0.00    +0.000 HD
ENDROOT
BRANCH   5   9
ATOM      9  C   UNL     1      47.563   2.377   6.230  0.00  0.00    +0.000 C 
ATOM     10  N   UNL     1      47.380   3.141   5.110  0.00  0.00    +0.000 N 
ATOM     11  O   UNL     1      48.444   1.527   6.290  0.00  0.00    +0.000 OA
ATOM     12  H   UNL     1      46.652   3.845   5.081  0.00  0.00    +0.000 HD
ATOM     13  H   UNL     1      47.994   3.007   4.318  0.00  0.00    +0.000 HD
ENDBRANCH   5   9
BRANCH   1  14
ATOM     14  C   UNL     1      43.588   4.899  10.496  0.00  0.00    +0.000 C 
BRANCH  14  16
ATOM     15  C   UNL     1      43.101   5.063  13.021  0.00  0.00    +0.000 C 
ATOM     16  C   UNL     1      44.023   5.321  11.870  0.00  0.00    +0.000 C 
BRANCH  16  17
ATOM     17  C   UNL     1      45.060   6.356  11.990  0.00  0.00    +0.000 A 
ATOM     18  C   UNL     1      46.419   6.021  12.063  0.00  0.00    +0.000 A 
ATOM     19  C   UNL     1      47.394   7.022  12.113  0.00  0.00    +0.000 A 
ATOM     20  C   UNL     1      47.019   8.365  12.081  0.00  0.00    +0.000 A 
ATOM     21  C   UNL     1      45.668   8.709  12.017  0.00  0.00    +0.000 A 
ATOM     22  C   UNL     1      44.694   7.707  11.982  0.00  0.00    +0.000 A 
BRANCH  21  23
ATOM     23  C   UNL     1      45.269  10.080  11.960  0.00  0.00    +0.000 C 
ATOM     24  N   UNL     1      44.930  11.192  11.932  0.00  0.00    +0.000 NA
ENDBRANCH  21  23
ENDBRANCH  16  17
ENDBRANCH  14  16
ENDBRANCH   1  14
TORSDOF 5
ENDMDL
MODEL 3
REMARK VINA RESULT:    -7.345      3.103      6.267
REMARK INTER + INTRA:         -10.148
REMARK INTER:                  -9.498
REMARK INTRA:                  -0.650
REMARK UNBOUND:                -0.657
REMARK  Name = 
REMARK  6 active torsions:
REMARK  status: ('A' for Active; 'I' for Inactive)
REMARK    1  A    between atoms: C_1  and  C_2
REMARK    2  A    between atoms: C_2  and  C_3
REMARK    3  A    between atoms: C_2  and  C_14
REMARK    4  A    between atoms: C_3  and  N_4
REMARK    5  A    between atoms: C_8  and  C_9
REMARK    6  A    between atoms: C_18  and  C_19
REMARK                            x       y       z     vdW  Elec       q    Type
REMARK                         _______ _______ _______ _____ _____    ______ ____
ROOT
ATOM      1  N   UNL     1      44.813   4.737  12.752  0.00  0.00    +0.000 N 
ATOM      2  C   UNL     1      46.018   5.455  12.809  0.00  0.00    +0.000 A 
ATOM      3  C   UNL     1      46.870   5.309  13.915  0.00  0.00    +0.000 A 
ATOM      4  N   UNL     1      48.078   5.923  14.041  0.00  0.00    +0.000 NA
ATOM      5  C   UNL     1      48.402   6.729  12.994  0.00  0.00    +0.000 A 
ATOM      6  C   UNL     1      47.560   6.914  11.910  0.00  0.00    +0.000 A 
ATOM      7  N   UNL     1      46.359   6.289  11.805  0.00  0.00    +0.000 NA
ATOM      8  H   UNL     1      45.021   3.746  12.852  0.00  0.00    +0.000 HD
ENDROOT
BRANCH   5   9
ATOM      9  C   UNL     1      49.726   7.405  13.004  0.00  0.00    +0.000 C 
ATOM     10  N   UNL     1      50.421   7.396  11.825  0.00  0.00    +0.000 N 
ATOM     11  O   UNL     1      50.171   7.953  14.006  0.00  0.00    +0.000 OA
ATOM     12  H   UNL     1      50.035   6.946  11.004  0.00  0.00    +0.000 HD
ATOM     13  H   UNL     1      51.317   7.861  11.780  0.00  0.00    +0.000 HD
ENDBRANCH   5   9
BRANCH   1  14
ATOM     14  C   UNL     1      44.038   4.986  11.538  0.00  0.00    +0.000 C 
BRANCH  14  16
ATOM     15  C   UNL     1      43.364   2.499  11.537  0.00  0.00    +0.000 C 
ATOM     16  C   UNL     1      43.932   3.678  10.809  0.00  0.00    +0.000 C 
BRANCH  16  17
ATOM     17  C   UNL     1      44.786   3.460   9.632  0.00  0.00    +0.000 A 
ATOM     18  C   UNL     1      45.278   4.536   8.880  0.00  0.00    +0.000 A 
ATOM     19  C   UNL     1      46.140   4.312   7.803  0.00  0.00    +0.000 A 
ATOM     20  C   UNL     1      46.524   3.012   7.474  0.00  0.00    +0.000 A 
ATOM     21  C   UNL     1      46.032   1.933   8.211  0.00  0.00    +0.000 A 
ATOM     22  C   UNL     1      45.159   2.159   9.278  0.00  0.00    +0.000 A 
BRANCH  21  23
ATOM     23  C   UNL     1      46.435   0.597   7.900  0.00  0.00    +0.000 C 
ATOM     24  N   UNL     1      46.769  -0.481   7.627  0.00  0.00    +0.000 NA
ENDBRANCH  21  23
ENDBRANCH  16  17
ENDBRANCH  14  16
ENDBRANCH   1  14
TORSDOF 5
ENDMDL
MODEL 4
REMARK VINA RESULT:    -6.792      3.416      7.474
REMARK INTER + INTRA:          -9.434
REMARK INTER:                  -9.018
REMARK INTRA:                  -0.416
REMARK UNBOUND:                -0.657
REMARK  Name = 
REMARK  6 active torsions:
REMARK  status: ('A' for Active; 'I' for Inactive)
REMARK    1  A    between atoms: C_1  and  C_2
REMARK    2  A    between atoms: C_2  and  C_3
REMARK    3  A    between atoms: C_2  and  C_14
REMARK    4  A    between atoms: C_3  and  N_4
REMARK    5  A    between atoms: C_8  and  C_9
REMARK    6  A    between atoms: C_18  and  C_19
REMARK                            x       y       z     vdW  Elec       q    Type
REMARK                         _______ _______ _______ _____ _____    ______ ____
ROOT
ATOM      1  N   UNL     1      46.238   4.837  12.586  0.00  0.00    +0.000 N 
ATOM      2  C   UNL     1      46.894   4.899  13.826  0.00  0.00    +0.000 A 
ATOM      3  C   UNL     1      47.776   5.955  14.101  0.00  0.00    +0.000 A 
ATOM      4  N   UNL     1      48.421   6.128  15.287  0.00  0.00    +0.000 NA
ATOM      5  C   UNL     1      48.156   5.163  16.209  0.00  0.00    +0.000 A 
ATOM      6  C   UNL     1      47.315   4.095  15.945  0.00  0.00    +0.000 A 
ATOM      7  N   UNL     1      46.681   3.942  14.755  0.00  0.00    +0.000 NA
ATOM      8  H   UNL     1      45.731   5.708  12.445  0.00  0.00    +0.000 HD
ENDROOT
BRANCH   5   9
ATOM      9  C   UNL     1      48.766   5.287  17.559  0.00  0.00    +0.000 C 
ATOM     10  N   UNL     1      48.587   6.483  18.198  0.00  0.00    +0.000 N 
ATOM     11  O   UNL     1      49.385   4.367  18.081  0.00  0.00    +0.000 OA
ATOM     12  H   UNL     1      48.065   7.231  17.756  0.00  0.00    +0.000 HD
ATOM     13  H   UNL     1      48.967   6.605  19.127  0.00  0.00    +0.000 HD
ENDBRANCH   5   9
BRANCH   1  14
ATOM     14  C   UNL     1      45.346   3.687  12.450  0.00  0.00    +0.000 C 
BRANCH  14  16
ATOM     15  C   UNL     1      43.020   3.906  11.361  0.00  0.00    +0.000 C 
ATOM     16  C   UNL     1      44.511   3.921  11.223  0.00  0.00    +0.000 C 
BRANCH  16  17
ATOM     17  C   UNL     1      45.120   3.686   9.907  0.00  0.00    +0.000 A 
ATOM     18  C   UNL     1      45.450   4.750   9.055  0.00  0.00    +0.000 A 
ATOM     19  C   UNL     1      46.086   4.509   7.834  0.00  0.00    +0.000 A 
ATOM     20  C   UNL     1      46.405   3.205   7.457  0.00  0.00    +0.000 A 
ATOM     21  C   UNL     1      46.072   2.138   8.293  0.00  0.00    +0.000 A 
ATOM     22  C   UNL     1      45.424   2.379   9.507  0.00  0.00    +0.000 A 
BRANCH  21  23
ATOM     23  C   UNL     1      46.414   0.798   7.932  0.00  0.00    +0.000 C 
ATOM     24  N   UNL     1      46.711  -0.284   7.628  0.00  0.00    +0.000 NA
ENDBRANCH  21  23
ENDBRANCH  16  17
ENDBRANCH  14  16
ENDBRANCH   1  14
TORSDOF 5
ENDMDL
MODEL 5
REMARK VINA RESULT:    -6.674      1.933      2.439
REMARK INTER + INTRA:          -9.282
REMARK INTER:                  -8.785
REMARK INTRA:                  -0.497
REMARK UNBOUND:                -0.657
REMARK  Name = 
REMARK  6 active torsions:
REMARK  status: ('A' for Active; 'I' for Inactive)
REMARK    1  A    between atoms: C_1  and  C_2
REMARK    2  A    between atoms: C_2  and  C_3
REMARK    3  A    between atoms: C_2  and  C_14
REMARK    4  A    between atoms: C_3  and  N_4
REMARK    5  A    between atoms: C_8  and  C_9
REMARK    6  A    between atoms: C_18  and  C_19
REMARK                            x       y       z     vdW  Elec       q    Type
REMARK                         _______ _______ _______ _____ _____    ______ ____
ROOT
ATOM      1  N   UNL     1      44.096   3.877  10.478  0.00  0.00    +0.000 N 
ATOM      2  C   UNL     1      44.972   3.605   9.414  0.00  0.00    +0.000 A 
ATOM      3  C   UNL     1      45.156   2.284   8.977  0.00  0.00    +0.000 A 
ATOM      4  N   UNL     1      45.945   1.926   7.927  0.00  0.00    +0.000 NA
ATOM      5  C   UNL     1      46.575   2.970   7.324  0.00  0.00    +0.000 A 
ATOM      6  C   UNL     1      46.433   4.276   7.763  0.00  0.00    +0.000 A 
ATOM      7  N   UNL     1      45.640   4.612   8.812  0.00  0.00    +0.000 NA
ATOM      8  H   UNL     1      43.181   3.497  10.248  0.00  0.00    +0.000 HD
ENDROOT
BRANCH   5   9
ATOM      9  C   UNL     1      47.418   2.695   6.130  0.00  0.00    +0.000 C 
ATOM     10  N   UNL     1      48.685   2.241   6.374  0.00  0.00    +0.000 N 
ATOM     11  O   UNL     1      47.002   2.854   4.989  0.00  0.00    +0.000 OA
ATOM     12  H   UNL     1      49.010   2.107   7.324  0.00  0.00    +0.000 HD
ATOM     13  H   UNL     1      49.287   2.022   5.592  0.00  0.00    +0.000 HD
ENDBRANCH   5   9
BRANCH   1  14
ATOM     14  C   UNL     1      44.002   5.296  10.813  0.00  0.00    +0.000 C 
BRANCH  14  16
ATOM     15  C   UNL     1      44.697   4.809  13.246  0.00  0.00    +0.000 C 
ATOM     16  C   UNL     1      44.939   5.539  11.962  0.00  0.00    +0.000 C 
BRANCH  16  17
ATOM     17  C   UNL     1      45.731   6.777  11.969  0.00  0.00    +0.000 A 
ATOM     18  C   UNL     1      45.134   8.023  12.205  0.00  0.00    +0.000 A 
ATOM     19  C   UNL     1      45.914   9.181  12.272  0.00  0.00    +0.000 A 
ATOM     20  C   UNL     1      47.297   9.103  12.111  0.00  0.00    +0.000 A 
ATOM     21  C   UNL     1      47.901   7.868  11.866  0.00  0.00    +0.000 A 
ATOM     22  C   UNL     1      47.117   6.713  11.786  0.00  0.00    +0.000 A 
BRANCH  21  23
ATOM     23  C   UNL     1      49.319   7.768  11.722  0.00  0.00    +0.000 C 
ATOM     24  N   UNL     1      50.469   7.675  11.585  0.00  0.00    +0.000 NA
ENDBRANCH  21  23
ENDBRANCH  16  17
ENDBRANCH  14  16
ENDBRANCH   1  14
TORSDOF 5
ENDMDL
MODEL 6
REMARK VINA RESULT:    -6.328      3.283      7.743
REMARK INTER + INTRA:          -8.834
REMARK INTER:                  -8.440
REMARK INTRA:                  -0.394
REMARK UNBOUND:                -0.657
REMARK  Name = 
REMARK  6 active torsions:
REMARK  status: ('A' for Active; 'I' for Inactive)
REMARK    1  A    between atoms: C_1  and  C_2
REMARK    2  A    between atoms: C_2  and  C_3
REMARK    3  A    between atoms: C_2  and  C_14
REMARK    4  A    between atoms: C_3  and  N_4
REMARK    5  A    between atoms: C_8  and  C_9
REMARK    6  A    between atoms: C_18  and  C_19
REMARK                            x       y       z     vdW  Elec       q    Type
REMARK                         _______ _______ _______ _____ _____    ______ ____
ROOT
ATOM      1  N   UNL     1      46.498   5.905  13.787  0.00  0.00    +0.000 N 
ATOM      2  C   UNL     1      47.198   5.263  14.822  0.00  0.00    +0.000 A 
ATOM      3  C   UNL     1      48.349   5.857  15.364  0.00  0.00    +0.000 A 
ATOM      4  N   UNL     1      49.066   5.338  16.397  0.00  0.00    +0.000 NA
ATOM      5  C   UNL     1      48.585   4.157  16.870  0.00  0.00    +0.000 A 
ATOM      6  C   UNL     1      47.471   3.538  16.325  0.00  0.00    +0.000 A 
ATOM      7  N   UNL     1      46.769   4.074  15.295  0.00  0.00    +0.000 NA
ATOM      8  H   UNL     1      46.246   6.840  14.099  0.00  0.00    +0.000 HD
ENDROOT
BRANCH   5   9
ATOM      9  C   UNL     1      49.262   3.531  18.036  0.00  0.00    +0.000 C 
ATOM     10  N   UNL     1      48.462   3.200  19.096  0.00  0.00    +0.000 N 
ATOM     11  O   UNL     1      50.467   3.310  18.048  0.00  0.00    +0.000 OA
ATOM     12  H   UNL     1      47.466   3.382  19.066  0.00  0.00    +0.000 HD
ATOM     13  H   UNL     1      48.877   2.754  19.903  0.00  0.00    +0.000 HD
ENDBRANCH   5   9
BRANCH   1  14
ATOM     14  C   UNL     1      45.319   5.171  13.333  0.00  0.00    +0.000 C 
BRANCH  14  16
ATOM     15  C   UNL     1      44.556   6.882  11.563  0.00  0.00    +0.000 C 
ATOM     16  C   UNL     1      45.108   5.528  11.889  0.00  0.00    +0.000 C 
BRANCH  16  17
ATOM     17  C   UNL     1      44.989   4.441  10.908  0.00  0.00    +0.000 A 
ATOM     18  C   UNL     1      44.226   3.296  11.179  0.00  0.00    +0.000 A 
ATOM     19  C   UNL     1      44.073   2.301  10.209  0.00  0.00    +0.000 A 
ATOM     20  C   UNL     1      44.674   2.446   8.958  0.00  0.00    +0.000 A 
ATOM     21  C   UNL     1      45.443   3.577   8.682  0.00  0.00    +0.000 A 
ATOM     22  C   UNL     1      45.607   4.564   9.659  0.00  0.00    +0.000 A 
BRANCH  21  23
ATOM     23  C   UNL     1      46.045   3.751   7.398  0.00  0.00    +0.000 C 
ATOM     24  N   UNL     1      46.551   3.875   6.359  0.00  0.00    +0.000 NA
ENDBRANCH  21  23
ENDBRANCH  16  17
ENDBRANCH  14  16
ENDBRANCH   1  14
TORSDOF 5
ENDMDL
MODEL 7
REMARK VINA RESULT:    -6.277      3.282      7.558
REMARK INTER + INTRA:          -8.768
REMARK INTER:                  -8.280
REMARK INTRA:                  -0.488
REMARK UNBOUND:                -0.657
REMARK  Name = 
REMARK  6 active torsions:
REMARK  status: ('A' for Active; 'I' for Inactive)
REMARK    1  A    between atoms: C_1  and  C_2
REMARK    2  A    between atoms: C_2  and  C_3
REMARK    3  A    between atoms: C_2  and  C_14
REMARK    4  A    between atoms: C_3  and  N_4
REMARK    5  A    between atoms: C_8  and  C_9
REMARK    6  A    between atoms: C_18  and  C_19
REMARK                            x       y       z     vdW  Elec       q    Type
REMARK                         _______ _______ _______ _____ _____    ______ ____
ROOT
ATOM      1  N   UNL     1      48.347   7.161  13.804  0.00  0.00    +0.000 N 
ATOM      2  C   UNL     1      48.179   6.148  14.763  0.00  0.00    +0.000 A 
ATOM      3  C   UNL     1      48.555   6.376  16.096  0.00  0.00    +0.000 A 
ATOM      4  N   UNL     1      48.388   5.478  17.104  0.00  0.00    +0.000 NA
ATOM      5  C   UNL     1      47.832   4.300  16.712  0.00  0.00    +0.000 A 
ATOM      6  C   UNL     1      47.487   4.043  15.396  0.00  0.00    +0.000 A 
ATOM      7  N   UNL     1      47.660   4.955  14.405  0.00  0.00    +0.000 NA
ATOM      8  H   UNL     1      47.858   7.994  14.124  0.00  0.00    +0.000 HD
ENDROOT
BRANCH   5   9
ATOM      9  C   UNL     1      47.555   3.268  17.747  0.00  0.00    +0.000 C 
ATOM     10  N   UNL     1      48.428   3.214  18.799  0.00  0.00    +0.000 N 
ATOM     11  O   UNL     1      46.593   2.513  17.671  0.00  0.00    +0.000 OA
ATOM     12  H   UNL     1      49.213   3.852  18.849  0.00  0.00    +0.000 HD
ATOM     13  H   UNL     1      48.267   2.542  19.536  0.00  0.00    +0.000 HD
ENDBRANCH   5   9
BRANCH   1  14
ATOM     14  C   UNL     1      47.903   6.780  12.464  0.00  0.00    +0.000 C 
BRANCH  14  16
ATOM     15  C   UNL     1      46.085   8.530  12.988  0.00  0.00    +0.000 C 
ATOM     16  C   UNL     1      46.484   7.250  12.322  0.00  0.00    +0.000 C 
BRANCH  16  17
ATOM     17  C   UNL     1      45.452   6.264  11.970  0.00  0.00    +0.000 A 
ATOM     18  C   UNL     1      44.365   6.013  12.819  0.00  0.00    +0.000 A 
ATOM     19  C   UNL     1      43.361   5.118  12.438  0.00  0.00    +0.000 A 
ATOM     20  C   UNL     1      43.430   4.473  11.204  0.00  0.00    +0.000 A 
ATOM     21  C   UNL     1      44.513   4.709  10.355  0.00  0.00    +0.000 A 
ATOM     22  C   UNL     1      45.523   5.593  10.744  0.00  0.00    +0.000 A 
BRANCH  21  23
ATOM     23  C   UNL     1      44.587   4.075   9.077  0.00  0.00    +0.000 C 
ATOM     24  N   UNL     1      44.670   3.560   8.038  0.00  0.00    +0.000 NA
ENDBRANCH  21  23
ENDBRANCH  16  17
ENDBRANCH  14  16
ENDBRANCH   1  14
TORSDOF 5
ENDMDL
MODEL 8
REMARK VINA RESULT:    -6.244      3.742      6.265
REMARK INTER + INTRA:          -8.726
REMARK INTER:                  -8.311
REMARK INTRA:                  -0.414
REMARK UNBOUND:                -0.657
REMARK  Name = 
REMARK  6 active torsions:
REMARK  status: ('A' for Active; 'I' for Inactive)
REMARK    1  A    between atoms: C_1  and  C_2
REMARK    2  A    between atoms: C_2  and  C_3
REMARK    3  A    between atoms: C_2  and  C_14
REMARK    4  A    between atoms: C_3  and  N_4
REMARK    5  A    between atoms: C_8  and  C_9
REMARK    6  A    between atoms: C_18  and  C_19
REMARK                            x       y       z     vdW  Elec       q    Type
REMARK                         _______ _______ _______ _____ _____    ______ ____
ROOT
ATOM      1  N   UNL     1      47.140   4.986  15.224  0.00  0.00    +0.000 N 
ATOM      2  C   UNL     1      46.449   4.760  14.022  0.00  0.00    +0.000 A 
ATOM      3  C   UNL     1      46.062   5.846  13.222  0.00  0.00    +0.000 A 
ATOM      4  N   UNL     1      45.433   5.728  12.020  0.00  0.00    +0.000 NA
ATOM      5  C   UNL     1      45.182   4.444  11.649  0.00  0.00    +0.000 A 
ATOM      6  C   UNL     1      45.525   3.361  12.442  0.00  0.00    +0.000 A 
ATOM      7  N   UNL     1      46.154   3.501  13.636  0.00  0.00    +0.000 NA
ATOM      8  H   UNL     1      47.974   5.533  15.020  0.00  0.00    +0.000 HD
ENDROOT
BRANCH   5   9
ATOM      9  C   UNL     1      44.547   4.199  10.327  0.00  0.00    +0.000 C 
ATOM     10  N   UNL     1      44.990   4.974   9.290  0.00  0.00    +0.000 N 
ATOM     11  O   UNL     1      43.684   3.345  10.167  0.00  0.00    +0.000 OA
ATOM     12  H   UNL     1      45.710   5.671   9.438  0.00  0.00    +0.000 HD
ATOM     13  H   UNL     1      44.601   4.829   8.368  0.00  0.00    +0.000 HD
ENDBRANCH   5   9
BRANCH   1  14
ATOM     14  C   UNL     1      47.483   3.761  15.943  0.00  0.00    +0.000 C 
BRANCH  14  16
ATOM     15  C   UNL     1      47.334   5.062  18.163  0.00  0.00    +0.000 C 
ATOM     16  C   UNL     1      48.114   4.176  17.242  0.00  0.00    +0.000 C 
BRANCH  16  17
ATOM     17  C   UNL     1      49.578   4.118  17.359  0.00  0.00    +0.000 A 
ATOM     18  C   UNL     1      50.355   5.285  17.377  0.00  0.00    +0.000 A 
ATOM     19  C   UNL     1      51.739   5.212  17.553  0.00  0.00    +0.000 A 
ATOM     20  C   UNL     1      52.358   3.973  17.721  0.00  0.00    +0.000 A 
ATOM     21  C   UNL     1      51.595   2.805  17.696  0.00  0.00    +0.000 A 
ATOM     22  C   UNL     1      50.213   2.879  17.505  0.00  0.00    +0.000 A 
BRANCH  21  23
ATOM     23  C   UNL     1      52.211   1.530  17.890  0.00  0.00    +0.000 C 
ATOM     24  N   UNL     1      52.722   0.501  18.069  0.00  0.00    +0.000 NA
ENDBRANCH  21  23
ENDBRANCH  16  17
ENDBRANCH  14  16
ENDBRANCH   1  14
TORSDOF 5
ENDMDL
MODEL 9
REMARK VINA RESULT:    -6.105      3.520      7.970
REMARK INTER + INTRA:          -8.546
REMARK INTER:                  -8.134
REMARK INTRA:                  -0.412
REMARK UNBOUND:                -0.657
REMARK  Name = 
REMARK  6 active torsions:
REMARK  status: ('A' for Active; 'I' for Inactive)
REMARK    1  A    between atoms: C_1  and  C_2
REMARK    2  A    between atoms: C_2  and  C_3
REMARK    3  A    between atoms: C_2  and  C_14
REMARK    4  A    between atoms: C_3  and  N_4
REMARK    5  A    between atoms: C_8  and  C_9
REMARK    6  A    between atoms: C_18  and  C_19
REMARK                            x       y       z     vdW  Elec       q    Type
REMARK                         _______ _______ _______ _____ _____    ______ ____
ROOT
ATOM      1  N   UNL     1      46.929   5.175  13.912  0.00  0.00    +0.000 N 
ATOM      2  C   UNL     1      47.511   5.001  15.179  0.00  0.00    +0.000 A 
ATOM      3  C   UNL     1      47.109   3.932  15.994  0.00  0.00    +0.000 A 
ATOM      4  N   UNL     1      47.645   3.652  17.213  0.00  0.00    +0.000 NA
ATOM      5  C   UNL     1      48.616   4.521  17.605  0.00  0.00    +0.000 A 
ATOM      6  C   UNL     1      49.002   5.602  16.830  0.00  0.00    +0.000 A 
ATOM      7  N   UNL     1      48.455   5.862  15.616  0.00  0.00    +0.000 NA
ATOM      8  H   UNL     1      47.052   4.317  13.379  0.00  0.00    +0.000 HD
ENDROOT
BRANCH   5   9
ATOM      9  C   UNL     1      49.308   4.274  18.898  0.00  0.00    +0.000 C 
ATOM     10  N   UNL     1      48.607   3.565  19.835  0.00  0.00    +0.000 N 
ATOM     11  O   UNL     1      50.446   4.672  19.113  0.00  0.00    +0.000 OA
ATOM     12  H   UNL     1      47.669   3.236  19.637  0.00  0.00    +0.000 HD
ATOM     13  H   UNL     1      49.046   3.356  20.722  0.00  0.00    +0.000 HD
ENDBRANCH   5   9
BRANCH   1  14
ATOM     14  C   UNL     1      47.455   6.324  13.178  0.00  0.00    +0.000 C 
BRANCH  14  16
ATOM     15  C   UNL     1      45.759   8.249  12.926  0.00  0.00    +0.000 C 
ATOM     16  C   UNL     1      46.300   6.939  12.440  0.00  0.00    +0.000 C 
BRANCH  16  17
ATOM     17  C   UNL     1      45.455   6.069  11.611  0.00  0.00    +0.000 A 
ATOM     18  C   UNL     1      44.137   5.766  11.980  0.00  0.00    +0.000 A 
ATOM     19  C   UNL     1      43.329   4.987  11.147  0.00  0.00    +0.000 A 
ATOM     20  C   UNL     1      43.828   4.512   9.934  0.00  0.00    +0.000 A 
ATOM     21  C   UNL     1      45.142   4.801   9.561  0.00  0.00    +0.000 A 
ATOM     22  C   UNL     1      45.952   5.567  10.403  0.00  0.00    +0.000 A 
BRANCH  21  23
ATOM     23  C   UNL     1      45.660   4.342   8.311  0.00  0.00    +0.000 C 
ATOM     24  N   UNL     1      46.060   3.958   7.290  0.00  0.00    +0.000 NA
ENDBRANCH  21  23
ENDBRANCH  16  17
ENDBRANCH  14  16
ENDBRANCH   1  14
TORSDOF 5
ENDMDL
