MODEL 1
REMARK VINA RESULT:    -7.112      0.000      0.000
REMARK INTER + INTRA:         -10.003
REMARK INTER:                  -9.190
REMARK INTRA:                  -0.812
REMARK UNBOUND:                -0.812
REMARK  Name = 
REMARK  6 active torsions:
REMARK  status: ('A' for Active; 'I' for Inactive)
REMARK    1  A    between atoms: C_1  and  O_2
REMARK    2  A    between atoms: O_2  and  C_3
REMARK    3  A    between atoms: C_5  and  O_6
REMARK    4  A    between atoms: O_6  and  C_7
REMARK    5  A    between atoms: C_7  and  C_8
REMARK    6  A    between atoms: C_17  and  C_18
REMARK                            x       y       z     vdW  Elec       q    Type
REMARK                         _______ _______ _______ _____ _____    ______ ____
ROOT
ATOM      1  C   UNL     1      47.051   5.292  13.346  0.00  0.00    +0.000 A 
ATOM      2  C   UNL     1      46.054   4.481  12.785  0.00  0.00    +0.000 A 
ATOM      3  C   UNL     1      45.303   4.922  11.691  0.00  0.00    +0.000 A 
ATOM      4  C   UNL     1      45.488   6.217  11.208  0.00  0.00    +0.000 A 
ATOM      5  C   UNL     1      46.477   7.026  11.759  0.00  0.00    +0.000 A 
ATOM      6  C   UNL     1      47.282   6.571  12.820  0.00  0.00    +0.000 A 
ENDROOT
BRANCH   6   7
ATOM      7  C   UNL     1      48.379   7.490  13.302  0.00  0.00    +0.000 C 
ATOM      8  F   UNL     1      49.651   7.014  13.235  0.00  0.00    +0.000 F 
ATOM      9  F   UNL     1      48.394   8.657  12.591  0.00  0.00    +0.000 F 
ATOM     10  F   UNL     1      48.194   7.869  14.601  0.00  0.00    +0.000 F 
ENDBRANCH   6   7
BRANCH   1  12
ATOM     11  C   UNL     1      47.113   4.353  15.534  0.00  0.00    +0.000 C 
ATOM     12  O   UNL     1      47.802   4.928  14.429  0.00  0.00    +0.000 OA
ENDBRANCH   1  12
BRANCH   3  13
ATOM     13  O   UNL     1      44.416   4.018  11.172  0.00  0.00    +0.000 OA
BRANCH  13  14
ATOM     14  C   UNL     1      44.112   4.207   9.789  0.00  0.00    +0.000 C 
BRANCH  14  15
ATOM     15  C   UNL     1      45.080   3.416   8.959  0.00  0.00    +0.000 A 
ATOM     16  C   UNL     1      45.869   4.033   7.983  0.00  0.00    +0.000 A 
ATOM     17  C   UNL     1      46.729   3.260   7.212  0.00  0.00    +0.000 A 
ATOM     18  C   UNL     1      46.778   1.897   7.452  0.00  0.00    +0.000 A 
ATOM     19  F   UNL     1      47.597   1.149   6.700  0.00  0.00    +0.000 F 
ATOM     20  N   UNL     1      46.049   1.269   8.396  0.00  0.00    +0.000 NA
ATOM     21  C   UNL     1      45.224   2.044   9.133  0.00  0.00    +0.000 A 
ENDBRANCH  14  15
ENDBRANCH  13  14
ENDBRANCH   3  13
TORSDOF 5
ENDMDL
MODEL 2
REMARK VINA RESULT:    -7.107      2.467      6.558
REMARK INTER + INTRA:          -9.997
REMARK INTER:                  -9.313
REMARK INTRA:                  -0.684
REMARK UNBOUND:                -0.812
REMARK  Name = 
REMARK  6 active torsions:
REMARK  status: ('A' for Active; 'I' for Inactive)
REMARK    1  A    between atoms: C_1  and  O_2
REMARK    2  A    between atoms: O_2  and  C_3
REMARK    3  A    between atoms: C_5  and  O_6
REMARK    4  A    between atoms: O_6  and  C_7
REMARK    5  A    between atoms: C_7  and  C_8
REMARK    6  A    between atoms: C_17  and  C_18
REMARK                            x       y       z     vdW  Elec       q    Type
REMARK                         _______ _______ _______ _____ _____    ______ ____
ROOT
ATOM      1  C   UNL     1      46.289   1.698   8.118  0.00  0.00    +0.000 A 
ATOM      2  C   UNL     1      45.347   1.855   9.145  0.00  0.00    +0.000 A 
ATOM      3  C   UNL     1      44.605   3.034   9.263  0.00  0.00    +0.000 A 
ATOM      4  C   UNL     1      44.867   4.099   8.402  0.00  0.00    +0.000 A 
ATOM      5  C   UNL     1      45.799   3.949   7.379  0.00  0.00    +0.000 A 
ATOM      6  C   UNL     1      46.508   2.745   7.211  0.00  0.00    +0.000 A 
ENDROOT
BRANCH   6   7
ATOM      7  C   UNL     1      47.442   2.648   6.029  0.00  0.00    +0.000 C 
ATOM      8  F   UNL     1      47.403   1.495   5.310  0.00  0.00    +0.000 F 
ATOM      9  F   UNL     1      47.199   3.645   5.125  0.00  0.00    +0.000 F 
ATOM     10  F   UNL     1      48.748   2.813   6.395  0.00  0.00    +0.000 F 
ENDBRANCH   6   7
BRANCH   1  12
ATOM     11  C   UNL     1      46.406  -0.606   7.525  0.00  0.00    +0.000 C 
ATOM     12  O   UNL     1      47.060   0.580   7.963  0.00  0.00    +0.000 OA
ENDBRANCH   1  12
BRANCH   3  13
ATOM     13  O   UNL     1      43.656   3.047  10.249  0.00  0.00    +0.000 OA
BRANCH  13  14
ATOM     14  C   UNL     1      43.433   4.326  10.846  0.00  0.00    +0.000 C 
BRANCH  14  15
ATOM     15  C   UNL     1      44.557   4.629  11.792  0.00  0.00    +0.000 A 
ATOM     16  C   UNL     1      45.265   5.833  11.711  0.00  0.00    +0.000 A 
ATOM     17  C   UNL     1      46.322   6.063  12.584  0.00  0.00    +0.000 A 
ATOM     18  C   UNL     1      46.626   5.084  13.516  0.00  0.00    +0.000 A 
ATOM     19  F   UNL     1      47.654   5.299  14.350  0.00  0.00    +0.000 F 
ATOM     20  N   UNL     1      45.955   3.922  13.639  0.00  0.00    +0.000 NA
ATOM     21  C   UNL     1      44.931   3.725  12.780  0.00  0.00    +0.000 A 
ENDBRANCH  14  15
ENDBRANCH  13  14
ENDBRANCH   3  13
TORSDOF 5
ENDMDL
MODEL 3
REMARK VINA RESULT:    -6.849      1.204      2.068
REMARK INTER + INTRA:          -9.663
REMARK INTER:                  -9.068
REMARK INTRA:                  -0.596
REMARK UNBOUND:                -0.812
REMARK  Name = 
REMARK  6 active torsions:
REMARK  status: ('A' for Active; 'I' for Inactive)
REMARK    1  A    between atoms: C_1  and  O_2
REMARK    2  A    between atoms: O_2  and  C_3
REMARK    3  A    between atoms: C_5  and  O_6
REMARK    4  A    between atoms: O_6  and  C_7
REMARK    5  A    between atoms: C_7  and  C_8
REMARK    6  A    between atoms: C_17  and  C_18
REMARK                            x       y       z     vdW  Elec       q    Type
REMARK                         _______ _______ _______ _____ _____    ______ ____
ROOT
ATOM      1  C   UNL     1      46.452   6.498  12.150  0.00  0.00    +0.000 A 
ATOM      2  C   UNL     1      45.493   5.823  11.381  0.00  0.00    +0.000 A 
ATOM      3  C   UNL     1      45.126   4.509  11.686  0.00  0.00    +0.000 A 
ATOM      4  C   UNL     1      45.785   3.833  12.713  0.00  0.00    +0.000 A 
ATOM      5  C   UNL     1      46.735   4.497  13.480  0.00  0.00    +0.000 A 
ATOM      6  C   UNL     1      47.070   5.840  13.223  0.00  0.00    +0.000 A 
ENDROOT
BRANCH   6   7
ATOM      7  C   UNL     1      48.057   6.501  14.155  0.00  0.00    +0.000 C 
ATOM      8  F   UNL     1      48.366   5.829  15.296  0.00  0.00    +0.000 F 
ATOM      9  F   UNL     1      49.253   6.721  13.532  0.00  0.00    +0.000 F 
ATOM     10  F   UNL     1      47.634   7.737  14.555  0.00  0.00    +0.000 F 
ENDBRANCH   6   7
BRANCH   1  12
ATOM     11  C   UNL     1      45.922   8.819  12.075  0.00  0.00    +0.000 C 
ATOM     12  O   UNL     1      46.870   7.774  11.889  0.00  0.00    +0.000 OA
ENDBRANCH   1  12
BRANCH   3  13
ATOM     13  O   UNL     1      44.121   3.977  10.924  0.00  0.00    +0.000 OA
BRANCH  13  14
ATOM     14  C   UNL     1      44.158   4.349   9.545  0.00  0.00    +0.000 C 
BRANCH  14  15
ATOM     15  C   UNL     1      45.110   3.445   8.817  0.00  0.00    +0.000 A 
ATOM     16  C   UNL     1      46.020   3.955   7.885  0.00  0.00    +0.000 A 
ATOM     17  C   UNL     1      46.862   3.081   7.207  0.00  0.00    +0.000 A 
ATOM     18  C   UNL     1      46.771   1.729   7.492  0.00  0.00    +0.000 A 
ATOM     19  F   UNL     1      47.572   0.884   6.828  0.00  0.00    +0.000 F 
ATOM     20  N   UNL     1      45.921   1.202   8.396  0.00  0.00    +0.000 NA
ATOM     21  C   UNL     1      45.117   2.074   9.044  0.00  0.00    +0.000 A 
ENDBRANCH  14  15
ENDBRANCH  13  14
ENDBRANCH   3  13
TORSDOF 5
ENDMDL
MODEL 4
REMARK VINA RESULT:    -6.792      1.716      2.260
REMARK INTER + INTRA:          -9.590
REMARK INTER:                  -8.969
REMARK INTRA:                  -0.620
REMARK UNBOUND:                -0.812
REMARK  Name = 
REMARK  6 active torsions:
REMARK  status: ('A' for Active; 'I' for Inactive)
REMARK    1  A    between atoms: C_1  and  O_2
REMARK    2  A    between atoms: O_2  and  C_3
REMARK    3  A    between atoms: C_5  and  O_6
REMARK    4  A    between atoms: O_6  and  C_7
REMARK    5  A    between atoms: C_7  and  C_8
REMARK    6  A    between atoms: C_17  and  C_18
REMARK                            x       y       z     vdW  Elec       q    Type
REMARK                         _______ _______ _______ _____ _____    ______ ____
ROOT
ATOM      1  C   UNL     1      46.391   6.194  12.797  0.00  0.00    +0.000 A 
ATOM      2  C   UNL     1      46.090   4.872  12.438  0.00  0.00    +0.000 A 
ATOM      3  C   UNL     1      44.944   4.574  11.694  0.00  0.00    +0.000 A 
ATOM      4  C   UNL     1      44.045   5.593  11.380  0.00  0.00    +0.000 A 
ATOM      5  C   UNL     1      44.339   6.907  11.732  0.00  0.00    +0.000 A 
ATOM      6  C   UNL     1      45.520   7.228  12.427  0.00  0.00    +0.000 A 
ENDROOT
BRANCH   6   7
ATOM      7  C   UNL     1      45.789   8.688  12.699  0.00  0.00    +0.000 C 
ATOM      8  F   UNL     1      46.300   9.000  13.920  0.00  0.00    +0.000 F 
ATOM      9  F   UNL     1      46.677   9.203  11.796  0.00  0.00    +0.000 F 
ATOM     10  F   UNL     1      44.664   9.450  12.563  0.00  0.00    +0.000 F 
ENDBRANCH   6   7
BRANCH   1  12
ATOM     11  C   UNL     1      48.725   6.662  12.859  0.00  0.00    +0.000 C 
ATOM     12  O   UNL     1      47.482   6.546  13.542  0.00  0.00    +0.000 OA
ENDBRANCH   1  12
BRANCH   3  13
ATOM     13  O   UNL     1      44.794   3.264  11.327  0.00  0.00    +0.000 OA
BRANCH  13  14
ATOM     14  C   UNL     1      44.109   3.066  10.088  0.00  0.00    +0.000 C 
BRANCH  14  15
ATOM     15  C   UNL     1      45.118   2.915   8.988  0.00  0.00    +0.000 A 
ATOM     16  C   UNL     1      45.705   1.676   8.711  0.00  0.00    +0.000 A 
ATOM     17  C   UNL     1      46.660   1.582   7.705  0.00  0.00    +0.000 A 
ATOM     18  C   UNL     1      46.987   2.731   7.004  0.00  0.00    +0.000 A 
ATOM     19  F   UNL     1      47.918   2.646   6.044  0.00  0.00    +0.000 F 
ATOM     20  N   UNL     1      46.430   3.938   7.228  0.00  0.00    +0.000 NA
ATOM     21  C   UNL     1      45.502   4.000   8.208  0.00  0.00    +0.000 A 
ENDBRANCH  14  15
ENDBRANCH  13  14
ENDBRANCH   3  13
TORSDOF 5
ENDMDL
MODEL 5
REMARK VINA RESULT:    -5.992      3.948      7.148
REMARK INTER + INTRA:          -8.556
REMARK INTER:                  -7.989
REMARK INTRA:                  -0.567
REMARK UNBOUND:                -0.812
REMARK  Name = 
REMARK  6 active torsions:
REMARK  status: ('A' for Active; 'I' for Inactive)
REMARK    1  A    between atoms: C_1  and  O_2
REMARK    2  A    between atoms: O_2  and  C_3
REMARK    3  A    between atoms: C_5  and  O_6
REMARK    4  A    between atoms: O_6  and  C_7
REMARK    5  A    between atoms: C_7  and  C_8
REMARK    6  A    between atoms: C_17  and  C_18
REMARK                            x       y       z     vdW  Elec       q    Type
REMARK                         _______ _______ _______ _____ _____    ______ ____
ROOT
ATOM      1  C   UNL     1      45.373   5.755  12.236  0.00  0.00    +0.000 A 
ATOM      2  C   UNL     1      46.212   5.885  13.352  0.00  0.00    +0.000 A 
ATOM      3  C   UNL     1      46.786   4.759  13.952  0.00  0.00    +0.000 A 
ATOM      4  C   UNL     1      46.451   3.488  13.488  0.00  0.00    +0.000 A 
ATOM      5  C   UNL     1      45.621   3.352  12.381  0.00  0.00    +0.000 A 
ATOM      6  C   UNL     1      45.085   4.480  11.729  0.00  0.00    +0.000 A 
ENDROOT
BRANCH   6   7
ATOM      7  C   UNL     1      44.257   4.238  10.491  0.00  0.00    +0.000 C 
ATOM      8  F   UNL     1      44.731   4.754   9.326  0.00  0.00    +0.000 F 
ATOM      9  F   UNL     1      44.102   2.900  10.254  0.00  0.00    +0.000 F 
ATOM     10  F   UNL     1      42.987   4.724  10.622  0.00  0.00    +0.000 F 
ENDBRANCH   6   7
BRANCH   1  12
ATOM     11  C   UNL     1      45.340   8.099  11.818  0.00  0.00    +0.000 C 
ATOM     12  O   UNL     1      44.764   6.813  11.621  0.00  0.00    +0.000 OA
ENDBRANCH   1  12
BRANCH   3  13
ATOM     13  O   UNL     1      47.654   5.008  14.981  0.00  0.00    +0.000 OA
BRANCH  13  14
ATOM     14  C   UNL     1      47.370   4.296  16.187  0.00  0.00    +0.000 C 
BRANCH  14  15
ATOM     15  C   UNL     1      48.602   3.561  16.625  0.00  0.00    +0.000 A 
ATOM     16  C   UNL     1      49.559   4.175  17.439  0.00  0.00    +0.000 A 
ATOM     17  C   UNL     1      50.704   3.472  17.797  0.00  0.00    +0.000 A 
ATOM     18  C   UNL     1      50.845   2.174  17.336  0.00  0.00    +0.000 A 
ATOM     19  F   UNL     1      51.955   1.499  17.669  0.00  0.00    +0.000 F 
ATOM     20  N   UNL     1      49.937   1.540  16.568  0.00  0.00    +0.000 NA
ATOM     21  C   UNL     1      48.833   2.246  16.238  0.00  0.00    +0.000 A 
ENDBRANCH  14  15
ENDBRANCH  13  14
ENDBRANCH   3  13
TORSDOF 5
ENDMDL
MODEL 6
REMARK VINA RESULT:    -5.820      2.085      2.828
REMARK INTER + INTRA:          -8.334
REMARK INTER:                  -7.705
REMARK INTRA:                  -0.629
REMARK UNBOUND:                -0.812
REMARK  Name = 
REMARK  6 active torsions:
REMARK  status: ('A' for Active; 'I' for Inactive)
REMARK    1  A    between atoms: C_1  and  O_2
REMARK    2  A    between atoms: O_2  and  C_3
REMARK    3  A    between atoms: C_5  and  O_6
REMARK    4  A    between atoms: O_6  and  C_7
REMARK    5  A    between atoms: C_7  and  C_8
REMARK    6  A    between atoms: C_17  and  C_18
REMARK                            x       y       z     vdW  Elec       q    Type
REMARK                         _______ _______ _______ _____ _____    ______ ____
ROOT
ATOM      1  C   UNL     1      47.955   5.085  15.827  0.00  0.00    +0.000 A 
ATOM      2  C   UNL     1      47.000   4.360  15.100  0.00  0.00    +0.000 A 
ATOM      3  C   UNL     1      46.638   4.750  13.806  0.00  0.00    +0.000 A 
ATOM      4  C   UNL     1      47.167   5.922  13.269  0.00  0.00    +0.000 A 
ATOM      5  C   UNL     1      48.116   6.644  13.985  0.00  0.00    +0.000 A 
ATOM      6  C   UNL     1      48.536   6.229  15.262  0.00  0.00    +0.000 A 
ENDROOT
BRANCH   6   7
ATOM      7  C   UNL     1      49.624   7.033  15.931  0.00  0.00    +0.000 C 
ATOM      8  F   UNL     1      50.743   6.358  16.306  0.00  0.00    +0.000 F 
ATOM      9  F   UNL     1      50.067   8.038  15.117  0.00  0.00    +0.000 F 
ATOM     10  F   UNL     1      49.176   7.662  17.058  0.00  0.00    +0.000 F 
ENDBRANCH   6   7
BRANCH   1  12
ATOM     11  C   UNL     1      47.369   4.954  18.132  0.00  0.00    +0.000 C 
ATOM     12  O   UNL     1      48.334   4.768  17.102  0.00  0.00    +0.000 OA
ENDBRANCH   1  12
BRANCH   3  13
ATOM     13  O   UNL     1      45.761   3.923  13.157  0.00  0.00    +0.000 OA
BRANCH  13  14
ATOM     14  C   UNL     1      44.751   4.598  12.404  0.00  0.00    +0.000 C 
BRANCH  14  15
ATOM     15  C   UNL     1      44.905   4.249  10.953  0.00  0.00    +0.000 A 
ATOM     16  C   UNL     1      44.531   2.990  10.468  0.00  0.00    +0.000 A 
ATOM     17  C   UNL     1      44.720   2.693   9.124  0.00  0.00    +0.000 A 
ATOM     18  C   UNL     1      45.266   3.670   8.308  0.00  0.00    +0.000 A 
ATOM     19  F   UNL     1      45.462   3.380   7.014  0.00  0.00    +0.000 F 
ATOM     20  N   UNL     1      45.620   4.899   8.732  0.00  0.00    +0.000 NA
ATOM     21  C   UNL     1      45.423   5.163  10.042  0.00  0.00    +0.000 A 
ENDBRANCH  14  15
ENDBRANCH  13  14
ENDBRANCH   3  13
TORSDOF 5
ENDMDL
MODEL 7
REMARK VINA RESULT:    -5.593      2.246      3.541
REMARK INTER + INTRA:          -8.040
REMARK INTER:                  -7.415
REMARK INTRA:                  -0.625
REMARK UNBOUND:                -0.812
REMARK  Name = 
REMARK  6 active torsions:
REMARK  status: ('A' for Active; 'I' for Inactive)
REMARK    1  A    between atoms: C_1  and  O_2
REMARK    2  A    between atoms: O_2  and  C_3
REMARK    3  A    between atoms: C_5  and  O_6
REMARK    4  A    between atoms: O_6  and  C_7
REMARK    5  A    between atoms: C_7  and  C_8
REMARK    6  A    between atoms: C_17  and  C_18
REMARK                            x       y       z     vdW  Elec       q    Type
REMARK                         _______ _______ _______ _____ _____    ______ ____
ROOT
ATOM      1  C   UNL     1      48.277   6.541  14.332  0.00  0.00    +0.000 A 
ATOM      2  C   UNL     1      47.314   5.743  13.697  0.00  0.00    +0.000 A 
ATOM      3  C   UNL     1      46.731   4.658  14.361  0.00  0.00    +0.000 A 
ATOM      4  C   UNL     1      47.176   4.314  15.637  0.00  0.00    +0.000 A 
ATOM      5  C   UNL     1      48.129   5.103  16.273  0.00  0.00    +0.000 A 
ATOM      6  C   UNL     1      48.679   6.234  15.640  0.00  0.00    +0.000 A 
ENDROOT
BRANCH   6   7
ATOM      7  C   UNL     1      49.650   7.072  16.436  0.00  0.00    +0.000 C 
ATOM      8  F   UNL     1      49.296   8.363  16.672  0.00  0.00    +0.000 F 
ATOM      9  F   UNL     1      49.874   6.528  17.671  0.00  0.00    +0.000 F 
ATOM     10  F   UNL     1      50.881   7.127  15.846  0.00  0.00    +0.000 F 
ENDBRANCH   6   7
BRANCH   1  12
ATOM     11  C   UNL     1      49.402   7.393  12.415  0.00  0.00    +0.000 C 
ATOM     12  O   UNL     1      48.899   7.599  13.730  0.00  0.00    +0.000 OA
ENDBRANCH   1  12
BRANCH   3  13
ATOM     13  O   UNL     1      45.744   4.001  13.678  0.00  0.00    +0.000 OA
BRANCH  13  14
ATOM     14  C   UNL     1      44.842   4.852  12.968  0.00  0.00    +0.000 C 
BRANCH  14  15
ATOM     15  C   UNL     1      44.803   4.434  11.527  0.00  0.00    +0.000 A 
ATOM     16  C   UNL     1      45.411   5.208  10.533  0.00  0.00    +0.000 A 
ATOM     17  C   UNL     1      45.324   4.806   9.206  0.00  0.00    +0.000 A 
ATOM     18  C   UNL     1      44.640   3.636   8.920  0.00  0.00    +0.000 A 
ATOM     19  F   UNL     1      44.543   3.254   7.639  0.00  0.00    +0.000 F 
ATOM     20  N   UNL     1      44.058   2.854   9.850  0.00  0.00    +0.000 NA
ATOM     21  C   UNL     1      44.160   3.266  11.132  0.00  0.00    +0.000 A 
ENDBRANCH  14  15
ENDBRANCH  13  14
ENDBRANCH   3  13
TORSDOF 5
ENDMDL
MODEL 8
REMARK VINA RESULT:    -5.562      2.792      4.030
REMARK INTER + INTRA:          -8.000
REMARK INTER:                  -7.449
REMARK INTRA:                  -0.550
REMARK UNBOUND:                -0.812
REMARK  Name = 
REMARK  6 active torsions:
REMARK  status: ('A' for Active; 'I' for Inactive)
REMARK    1  A    between atoms: C_1  and  O_2
REMARK    2  A    between atoms: O_2  and  C_3
REMARK    3  A    between atoms: C_5  and  O_6
REMARK    4  A    between atoms: O_6  and  C_7
REMARK    5  A    between atoms: C_7  and  C_8
REMARK    6  A    between atoms: C_17  and  C_18
REMARK                            x       y       z     vdW  Elec       q    Type
REMARK                         _______ _______ _______ _____ _____    ______ ____
ROOT
ATOM      1  C   UNL     1      48.634   6.190  15.672  0.00  0.00    +0.000 A 
ATOM      2  C   UNL     1      48.140   6.370  14.373  0.00  0.00    +0.000 A 
ATOM      3  C   UNL     1      47.175   5.506  13.846  0.00  0.00    +0.000 A 
ATOM      4  C   UNL     1      46.763   4.401  14.591  0.00  0.00    +0.000 A 
ATOM      5  C   UNL     1      47.247   4.218  15.881  0.00  0.00    +0.000 A 
ATOM      6  C   UNL     1      48.173   5.115  16.447  0.00  0.00    +0.000 A 
ENDROOT
BRANCH   6   7
ATOM      7  C   UNL     1      48.584   4.877  17.879  0.00  0.00    +0.000 C 
ATOM      8  F   UNL     1      49.913   4.711  18.116  0.00  0.00    +0.000 F 
ATOM      9  F   UNL     1      48.204   5.917  18.681  0.00  0.00    +0.000 F 
ATOM     10  F   UNL     1      47.972   3.778  18.411  0.00  0.00    +0.000 F 
ENDBRANCH   6   7
BRANCH   1  12
ATOM     11  C   UNL     1      50.394   7.761  15.350  0.00  0.00    +0.000 C 
ATOM     12  O   UNL     1      49.593   6.985  16.235  0.00  0.00    +0.000 OA
ENDBRANCH   1  12
BRANCH   3  13
ATOM     13  O   UNL     1      46.703   5.825  12.601  0.00  0.00    +0.000 OA
BRANCH  13  14
ATOM     14  C   UNL     1      45.358   5.413  12.350  0.00  0.00    +0.000 C 
BRANCH  14  15
ATOM     15  C   UNL     1      45.273   4.821  10.974  0.00  0.00    +0.000 A 
ATOM     16  C   UNL     1      44.711   3.557  10.765  0.00  0.00    +0.000 A 
ATOM     17  C   UNL     1      44.682   3.027   9.480  0.00  0.00    +0.000 A 
ATOM     18  C   UNL     1      45.206   3.786   8.447  0.00  0.00    +0.000 A 
ATOM     19  F   UNL     1      45.191   3.271   7.210  0.00  0.00    +0.000 F 
ATOM     20  N   UNL     1      45.738   5.015   8.605  0.00  0.00    +0.000 NA
ATOM     21  C   UNL     1      45.751   5.507   9.863  0.00  0.00    +0.000 A 
ENDBRANCH  14  15
ENDBRANCH  13  14
ENDBRANCH   3  13
TORSDOF 5
ENDMDL
MODEL 9
REMARK VINA RESULT:    -5.356      3.660      5.622
REMARK INTER + INTRA:          -7.734
REMARK INTER:                  -7.196
REMARK INTRA:                  -0.538
REMARK UNBOUND:                -0.812
REMARK  Name = 
REMARK  6 active torsions:
REMARK  status: ('A' for Active; 'I' for Inactive)
REMARK    1  A    between atoms: C_1  and  O_2
REMARK    2  A    between atoms: O_2  and  C_3
REMARK    3  A    between atoms: C_5  and  O_6
REMARK    4  A    between atoms: O_6  and  C_7
REMARK    5  A    between atoms: C_7  and  C_8
REMARK    6  A    between atoms: C_17  and  C_18
REMARK                            x       y       z     vdW  Elec       q    Type
REMARK                         _______ _______ _______ _____ _____    ______ ____
ROOT
ATOM      1  C   UNL     1      48.654   5.503  17.556  0.00  0.00    +0.000 A 
ATOM      2  C   UNL     1      48.160   5.214  16.276  0.00  0.00    +0.000 A 
ATOM      3  C   UNL     1      47.554   3.984  16.003  0.00  0.00    +0.000 A 
ATOM      4  C   UNL     1      47.519   3.001  16.991  0.00  0.00    +0.000 A 
ATOM      5  C   UNL     1      48.006   3.282  18.263  0.00  0.00    +0.000 A 
ATOM      6  C   UNL     1      48.562   4.538  18.569  0.00  0.00    +0.000 A 
ENDROOT
BRANCH   6   7
ATOM      7  C   UNL     1      48.995   4.777  19.996  0.00  0.00    +0.000 C 
ATOM      8  F   UNL     1      48.526   5.902  20.598  0.00  0.00    +0.000 F 
ATOM      9  F   UNL     1      48.608   3.747  20.808  0.00  0.00    +0.000 F 
ATOM     10  F   UNL     1      50.354   4.831  20.116  0.00  0.00    +0.000 F 
ENDBRANCH   6   7
BRANCH   1  12
ATOM     11  C   UNL     1      48.894   7.837  17.151  0.00  0.00    +0.000 C 
ATOM     12  O   UNL     1      49.277   6.677  17.880  0.00  0.00    +0.000 OA
ENDBRANCH   1  12
BRANCH   3  13
ATOM     13  O   UNL     1      47.032   3.841  14.745  0.00  0.00    +0.000 OA
BRANCH  13  14
ATOM     14  C   UNL     1      46.850   5.067  14.032  0.00  0.00    +0.000 C 
BRANCH  14  15
ATOM     15  C   UNL     1      46.098   4.791  12.764  0.00  0.00    +0.000 A 
ATOM     16  C   UNL     1      45.985   5.764  11.765  0.00  0.00    +0.000 A 
ATOM     17  C   UNL     1      45.251   5.482  10.618  0.00  0.00    +0.000 A 
ATOM     18  C   UNL     1      44.664   4.233  10.507  0.00  0.00    +0.000 A 
ATOM     19  F   UNL     1      43.944   3.965   9.409  0.00  0.00    +0.000 F 
ATOM     20  N   UNL     1      44.765   3.264  11.438  0.00  0.00    +0.000 NA
ATOM     21  C   UNL     1      45.487   3.562  12.541  0.00  0.00    +0.000 A 
ENDBRANCH  14  15
ENDBRANCH  13  14
ENDBRANCH   3  13
TORSDOF 5
ENDMDL
