MODEL 1
REMARK VINA RESULT:    -7.539      0.000      0.000
REMARK INTER + INTRA:          -9.440
REMARK INTER:                  -9.302
REMARK INTRA:                  -0.138
REMARK UNBOUND:                -0.138
REMARK  Name = 
REMARK  6 active torsions:
REMARK  status: ('A' for Active; 'I' for Inactive)
REMARK    1  A    between atoms: C_1  and  C_2
REMARK    2  A    between atoms: C_4  and  C_5
REMARK    3  A    between atoms: C_10  and  N_11
REMARK    4  A    between atoms: N_11  and  C_12
REMARK    5  A    between atoms: C_12  and  C_13
REMARK    6  A    between atoms: C_12  and  C_14
REMARK                            x       y       z     vdW  Elec       q    Type
REMARK                         _______ _______ _______ _____ _____    ______ ____
ROOT
ATOM      1  C   UNL     1      43.952   2.320  10.363  0.00  0.00    +0.000 C 
ATOM      2  C   UNL     1      44.928   2.934   9.399  0.00  0.00    +0.000 A 
ATOM      3  C   UNL     1      45.669   2.106   8.545  0.00  0.00    +0.000 A 
ATOM      4  C   UNL     1      46.558   2.688   7.652  0.00  0.00    +0.000 A 
ATOM      5  N   UNL     1      46.717   4.030   7.512  0.00  0.00    +0.000 NA
ATOM      6  C   UNL     1      45.989   4.801   8.355  0.00  0.00    +0.000 A 
ATOM      7  C   UNL     1      45.141   4.322   9.362  0.00  0.00    +0.000 A 
ENDROOT
BRANCH   4   8
ATOM      8  C   UNL     1      47.433   1.818   6.802  0.00  0.00    +0.000 C 
ATOM      9  N   UNL     1      48.512   2.443   6.239  0.00  0.00    +0.000 N 
ATOM     10  O   UNL     1      47.218   0.625   6.633  0.00  0.00    +0.000 OA
ATOM     11  H   UNL     1      48.676   3.425   6.431  0.00  0.00    +0.000 HD
ATOM     12  H   UNL     1      49.169   1.908   5.692  0.00  0.00    +0.000 HD
ENDBRANCH   4   8
BRANCH   7  13
ATOM     13  N   UNL     1      44.443   5.141  10.267  0.00  0.00    +0.000 N 
ATOM     14  H   UNL     1      44.578   6.120  10.008  0.00  0.00    +0.000 HD
BRANCH  13  15
ATOM     15  C   UNL     1      44.680   4.959  11.715  0.00  0.00    +0.000 C 
ATOM     16  C   UNL     1      43.558   5.592  12.550  0.00  0.00    +0.000 C 
BRANCH  15  17
ATOM     17  C   UNL     1      46.012   5.581  12.111  0.00  0.00    +0.000 A 
ATOM     18  C   UNL     1      46.488   6.747  11.515  0.00  0.00    +0.000 A 
ATOM     19  C   UNL     1      47.685   7.290  11.964  0.00  0.00    +0.000 A 
ATOM     20  C   UNL     1      48.356   6.634  12.976  0.00  0.00    +0.000 A 
ATOM     21  N   UNL     1      47.890   5.500  13.533  0.00  0.00    +0.000 NA
ATOM     22  N   UNL     1      46.709   4.972  13.097  0.00  0.00    +0.000 NA
ENDBRANCH  15  17
ENDBRANCH  13  15
ENDBRANCH   7  13
TORSDOF 4
ENDMDL
MODEL 2
REMARK VINA RESULT:    -7.139      1.645      2.136
REMARK INTER + INTRA:          -8.946
REMARK INTER:                  -8.411
REMARK INTRA:                  -0.535
REMARK UNBOUND:                -0.138
REMARK  Name = 
REMARK  6 active torsions:
REMARK  status: ('A' for Active; 'I' for Inactive)
REMARK    1  A    between atoms: C_1  and  C_2
REMARK    2  A    between atoms: C_4  and  C_5
REMARK    3  A    between atoms: C_10  and  N_11
REMARK    4  A    between atoms: N_11  and  C_12
REMARK    5  A    between atoms: C_12  and  C_13
REMARK    6  A    between atoms: C_12  and  C_14
REMARK                            x       y       z     vdW  Elec       q    Type
REMARK                         _______ _______ _______ _____ _____    ______ ____
ROOT
ATOM      1  C   UNL     1      44.085   2.437  10.290  0.00  0.00    +0.000 C 
ATOM      2  C   UNL     1      45.036   3.127   9.352  0.00  0.00    +0.000 A 
ATOM      3  C   UNL     1      45.768   2.368   8.429  0.00  0.00    +0.000 A 
ATOM      4  C   UNL     1      46.633   3.020   7.562  0.00  0.00    +0.000 A 
ATOM      5  N   UNL     1      46.776   4.371   7.512  0.00  0.00    +0.000 NA
ATOM      6  C   UNL     1      46.058   5.073   8.421  0.00  0.00    +0.000 A 
ATOM      7  C   UNL     1      45.235   4.517   9.408  0.00  0.00    +0.000 A 
ENDROOT
BRANCH   4   8
ATOM      8  C   UNL     1      47.500   2.221   6.637  0.00  0.00    +0.000 C 
ATOM      9  N   UNL     1      47.766   2.808   5.430  0.00  0.00    +0.000 N 
ATOM     10  O   UNL     1      47.959   1.127   6.938  0.00  0.00    +0.000 OA
ATOM     11  H   UNL     1      47.397   3.730   5.231  0.00  0.00    +0.000 HD
ATOM     12  H   UNL     1      48.382   2.347   4.776  0.00  0.00    +0.000 HD
ENDBRANCH   4   8
BRANCH   7  13
ATOM     13  N   UNL     1      44.547   5.263  10.381  0.00  0.00    +0.000 N 
ATOM     14  H   UNL     1      44.137   6.090   9.943  0.00  0.00    +0.000 HD
BRANCH  13  15
ATOM     15  C   UNL     1      45.262   5.643  11.618  0.00  0.00    +0.000 C 
ATOM     16  C   UNL     1      44.586   5.045  12.861  0.00  0.00    +0.000 C 
BRANCH  15  17
ATOM     17  C   UNL     1      45.309   7.159  11.753  0.00  0.00    +0.000 A 
ATOM     18  C   UNL     1      46.370   7.811  12.378  0.00  0.00    +0.000 A 
ATOM     19  C   UNL     1      46.374   9.200  12.416  0.00  0.00    +0.000 A 
ATOM     20  C   UNL     1      45.313   9.869  11.842  0.00  0.00    +0.000 A 
ATOM     21  N   UNL     1      44.289   9.224  11.252  0.00  0.00    +0.000 NA
ATOM     22  N   UNL     1      44.289   7.858  11.207  0.00  0.00    +0.000 NA
ENDBRANCH  15  17
ENDBRANCH  13  15
ENDBRANCH   7  13
TORSDOF 4
ENDMDL
MODEL 3
REMARK VINA RESULT:    -7.030      2.751      6.096
REMARK INTER + INTRA:          -8.812
REMARK INTER:                  -8.952
REMARK INTRA:                   0.140
REMARK UNBOUND:                -0.138
REMARK  Name = 
REMARK  6 active torsions:
REMARK  status: ('A' for Active; 'I' for Inactive)
REMARK    1  A    between atoms: C_1  and  C_2
REMARK    2  A    between atoms: C_4  and  C_5
REMARK    3  A    between atoms: C_10  and  N_11
REMARK    4  A    between atoms: N_11  and  C_12
REMARK    5  A    between atoms: C_12  and  C_13
REMARK    6  A    between atoms: C_12  and  C_14
REMARK                            x       y       z     vdW  Elec       q    Type
REMARK                         _______ _______ _______ _____ _____    ______ ____
ROOT
ATOM      1  C   UNL     1      46.798   6.662  10.735  0.00  0.00    +0.000 C 
ATOM      2  C   UNL     1      46.273   5.818  11.862  0.00  0.00    +0.000 A 
ATOM      3  C   UNL     1      47.033   5.675  13.030  0.00  0.00    +0.000 A 
ATOM      4  C   UNL     1      46.530   4.901  14.066  0.00  0.00    +0.000 A 
ATOM      5  N   UNL     1      45.306   4.311  14.043  0.00  0.00    +0.000 NA
ATOM      6  C   UNL     1      44.600   4.465  12.897  0.00  0.00    +0.000 A 
ATOM      7  C   UNL     1      45.049   5.135  11.752  0.00  0.00    +0.000 A 
ENDROOT
BRANCH   4   8
ATOM      8  C   UNL     1      47.368   4.653  15.283  0.00  0.00    +0.000 C 
ATOM      9  N   UNL     1      47.026   3.551  16.017  0.00  0.00    +0.000 N 
ATOM     10  O   UNL     1      48.311   5.370  15.596  0.00  0.00    +0.000 OA
ATOM     11  H   UNL     1      46.262   2.962  15.706  0.00  0.00    +0.000 HD
ATOM     12  H   UNL     1      47.577   3.297  16.823  0.00  0.00    +0.000 HD
ENDBRANCH   4   8
BRANCH   7  13
ATOM     13  N   UNL     1      44.324   5.229  10.552  0.00  0.00    +0.000 N 
ATOM     14  H   UNL     1      43.490   5.799  10.706  0.00  0.00    +0.000 HD
BRANCH  13  15
ATOM     15  C   UNL     1      43.965   3.982   9.842  0.00  0.00    +0.000 C 
ATOM     16  C   UNL     1      43.703   2.834  10.826  0.00  0.00    +0.000 C 
BRANCH  15  17
ATOM     17  C   UNL     1      45.083   3.581   8.889  0.00  0.00    +0.000 A 
ATOM     18  C   UNL     1      45.508   2.260   8.765  0.00  0.00    +0.000 A 
ATOM     19  C   UNL     1      46.495   1.958   7.835  0.00  0.00    +0.000 A 
ATOM     20  C   UNL     1      47.019   2.990   7.085  0.00  0.00    +0.000 A 
ATOM     21  N   UNL     1      46.607   4.264   7.225  0.00  0.00    +0.000 NA
ATOM     22  N   UNL     1      45.630   4.560   8.133  0.00  0.00    +0.000 NA
ENDBRANCH  15  17
ENDBRANCH  13  15
ENDBRANCH   7  13
TORSDOF 4
ENDMDL
MODEL 4
REMARK VINA RESULT:    -7.011      3.002      6.030
REMARK INTER + INTRA:          -8.788
REMARK INTER:                  -8.642
REMARK INTRA:                  -0.146
REMARK UNBOUND:                -0.138
REMARK  Name = 
REMARK  6 active torsions:
REMARK  status: ('A' for Active; 'I' for Inactive)
REMARK    1  A    between atoms: C_1  and  C_2
REMARK    2  A    between atoms: C_4  and  C_5
REMARK    3  A    between atoms: C_10  and  N_11
REMARK    4  A    between atoms: N_11  and  C_12
REMARK    5  A    between atoms: C_12  and  C_13
REMARK    6  A    between atoms: C_12  and  C_14
REMARK                            x       y       z     vdW  Elec       q    Type
REMARK                         _______ _______ _______ _____ _____    ______ ____
ROOT
ATOM      1  C   UNL     1      42.473   5.527  11.763  0.00  0.00    +0.000 C 
ATOM      2  C   UNL     1      43.920   5.894  11.586  0.00  0.00    +0.000 A 
ATOM      3  C   UNL     1      44.533   6.752  12.508  0.00  0.00    +0.000 A 
ATOM      4  C   UNL     1      45.872   7.072  12.337  0.00  0.00    +0.000 A 
ATOM      5  N   UNL     1      46.653   6.556  11.352  0.00  0.00    +0.000 NA
ATOM      6  C   UNL     1      46.027   5.734  10.475  0.00  0.00    +0.000 A 
ATOM      7  C   UNL     1      44.662   5.423  10.489  0.00  0.00    +0.000 A 
ENDROOT
BRANCH   4   8
ATOM      8  C   UNL     1      46.521   8.066  13.253  0.00  0.00    +0.000 C 
ATOM      9  N   UNL     1      47.390   7.540  14.169  0.00  0.00    +0.000 N 
ATOM     10  O   UNL     1      46.310   9.270  13.181  0.00  0.00    +0.000 OA
ATOM     11  H   UNL     1      47.566   6.541  14.174  0.00  0.00    +0.000 HD
ATOM     12  H   UNL     1      47.898   8.156  14.786  0.00  0.00    +0.000 HD
ENDBRANCH   4   8
BRANCH   7  13
ATOM     13  N   UNL     1      44.023   4.617   9.531  0.00  0.00    +0.000 N 
ATOM     14  H   UNL     1      43.033   4.866   9.488  0.00  0.00    +0.000 HD
BRANCH  13  15
ATOM     15  C   UNL     1      44.175   3.149   9.626  0.00  0.00    +0.000 C 
ATOM     16  C   UNL     1      44.589   2.720  11.041  0.00  0.00    +0.000 C 
BRANCH  15  17
ATOM     17  C   UNL     1      45.219   2.664   8.630  0.00  0.00    +0.000 A 
ATOM     18  C   UNL     1      45.743   3.499   7.645  0.00  0.00    +0.000 A 
ATOM     19  C   UNL     1      46.733   3.006   6.804  0.00  0.00    +0.000 A 
ATOM     20  C   UNL     1      47.142   1.700   6.979  0.00  0.00    +0.000 A 
ATOM     21  N   UNL     1      46.617   0.901   7.927  0.00  0.00    +0.000 NA
ATOM     22  N   UNL     1      45.649   1.389   8.759  0.00  0.00    +0.000 NA
ENDBRANCH  15  17
ENDBRANCH  13  15
ENDBRANCH   7  13
TORSDOF 4
ENDMDL
MODEL 5
REMARK VINA RESULT:    -6.906      4.001      5.870
REMARK INTER + INTRA:          -8.659
REMARK INTER:                  -8.206
REMARK INTRA:                  -0.453
REMARK UNBOUND:                -0.138
REMARK  Name = 
REMARK  6 active torsions:
REMARK  status: ('A' for Active; 'I' for Inactive)
REMARK    1  A    between atoms: C_1  and  C_2
REMARK    2  A    between atoms: C_4  and  C_5
REMARK    3  A    between atoms: C_10  and  N_11
REMARK    4  A    between atoms: N_11  and  C_12
REMARK    5  A    between atoms: C_12  and  C_13
REMARK    6  A    between atoms: C_12  and  C_14
REMARK                            x       y       z     vdW  Elec       q    Type
REMARK                         _______ _______ _______ _____ _____    ______ ____
ROOT
ATOM      1  C   UNL     1      47.095   7.259  13.373  0.00  0.00    +0.000 C 
ATOM      2  C   UNL     1      46.582   5.856  13.203  0.00  0.00    +0.000 A 
ATOM      3  C   UNL     1      45.813   5.533  12.078  0.00  0.00    +0.000 A 
ATOM      4  C   UNL     1      45.357   4.231  11.930  0.00  0.00    +0.000 A 
ATOM      5  N   UNL     1      45.658   3.223  12.789  0.00  0.00    +0.000 NA
ATOM      6  C   UNL     1      46.399   3.571  13.868  0.00  0.00    +0.000 A 
ATOM      7  C   UNL     1      46.826   4.869  14.173  0.00  0.00    +0.000 A 
ENDROOT
BRANCH   4   8
ATOM      8  C   UNL     1      44.450   3.888  10.787  0.00  0.00    +0.000 C 
ATOM      9  N   UNL     1      44.397   2.561  10.458  0.00  0.00    +0.000 N 
ATOM     10  O   UNL     1      43.782   4.726  10.195  0.00  0.00    +0.000 OA
ATOM     11  H   UNL     1      44.937   1.892  10.995  0.00  0.00    +0.000 HD
ATOM     12  H   UNL     1      43.772   2.252   9.729  0.00  0.00    +0.000 HD
ENDBRANCH   4   8
BRANCH   7  13
ATOM     13  N   UNL     1      47.542   5.217  15.333  0.00  0.00    +0.000 N 
ATOM     14  H   UNL     1      48.526   5.348  15.094  0.00  0.00    +0.000 HD
BRANCH  13  15
ATOM     15  C   UNL     1      47.417   4.354  16.527  0.00  0.00    +0.000 C 
ATOM     16  C   UNL     1      47.130   5.183  17.788  0.00  0.00    +0.000 C 
BRANCH  15  17
ATOM     17  C   UNL     1      48.695   3.554  16.733  0.00  0.00    +0.000 A 
ATOM     18  C   UNL     1      49.703   3.981  17.596  0.00  0.00    +0.000 A 
ATOM     19  C   UNL     1      50.818   3.172  17.777  0.00  0.00    +0.000 A 
ATOM     20  C   UNL     1      50.880   1.985  17.077  0.00  0.00    +0.000 A 
ATOM     21  N   UNL     1      49.904   1.592  16.237  0.00  0.00    +0.000 NA
ATOM     22  N   UNL     1      48.804   2.383  16.065  0.00  0.00    +0.000 NA
ENDBRANCH  15  17
ENDBRANCH  13  15
ENDBRANCH   7  13
TORSDOF 4
ENDMDL
MODEL 6
REMARK VINA RESULT:    -6.663      3.412      6.424
REMARK INTER + INTRA:          -8.359
REMARK INTER:                  -7.975
REMARK INTRA:                  -0.384
REMARK UNBOUND:                -0.138
REMARK  Name = 
REMARK  6 active torsions:
REMARK  status: ('A' for Active; 'I' for Inactive)
REMARK    1  A    between atoms: C_1  and  C_2
REMARK    2  A    between atoms: C_4  and  C_5
REMARK    3  A    between atoms: C_10  and  N_11
REMARK    4  A    between atoms: N_11  and  C_12
REMARK    5  A    between atoms: C_12  and  C_13
REMARK    6  A    between atoms: C_12  and  C_14
REMARK                            x       y       z     vdW  Elec       q    Type
REMARK                         _______ _______ _______ _____ _____    ______ ____
ROOT
ATOM      1  C   UNL     1      47.272   5.553  13.234  0.00  0.00    +0.000 C 
ATOM      2  C   UNL     1      46.269   6.447  12.561  0.00  0.00    +0.000 A 
ATOM      3  C   UNL     1      46.391   7.837  12.684  0.00  0.00    +0.000 A 
ATOM      4  C   UNL     1      45.464   8.650  12.047  0.00  0.00    +0.000 A 
ATOM      5  N   UNL     1      44.465   8.179  11.255  0.00  0.00    +0.000 NA
ATOM      6  C   UNL     1      44.373   6.831  11.163  0.00  0.00    +0.000 A 
ATOM      7  C   UNL     1      45.186   5.915  11.841  0.00  0.00    +0.000 A 
ENDROOT
BRANCH   4   8
ATOM      8  C   UNL     1      45.516  10.134  12.247  0.00  0.00    +0.000 C 
ATOM      9  N   UNL     1      46.745  10.641  12.570  0.00  0.00    +0.000 N 
ATOM     10  O   UNL     1      44.535  10.856  12.114  0.00  0.00    +0.000 OA
ATOM     11  H   UNL     1      47.540  10.016  12.636  0.00  0.00    +0.000 HD
ATOM     12  H   UNL     1      46.862  11.637  12.673  0.00  0.00    +0.000 HD
ENDBRANCH   4   8
BRANCH   7  13
ATOM     13  N   UNL     1      45.032   4.519  11.777  0.00  0.00    +0.000 N 
ATOM     14  H   UNL     1      45.954   4.079  11.769  0.00  0.00    +0.000 HD
BRANCH  13  15
ATOM     15  C   UNL     1      44.185   3.948  10.709  0.00  0.00    +0.000 C 
ATOM     16  C   UNL     1      43.438   2.697  11.195  0.00  0.00    +0.000 C 
BRANCH  15  17
ATOM     17  C   UNL     1      45.037   3.585   9.500  0.00  0.00    +0.000 A 
ATOM     18  C   UNL     1      45.338   2.263   9.179  0.00  0.00    +0.000 A 
ATOM     19  C   UNL     1      46.074   2.003   8.030  0.00  0.00    +0.000 A 
ATOM     20  C   UNL     1      46.486   3.075   7.266  0.00  0.00    +0.000 A 
ATOM     21  N   UNL     1      46.198   4.349   7.596  0.00  0.00    +0.000 NA
ATOM     22  N   UNL     1      45.467   4.604   8.721  0.00  0.00    +0.000 NA
ENDBRANCH  15  17
ENDBRANCH  13  15
ENDBRANCH   7  13
TORSDOF 4
ENDMDL
MODEL 7
REMARK VINA RESULT:    -6.498      3.205      6.535
REMARK INTER + INTRA:          -8.156
REMARK INTER:                  -7.657
REMARK INTRA:                  -0.499
REMARK UNBOUND:                -0.138
REMARK  Name = 
REMARK  6 active torsions:
REMARK  status: ('A' for Active; 'I' for Inactive)
REMARK    1  A    between atoms: C_1  and  C_2
REMARK    2  A    between atoms: C_4  and  C_5
REMARK    3  A    between atoms: C_10  and  N_11
REMARK    4  A    between atoms: N_11  and  C_12
REMARK    5  A    between atoms: C_12  and  C_13
REMARK    6  A    between atoms: C_12  and  C_14
REMARK                            x       y       z     vdW  Elec       q    Type
REMARK                         _______ _______ _______ _____ _____    ______ ____
ROOT
ATOM      1  C   UNL     1      47.147   4.048  14.266  0.00  0.00    +0.000 C 
ATOM      2  C   UNL     1      46.983   5.413  13.658  0.00  0.00    +0.000 A 
ATOM      3  C   UNL     1      47.679   6.500  14.202  0.00  0.00    +0.000 A 
ATOM      4  C   UNL     1      47.526   7.752  13.622  0.00  0.00    +0.000 A 
ATOM      5  N   UNL     1      46.777   7.983  12.512  0.00  0.00    +0.000 NA
ATOM      6  C   UNL     1      46.114   6.912  12.015  0.00  0.00    +0.000 A 
ATOM      7  C   UNL     1      46.112   5.628  12.576  0.00  0.00    +0.000 A 
ENDROOT
BRANCH   4   8
ATOM      8  C   UNL     1      48.181   8.945  14.248  0.00  0.00    +0.000 C 
ATOM      9  N   UNL     1      47.736   9.270  15.501  0.00  0.00    +0.000 N 
ATOM     10  O   UNL     1      49.068   9.581  13.693  0.00  0.00    +0.000 OA
ATOM     11  H   UNL     1      47.025   8.697  15.941  0.00  0.00    +0.000 HD
ATOM     12  H   UNL     1      48.166  10.033  16.000  0.00  0.00    +0.000 HD
ENDBRANCH   4   8
BRANCH   7  13
ATOM     13  N   UNL     1      45.366   4.546  12.078  0.00  0.00    +0.000 N 
ATOM     14  H   UNL     1      45.987   3.749  11.928  0.00  0.00    +0.000 HD
BRANCH  13  15
ATOM     15  C   UNL     1      44.516   4.761  10.887  0.00  0.00    +0.000 C 
ATOM     16  C   UNL     1      43.100   4.207  11.103  0.00  0.00    +0.000 C 
BRANCH  15  17
ATOM     17  C   UNL     1      45.137   4.088   9.670  0.00  0.00    +0.000 A 
ATOM     18  C   UNL     1      45.109   2.706   9.496  0.00  0.00    +0.000 A 
ATOM     19  C   UNL     1      45.646   2.165   8.335  0.00  0.00    +0.000 A 
ATOM     20  C   UNL     1      46.198   3.029   7.411  0.00  0.00    +0.000 A 
ATOM     21  N   UNL     1      46.230   4.362   7.599  0.00  0.00    +0.000 NA
ATOM     22  N   UNL     1      45.694   4.894   8.738  0.00  0.00    +0.000 NA
ENDBRANCH  15  17
ENDBRANCH  13  15
ENDBRANCH   7  13
TORSDOF 4
ENDMDL
MODEL 8
REMARK VINA RESULT:    -6.434      3.334      6.584
REMARK INTER + INTRA:          -8.076
REMARK INTER:                  -8.060
REMARK INTRA:                  -0.016
REMARK UNBOUND:                -0.138
REMARK  Name = 
REMARK  6 active torsions:
REMARK  status: ('A' for Active; 'I' for Inactive)
REMARK    1  A    between atoms: C_1  and  C_2
REMARK    2  A    between atoms: C_4  and  C_5
REMARK    3  A    between atoms: C_10  and  N_11
REMARK    4  A    between atoms: N_11  and  C_12
REMARK    5  A    between atoms: C_12  and  C_13
REMARK    6  A    between atoms: C_12  and  C_14
REMARK                            x       y       z     vdW  Elec       q    Type
REMARK                         _______ _______ _______ _____ _____    ______ ____
ROOT
ATOM      1  C   UNL     1      48.034   7.712  13.906  0.00  0.00    +0.000 C 
ATOM      2  C   UNL     1      47.575   6.289  14.064  0.00  0.00    +0.000 A 
ATOM      3  C   UNL     1      47.735   5.645  15.298  0.00  0.00    +0.000 A 
ATOM      4  C   UNL     1      47.296   4.335  15.432  0.00  0.00    +0.000 A 
ATOM      5  N   UNL     1      46.661   3.647  14.447  0.00  0.00    +0.000 NA
ATOM      6  C   UNL     1      46.527   4.298  13.267  0.00  0.00    +0.000 A 
ATOM      7  C   UNL     1      47.021   5.578  12.986  0.00  0.00    +0.000 A 
ENDROOT
BRANCH   4   8
ATOM      8  C   UNL     1      47.549   3.594  16.709  0.00  0.00    +0.000 C 
ATOM      9  N   UNL     1      48.859   3.521  17.097  0.00  0.00    +0.000 N 
ATOM     10  O   UNL     1      46.650   3.101  17.379  0.00  0.00    +0.000 OA
ATOM     11  H   UNL     1      49.571   3.973  16.534  0.00  0.00    +0.000 HD
ATOM     12  H   UNL     1      49.097   3.078  17.971  0.00  0.00    +0.000 HD
ENDBRANCH   4   8
BRANCH   7  13
ATOM     13  N   UNL     1      46.924   6.209  11.733  0.00  0.00    +0.000 N 
ATOM     14  H   UNL     1      47.373   7.125  11.782  0.00  0.00    +0.000 HD
BRANCH  13  15
ATOM     15  C   UNL     1      45.592   6.327  11.102  0.00  0.00    +0.000 C 
ATOM     16  C   UNL     1      44.470   6.274  12.149  0.00  0.00    +0.000 C 
BRANCH  15  17
ATOM     17  C   UNL     1      45.388   5.207  10.092  0.00  0.00    +0.000 A 
ATOM     18  C   UNL     1      44.582   4.104  10.365  0.00  0.00    +0.000 A 
ATOM     19  C   UNL     1      44.397   3.146   9.376  0.00  0.00    +0.000 A 
ATOM     20  C   UNL     1      45.036   3.329   8.167  0.00  0.00    +0.000 A 
ATOM     21  N   UNL     1      45.824   4.394   7.922  0.00  0.00    +0.000 NA
ATOM     22  N   UNL     1      45.999   5.340   8.892  0.00  0.00    +0.000 NA
ENDBRANCH  15  17
ENDBRANCH  13  15
ENDBRANCH   7  13
TORSDOF 4
ENDMDL
MODEL 9
REMARK VINA RESULT:    -6.118      4.214      6.136
REMARK INTER + INTRA:          -7.687
REMARK INTER:                  -7.165
REMARK INTRA:                  -0.522
REMARK UNBOUND:                -0.138
REMARK  Name = 
REMARK  6 active torsions:
REMARK  status: ('A' for Active; 'I' for Inactive)
REMARK    1  A    between atoms: C_1  and  C_2
REMARK    2  A    between atoms: C_4  and  C_5
REMARK    3  A    between atoms: C_10  and  N_11
REMARK    4  A    between atoms: N_11  and  C_12
REMARK    5  A    between atoms: C_12  and  C_13
REMARK    6  A    between atoms: C_12  and  C_14
REMARK                            x       y       z     vdW  Elec       q    Type
REMARK                         _______ _______ _______ _____ _____    ______ ____
ROOT
ATOM      1  C   UNL     1      46.878   8.151  12.579  0.00  0.00    +0.000 C 
ATOM      2  C   UNL     1      46.232   6.808  12.777  0.00  0.00    +0.000 A 
ATOM      3  C   UNL     1      44.992   6.543  12.180  0.00  0.00    +0.000 A 
ATOM      4  C   UNL     1      44.414   5.296  12.363  0.00  0.00    +0.000 A 
ATOM      5  N   UNL     1      45.006   4.281  13.047  0.00  0.00    +0.000 NA
ATOM      6  C   UNL     1      46.201   4.573  13.614  0.00  0.00    +0.000 A 
ATOM      7  C   UNL     1      46.829   5.824  13.583  0.00  0.00    +0.000 A 
ENDROOT
BRANCH   4   8
ATOM      8  C   UNL     1      43.044   5.025  11.819  0.00  0.00    +0.000 C 
ATOM      9  N   UNL     1      42.192   6.095  11.814  0.00  0.00    +0.000 N 
ATOM     10  O   UNL     1      42.707   3.930  11.387  0.00  0.00    +0.000 OA
ATOM     11  H   UNL     1      42.520   6.995  12.146  0.00  0.00    +0.000 HD
ATOM     12  H   UNL     1      41.269   5.997  11.418  0.00  0.00    +0.000 HD
ENDBRANCH   4   8
BRANCH   7  13
ATOM     13  N   UNL     1      48.040   6.120  14.232  0.00  0.00    +0.000 N 
ATOM     14  H   UNL     1      48.725   5.393  14.016  0.00  0.00    +0.000 HD
BRANCH  13  15
ATOM     15  C   UNL     1      48.018   6.382  15.688  0.00  0.00    +0.000 C 
ATOM     16  C   UNL     1      48.976   7.520  16.066  0.00  0.00    +0.000 C 
BRANCH  15  17
ATOM     17  C   UNL     1      48.405   5.124  16.453  0.00  0.00    +0.000 A 
ATOM     18  C   UNL     1      47.449   4.243  16.956  0.00  0.00    +0.000 A 
ATOM     19  C   UNL     1      47.875   3.086  17.597  0.00  0.00    +0.000 A 
ATOM     20  C   UNL     1      49.232   2.872  17.716  0.00  0.00    +0.000 A 
ATOM     21  N   UNL     1      50.144   3.739  17.236  0.00  0.00    +0.000 NA
ATOM     22  N   UNL     1      49.725   4.873  16.599  0.00  0.00    +0.000 NA
ENDBRANCH  15  17
ENDBRANCH  13  15
ENDBRANCH   7  13
TORSDOF 4
ENDMDL
