MODEL 1
REMARK VINA RESULT:    -7.974      0.000      0.000
REMARK INTER + INTRA:         -12.699
REMARK INTER:                 -11.704
REMARK INTRA:                  -0.995
REMARK UNBOUND:                -0.995
REMARK  Name = 
REMARK  9 active torsions:
REMARK  status: ('A' for Active; 'I' for Inactive)
REMARK    1  A    between atoms: C_1  and  O_2
REMARK    2  A    between atoms: O_2  and  C_3
REMARK    3  A    between atoms: C_10  and  C_11
REMARK    4  A    between atoms: N_13  and  C_14
REMARK    5  A    between atoms: C_14  and  C_15
REMARK    6  A    between atoms: C_18  and  C_19
REMARK    7  A    between atoms: C_19  and  N_20
REMARK    8  A    between atoms: N_20  and  C_21
REMARK    9  A    between atoms: C_21  and  C_22
REMARK                            x       y       z     vdW  Elec       q    Type
REMARK                         _______ _______ _______ _____ _____    ______ ____
ROOT
ATOM      1  C   UNL     1      48.071   6.713  13.235  0.00  0.00    +0.000 C 
ENDROOT
BRANCH   1   2
ATOM      2  C   UNL     1      46.886   5.967  12.670  0.00  0.00    +0.000 A 
ATOM      3  C   UNL     1      46.372   6.285  11.405  0.00  0.00    +0.000 A 
ATOM      4  C   UNL     1      45.287   5.574  10.875  0.00  0.00    +0.000 A 
ATOM      5  C   UNL     1      44.690   4.530  11.597  0.00  0.00    +0.000 A 
ATOM      6  C   UNL     1      45.185   4.234  12.873  0.00  0.00    +0.000 A 
ATOM      7  C   UNL     1      46.264   4.951  13.408  0.00  0.00    +0.000 A 
BRANCH   5   8
ATOM      8  C   UNL     1      43.528   3.745  11.016  0.00  0.00    +0.000 C 
BRANCH   8   9
ATOM      9  N   UNL     1      43.772   3.394   9.622  0.00  0.00    +0.000 NA
ATOM     10  H   UNL     1      44.329   4.125   9.174  0.00  0.00    +0.000 HD
BRANCH   9  11
ATOM     11  C   UNL     1      44.519   2.128   9.495  0.00  0.00    +0.000 C 
BRANCH  11  12
ATOM     12  C   UNL     1      45.619   2.199   8.441  0.00  0.00    +0.000 A 
ATOM     13  N   UNL     1      46.318   1.068   8.191  0.00  0.00    +0.000 NA
ATOM     14  C   UNL     1      47.305   1.166   7.278  0.00  0.00    +0.000 A 
ATOM     15  C   UNL     1      47.610   2.326   6.607  0.00  0.00    +0.000 A 
ATOM     16  C   UNL     1      46.831   3.414   6.921  0.00  0.00    +0.000 A 
ATOM     17  N   UNL     1      45.832   3.380   7.824  0.00  0.00    +0.000 NA
ENDBRANCH  11  12
ENDBRANCH   9  11
ENDBRANCH   8   9
ENDBRANCH   5   8
ENDBRANCH   1   2
BRANCH   1  20
ATOM     18  C   UNL     1      49.108   6.928  15.465  0.00  0.00    +0.000 C 
ATOM     19  O   UNL     1      50.238   6.959  14.987  0.00  0.00    +0.000 OA
ATOM     20  N   UNL     1      47.997   6.807  14.671  0.00  0.00    +0.000 N 
ATOM     21  H   UNL     1      47.091   6.673  15.095  0.00  0.00    +0.000 HD
BRANCH  18  29
ATOM     22  C   UNL     1      49.005   4.625  18.021  0.00  0.00    +0.000 A 
ATOM     23  N   UNL     1      48.853   3.944  19.174  0.00  0.00    +0.000 NA
ATOM     24  C   UNL     1      48.537   4.633  20.274  0.00  0.00    +0.000 A 
ATOM     25  N   UNL     1      48.355   5.947  20.369  0.00  0.00    +0.000 NA
ATOM     26  C   UNL     1      48.516   6.588  19.198  0.00  0.00    +0.000 A 
ATOM     27  S   UNL     1      48.340   8.275  19.136  0.00  0.00    +0.000 S 
ATOM     28  C   UNL     1      48.648   8.295  17.465  0.00  0.00    +0.000 A 
ATOM     29  C   UNL     1      48.885   7.037  16.919  0.00  0.00    +0.000 A 
ATOM     30  C   UNL     1      48.832   6.020  17.968  0.00  0.00    +0.000 A 
BRANCH  22  32
ATOM     31  C   UNL     1      49.305   2.514  17.052  0.00  0.00    +0.000 C 
ATOM     32  O   UNL     1      49.429   3.927  16.910  0.00  0.00    +0.000 OA
ENDBRANCH  22  32
ENDBRANCH  18  29
ENDBRANCH   1  20
TORSDOF 8
ENDMDL
MODEL 2
REMARK VINA RESULT:    -7.722      1.452      2.623
REMARK INTER + INTRA:         -12.329
REMARK INTER:                 -11.439
REMARK INTRA:                  -0.890
REMARK UNBOUND:                -0.995
REMARK  Name = 
REMARK  9 active torsions:
REMARK  status: ('A' for Active; 'I' for Inactive)
REMARK    1  A    between atoms: C_1  and  O_2
REMARK    2  A    between atoms: O_2  and  C_3
REMARK    3  A    between atoms: C_10  and  C_11
REMARK    4  A    between atoms: N_13  and  C_14
REMARK    5  A    between atoms: C_14  and  C_15
REMARK    6  A    between atoms: C_18  and  C_19
REMARK    7  A    between atoms: C_19  and  N_20
REMARK    8  A    between atoms: N_20  and  C_21
REMARK    9  A    between atoms: C_21  and  C_22
REMARK                            x       y       z     vdW  Elec       q    Type
REMARK                         _______ _______ _______ _____ _____    ______ ____
ROOT
ATOM      1  C   UNL     1      48.164   6.561  13.757  0.00  0.00    +0.000 C 
ENDROOT
BRANCH   1   2
ATOM      2  C   UNL     1      46.961   6.124  12.955  0.00  0.00    +0.000 A 
ATOM      3  C   UNL     1      46.691   6.685  11.699  0.00  0.00    +0.000 A 
ATOM      4  C   UNL     1      45.586   6.259  10.949  0.00  0.00    +0.000 A 
ATOM      5  C   UNL     1      44.725   5.265  11.437  0.00  0.00    +0.000 A 
ATOM      6  C   UNL     1      44.979   4.729  12.705  0.00  0.00    +0.000 A 
ATOM      7  C   UNL     1      46.078   5.161  13.461  0.00  0.00    +0.000 A 
BRANCH   5   8
ATOM      8  C   UNL     1      43.541   4.789  10.617  0.00  0.00    +0.000 C 
BRANCH   8   9
ATOM      9  N   UNL     1      43.964   4.309   9.307  0.00  0.00    +0.000 NA
ATOM     10  H   UNL     1      44.739   4.879   8.964  0.00  0.00    +0.000 HD
BRANCH   9  11
ATOM     11  C   UNL     1      44.432   2.910   9.356  0.00  0.00    +0.000 C 
BRANCH  11  12
ATOM     12  C   UNL     1      45.511   2.616   8.320  0.00  0.00    +0.000 A 
ATOM     13  N   UNL     1      45.780   3.578   7.408  0.00  0.00    +0.000 NA
ATOM     14  C   UNL     1      46.715   3.281   6.484  0.00  0.00    +0.000 A 
ATOM     15  C   UNL     1      47.390   2.084   6.441  0.00  0.00    +0.000 A 
ATOM     16  C   UNL     1      47.055   1.179   7.421  0.00  0.00    +0.000 A 
ATOM     17  N   UNL     1      46.129   1.417   8.369  0.00  0.00    +0.000 NA
ENDBRANCH  11  12
ENDBRANCH   9  11
ENDBRANCH   8   9
ENDBRANCH   5   8
ENDBRANCH   1   2
BRANCH   1  20
ATOM     18  C   UNL     1      49.044   6.263  16.044  0.00  0.00    +0.000 C 
ATOM     19  O   UNL     1      50.190   6.516  15.684  0.00  0.00    +0.000 OA
ATOM     20  N   UNL     1      47.999   6.264  15.157  0.00  0.00    +0.000 N 
ATOM     21  H   UNL     1      47.089   5.945  15.456  0.00  0.00    +0.000 HD
BRANCH  18  29
ATOM     22  C   UNL     1      47.891   8.170  18.667  0.00  0.00    +0.000 A 
ATOM     23  N   UNL     1      47.516   8.685  19.854  0.00  0.00    +0.000 NA
ATOM     24  C   UNL     1      47.495   7.873  20.914  0.00  0.00    +0.000 A 
ATOM     25  N   UNL     1      47.803   6.579  20.936  0.00  0.00    +0.000 NA
ATOM     26  C   UNL     1      48.172   6.105  19.733  0.00  0.00    +0.000 A 
ATOM     27  S   UNL     1      48.583   4.466  19.570  0.00  0.00    +0.000 S 
ATOM     28  C   UNL     1      48.916   4.664  17.915  0.00  0.00    +0.000 A 
ATOM     29  C   UNL     1      48.729   5.963  17.453  0.00  0.00    +0.000 A 
ATOM     30  C   UNL     1      48.257   6.817  18.542  0.00  0.00    +0.000 A 
BRANCH  22  32
ATOM     31  C   UNL     1      47.864  10.372  17.872  0.00  0.00    +0.000 C 
ATOM     32  O   UNL     1      47.816   8.983  17.557  0.00  0.00    +0.000 OA
ENDBRANCH  22  32
ENDBRANCH  18  29
ENDBRANCH   1  20
TORSDOF 8
ENDMDL
MODEL 3
REMARK VINA RESULT:    -7.280      1.956      2.360
REMARK INTER + INTRA:         -11.679
REMARK INTER:                 -10.551
REMARK INTRA:                  -1.129
REMARK UNBOUND:                -0.995
REMARK  Name = 
REMARK  9 active torsions:
REMARK  status: ('A' for Active; 'I' for Inactive)
REMARK    1  A    between atoms: C_1  and  O_2
REMARK    2  A    between atoms: O_2  and  C_3
REMARK    3  A    between atoms: C_10  and  C_11
REMARK    4  A    between atoms: N_13  and  C_14
REMARK    5  A    between atoms: C_14  and  C_15
REMARK    6  A    between atoms: C_18  and  C_19
REMARK    7  A    between atoms: C_19  and  N_20
REMARK    8  A    between atoms: N_20  and  C_21
REMARK    9  A    between atoms: C_21  and  C_22
REMARK                            x       y       z     vdW  Elec       q    Type
REMARK                         _______ _______ _______ _____ _____    ______ ____
ROOT
ATOM      1  C   UNL     1      47.040   7.674  13.290  0.00  0.00    +0.000 C 
ENDROOT
BRANCH   1   2
ATOM      2  C   UNL     1      46.160   6.511  12.898  0.00  0.00    +0.000 A 
ATOM      3  C   UNL     1      46.621   5.191  13.010  0.00  0.00    +0.000 A 
ATOM      4  C   UNL     1      45.792   4.114  12.668  0.00  0.00    +0.000 A 
ATOM      5  C   UNL     1      44.486   4.331  12.204  0.00  0.00    +0.000 A 
ATOM      6  C   UNL     1      44.039   5.650  12.063  0.00  0.00    +0.000 A 
ATOM      7  C   UNL     1      44.871   6.729  12.396  0.00  0.00    +0.000 A 
BRANCH   5   8
ATOM      8  C   UNL     1      43.580   3.165  11.852  0.00  0.00    +0.000 C 
BRANCH   8   9
ATOM      9  N   UNL     1      44.065   2.456  10.674  0.00  0.00    +0.000 NA
ATOM     10  H   UNL     1      43.416   1.705  10.431  0.00  0.00    +0.000 HD
BRANCH   9  11
ATOM     11  C   UNL     1      44.174   3.344   9.501  0.00  0.00    +0.000 C 
BRANCH  11  12
ATOM     12  C   UNL     1      45.308   2.943   8.564  0.00  0.00    +0.000 A 
ATOM     13  N   UNL     1      45.815   3.899   7.752  0.00  0.00    +0.000 NA
ATOM     14  C   UNL     1      46.795   3.512   6.913  0.00  0.00    +0.000 A 
ATOM     15  C   UNL     1      47.290   2.231   6.860  0.00  0.00    +0.000 A 
ATOM     16  C   UNL     1      46.719   1.338   7.736  0.00  0.00    +0.000 A 
ATOM     17  N   UNL     1      45.737   1.664   8.597  0.00  0.00    +0.000 NA
ENDBRANCH  11  12
ENDBRANCH   9  11
ENDBRANCH   8   9
ENDBRANCH   5   8
ENDBRANCH   1   2
BRANCH   1  20
ATOM     18  C   UNL     1      48.818   7.972  14.977  0.00  0.00    +0.000 C 
ATOM     19  O   UNL     1      48.380   9.069  15.310  0.00  0.00    +0.000 OA
ATOM     20  N   UNL     1      48.217   7.230  13.994  0.00  0.00    +0.000 N 
ATOM     21  H   UNL     1      48.659   6.384  13.663  0.00  0.00    +0.000 HD
BRANCH  18  29
ATOM     22  C   UNL     1      49.373   5.023  16.663  0.00  0.00    +0.000 A 
ATOM     23  N   UNL     1      49.839   3.998  17.403  0.00  0.00    +0.000 NA
ATOM     24  C   UNL     1      51.102   4.057  17.835  0.00  0.00    +0.000 A 
ATOM     25  N   UNL     1      51.978   5.031  17.612  0.00  0.00    +0.000 NA
ATOM     26  C   UNL     1      51.475   6.033  16.870  0.00  0.00    +0.000 A 
ATOM     27  S   UNL     1      52.461   7.356  16.469  0.00  0.00    +0.000 S 
ATOM     28  C   UNL     1      51.192   8.109  15.625  0.00  0.00    +0.000 A 
ATOM     29  C   UNL     1      50.003   7.386  15.631  0.00  0.00    +0.000 A 
ATOM     30  C   UNL     1      50.186   6.129  16.356  0.00  0.00    +0.000 A 
BRANCH  22  32
ATOM     31  C   UNL     1      47.580   3.590  16.200  0.00  0.00    +0.000 C 
ATOM     32  O   UNL     1      48.106   4.914  16.134  0.00  0.00    +0.000 OA
ENDBRANCH  22  32
ENDBRANCH  18  29
ENDBRANCH   1  20
TORSDOF 8
ENDMDL
MODEL 4
REMARK VINA RESULT:    -7.228      1.856      3.226
REMARK INTER + INTRA:         -11.603
REMARK INTER:                 -10.424
REMARK INTRA:                  -1.179
REMARK UNBOUND:                -0.995
REMARK  Name = 
REMARK  9 active torsions:
REMARK  status: ('A' for Active; 'I' for Inactive)
REMARK    1  A    between atoms: C_1  and  O_2
REMARK    2  A    between atoms: O_2  and  C_3
REMARK    3  A    between atoms: C_10  and  C_11
REMARK    4  A    between atoms: N_13  and  C_14
REMARK    5  A    between atoms: C_14  and  C_15
REMARK    6  A    between atoms: C_18  and  C_19
REMARK    7  A    between atoms: C_19  and  N_20
REMARK    8  A    between atoms: N_20  and  C_21
REMARK    9  A    between atoms: C_21  and  C_22
REMARK                            x       y       z     vdW  Elec       q    Type
REMARK                         _______ _______ _______ _____ _____    ______ ____
ROOT
ATOM      1  C   UNL     1      47.178   4.095  14.828  0.00  0.00    +0.000 C 
ENDROOT
BRANCH   1   2
ATOM      2  C   UNL     1      46.238   4.348  13.673  0.00  0.00    +0.000 A 
ATOM      3  C   UNL     1      45.726   3.285  12.917  0.00  0.00    +0.000 A 
ATOM      4  C   UNL     1      44.835   3.523  11.860  0.00  0.00    +0.000 A 
ATOM      5  C   UNL     1      44.440   4.829  11.534  0.00  0.00    +0.000 A 
ATOM      6  C   UNL     1      44.978   5.891  12.271  0.00  0.00    +0.000 A 
ATOM      7  C   UNL     1      45.875   5.655  13.321  0.00  0.00    +0.000 A 
BRANCH   5   8
ATOM      8  C   UNL     1      43.461   5.087  10.405  0.00  0.00    +0.000 C 
BRANCH   8   9
ATOM      9  N   UNL     1      43.840   4.359   9.199  0.00  0.00    +0.000 NA
ATOM     10  H   UNL     1      43.204   4.599   8.436  0.00  0.00    +0.000 HD
BRANCH   9  11
ATOM     11  C   UNL     1      45.208   4.696   8.759  0.00  0.00    +0.000 C 
BRANCH  11  12
ATOM     12  C   UNL     1      45.887   3.546   8.022  0.00  0.00    +0.000 A 
ATOM     13  N   UNL     1      45.797   2.313   8.572  0.00  0.00    +0.000 NA
ATOM     14  C   UNL     1      46.433   1.320   7.918  0.00  0.00    +0.000 A 
ATOM     15  C   UNL     1      47.133   1.504   6.750  0.00  0.00    +0.000 A 
ATOM     16  C   UNL     1      47.151   2.791   6.266  0.00  0.00    +0.000 A 
ATOM     17  N   UNL     1      46.538   3.824   6.873  0.00  0.00    +0.000 NA
ENDBRANCH  11  12
ENDBRANCH   9  11
ENDBRANCH   8   9
ENDBRANCH   5   8
ENDBRANCH   1   2
BRANCH   1  20
ATOM     18  C   UNL     1      48.504   5.433  16.424  0.00  0.00    +0.000 C 
ATOM     19  O   UNL     1      49.290   4.509  16.614  0.00  0.00    +0.000 OA
ATOM     20  N   UNL     1      47.444   5.305  15.564  0.00  0.00    +0.000 N 
ATOM     21  H   UNL     1      46.753   6.039  15.509  0.00  0.00    +0.000 HD
BRANCH  18  29
ATOM     22  C   UNL     1      48.695   8.675  15.283  0.00  0.00    +0.000 A 
ATOM     23  N   UNL     1      48.859  10.001  15.108  0.00  0.00    +0.000 NA
ATOM     24  C   UNL     1      49.088  10.754  16.187  0.00  0.00    +0.000 A 
ATOM     25  N   UNL     1      49.168  10.341  17.448  0.00  0.00    +0.000 NA
ATOM     26  C   UNL     1      48.998   9.013  17.579  0.00  0.00    +0.000 A 
ATOM     27  S   UNL     1      49.050   8.311  19.124  0.00  0.00    +0.000 S 
ATOM     28  C   UNL     1      48.796   6.759  18.481  0.00  0.00    +0.000 A 
ATOM     29  C   UNL     1      48.671   6.735  17.095  0.00  0.00    +0.000 A 
ATOM     30  C   UNL     1      48.766   8.094  16.562  0.00  0.00    +0.000 A 
BRANCH  22  32
ATOM     31  C   UNL     1      49.495   7.441  13.460  0.00  0.00    +0.000 C 
ATOM     32  O   UNL     1      48.360   7.914  14.184  0.00  0.00    +0.000 OA
ENDBRANCH  22  32
ENDBRANCH  18  29
ENDBRANCH   1  20
TORSDOF 8
ENDMDL
MODEL 5
REMARK VINA RESULT:    -7.042      2.016      2.817
REMARK INTER + INTRA:         -11.330
REMARK INTER:                 -10.139
REMARK INTRA:                  -1.191
REMARK UNBOUND:                -0.995
REMARK  Name = 
REMARK  9 active torsions:
REMARK  status: ('A' for Active; 'I' for Inactive)
REMARK    1  A    between atoms: C_1  and  O_2
REMARK    2  A    between atoms: O_2  and  C_3
REMARK    3  A    between atoms: C_10  and  C_11
REMARK    4  A    between atoms: N_13  and  C_14
REMARK    5  A    between atoms: C_14  and  C_15
REMARK    6  A    between atoms: C_18  and  C_19
REMARK    7  A    between atoms: C_19  and  N_20
REMARK    8  A    between atoms: N_20  and  C_21
REMARK    9  A    between atoms: C_21  and  C_22
REMARK                            x       y       z     vdW  Elec       q    Type
REMARK                         _______ _______ _______ _____ _____    ______ ____
ROOT
ATOM      1  C   UNL     1      47.846   5.119  14.717  0.00  0.00    +0.000 C 
ENDROOT
BRANCH   1   2
ATOM      2  C   UNL     1      46.722   4.968  13.720  0.00  0.00    +0.000 A 
ATOM      3  C   UNL     1      46.313   3.700  13.285  0.00  0.00    +0.000 A 
ATOM      4  C   UNL     1      45.253   3.563  12.377  0.00  0.00    +0.000 A 
ATOM      5  C   UNL     1      44.581   4.690  11.882  0.00  0.00    +0.000 A 
ATOM      6  C   UNL     1      45.012   5.957  12.295  0.00  0.00    +0.000 A 
ATOM      7  C   UNL     1      46.078   6.095  13.195  0.00  0.00    +0.000 A 
BRANCH   5   8
ATOM      8  C   UNL     1      43.421   4.544  10.916  0.00  0.00    +0.000 C 
BRANCH   8   9
ATOM      9  N   UNL     1      43.737   3.599   9.850  0.00  0.00    +0.000 NA
ATOM     10  H   UNL     1      42.873   3.219   9.459  0.00  0.00    +0.000 HD
BRANCH   9  11
ATOM     11  C   UNL     1      44.479   4.239   8.747  0.00  0.00    +0.000 C 
BRANCH  11  12
ATOM     12  C   UNL     1      45.527   3.318   8.133  0.00  0.00    +0.000 A 
ATOM     13  N   UNL     1      45.541   2.028   8.541  0.00  0.00    +0.000 NA
ATOM     14  C   UNL     1      46.497   1.243   8.006  0.00  0.00    +0.000 A 
ATOM     15  C   UNL     1      47.418   1.683   7.086  0.00  0.00    +0.000 A 
ATOM     16  C   UNL     1      47.309   3.006   6.725  0.00  0.00    +0.000 A 
ATOM     17  N   UNL     1      46.378   3.840   7.225  0.00  0.00    +0.000 NA
ENDBRANCH  11  12
ENDBRANCH   9  11
ENDBRANCH   8   9
ENDBRANCH   5   8
ENDBRANCH   1   2
BRANCH   1  20
ATOM     18  C   UNL     1      48.995   7.173  15.464  0.00  0.00    +0.000 C 
ATOM     19  O   UNL     1      50.088   6.746  15.105  0.00  0.00    +0.000 OA
ATOM     20  N   UNL     1      47.851   6.433  15.309  0.00  0.00    +0.000 N 
ATOM     21  H   UNL     1      46.985   6.759  15.713  0.00  0.00    +0.000 HD
BRANCH  18  29
ATOM     22  C   UNL     1      47.675   8.302  18.436  0.00  0.00    +0.000 A 
ATOM     23  N   UNL     1      47.180   9.005  19.473  0.00  0.00    +0.000 NA
ATOM     24  C   UNL     1      47.265  10.337  19.427  0.00  0.00    +0.000 A 
ATOM     25  N   UNL     1      47.801  11.071  18.457  0.00  0.00    +0.000 NA
ATOM     26  C   UNL     1      48.284  10.332  17.443  0.00  0.00    +0.000 A 
ATOM     27  S   UNL     1      49.023  11.102  16.122  0.00  0.00    +0.000 S 
ATOM     28  C   UNL     1      49.308   9.615  15.351  0.00  0.00    +0.000 A 
ATOM     29  C   UNL     1      48.852   8.512  16.066  0.00  0.00    +0.000 A 
ATOM     30  C   UNL     1      48.263   8.946  17.332  0.00  0.00    +0.000 A 
BRANCH  22  32
ATOM     31  C   UNL     1      48.844   6.408  19.165  0.00  0.00    +0.000 C 
ATOM     32  O   UNL     1      47.678   6.927  18.530  0.00  0.00    +0.000 OA
ENDBRANCH  22  32
ENDBRANCH  18  29
ENDBRANCH   1  20
TORSDOF 8
ENDMDL
MODEL 6
REMARK VINA RESULT:    -7.022      2.634      3.651
REMARK INTER + INTRA:         -11.301
REMARK INTER:                 -10.439
REMARK INTRA:                  -0.862
REMARK UNBOUND:                -0.995
REMARK  Name = 
REMARK  9 active torsions:
REMARK  status: ('A' for Active; 'I' for Inactive)
REMARK    1  A    between atoms: C_1  and  O_2
REMARK    2  A    between atoms: O_2  and  C_3
REMARK    3  A    between atoms: C_10  and  C_11
REMARK    4  A    between atoms: N_13  and  C_14
REMARK    5  A    between atoms: C_14  and  C_15
REMARK    6  A    between atoms: C_18  and  C_19
REMARK    7  A    between atoms: C_19  and  N_20
REMARK    8  A    between atoms: N_20  and  C_21
REMARK    9  A    between atoms: C_21  and  C_22
REMARK                            x       y       z     vdW  Elec       q    Type
REMARK                         _______ _______ _______ _____ _____    ______ ____
ROOT
ATOM      1  C   UNL     1      49.113   6.776  16.204  0.00  0.00    +0.000 C 
ENDROOT
BRANCH   1   2
ATOM      2  C   UNL     1      48.209   6.132  15.180  0.00  0.00    +0.000 A 
ATOM      3  C   UNL     1      47.495   4.964  15.484  0.00  0.00    +0.000 A 
ATOM      4  C   UNL     1      46.639   4.384  14.538  0.00  0.00    +0.000 A 
ATOM      5  C   UNL     1      46.479   4.954  13.267  0.00  0.00    +0.000 A 
ATOM      6  C   UNL     1      47.217   6.103  12.955  0.00  0.00    +0.000 A 
ATOM      7  C   UNL     1      48.081   6.679  13.897  0.00  0.00    +0.000 A 
BRANCH   5   8
ATOM      8  C   UNL     1      45.538   4.339  12.249  0.00  0.00    +0.000 C 
BRANCH   8   9
ATOM      9  N   UNL     1      45.109   5.323  11.262  0.00  0.00    +0.000 NA
ATOM     10  H   UNL     1      45.926   5.718  10.792  0.00  0.00    +0.000 HD
BRANCH   9  11
ATOM     11  C   UNL     1      44.247   4.726  10.224  0.00  0.00    +0.000 C 
BRANCH  11  12
ATOM     12  C   UNL     1      45.025   3.849   9.249  0.00  0.00    +0.000 A 
ATOM     13  N   UNL     1      44.983   2.511   9.442  0.00  0.00    +0.000 NA
ATOM     14  C   UNL     1      45.704   1.761   8.586  0.00  0.00    +0.000 A 
ATOM     15  C   UNL     1      46.445   2.284   7.553  0.00  0.00    +0.000 A 
ATOM     16  C   UNL     1      46.409   3.653   7.432  0.00  0.00    +0.000 A 
ATOM     17  N   UNL     1      45.709   4.455   8.256  0.00  0.00    +0.000 NA
ENDBRANCH  11  12
ENDBRANCH   9  11
ENDBRANCH   8   9
ENDBRANCH   5   8
ENDBRANCH   1   2
BRANCH   1  20
ATOM     18  C   UNL     1      50.569   5.784  17.934  0.00  0.00    +0.000 C 
ATOM     19  O   UNL     1      50.075   6.483  18.814  0.00  0.00    +0.000 OA
ATOM     20  N   UNL     1      50.151   5.872  16.632  0.00  0.00    +0.000 N 
ATOM     21  H   UNL     1      50.647   5.368  15.912  0.00  0.00    +0.000 HD
BRANCH  18  29
ATOM     22  C   UNL     1      50.904   2.414  17.325  0.00  0.00    +0.000 A 
ATOM     23  N   UNL     1      51.257   1.114  17.273  0.00  0.00    +0.000 NA
ATOM     24  C   UNL     1      52.406   0.752  17.851  0.00  0.00    +0.000 A 
ATOM     25  N   UNL     1      53.267   1.543  18.483  0.00  0.00    +0.000 NA
ATOM     26  C   UNL     1      52.878   2.829  18.512  0.00  0.00    +0.000 A 
ATOM     27  S   UNL     1      53.867   3.987  19.263  0.00  0.00    +0.000 S 
ATOM     28  C   UNL     1      52.760   5.229  18.917  0.00  0.00    +0.000 A 
ATOM     29  C   UNL     1      51.625   4.800  18.236  0.00  0.00    +0.000 A 
ATOM     30  C   UNL     1      51.714   3.365  17.971  0.00  0.00    +0.000 A 
BRANCH  22  32
ATOM     31  C   UNL     1      48.566   2.541  17.357  0.00  0.00    +0.000 C 
ATOM     32  O   UNL     1      49.772   2.803  16.642  0.00  0.00    +0.000 OA
ENDBRANCH  22  32
ENDBRANCH  18  29
ENDBRANCH   1  20
TORSDOF 8
ENDMDL
MODEL 7
REMARK VINA RESULT:    -6.974      4.339      9.449
REMARK INTER + INTRA:         -11.231
REMARK INTER:                 -10.351
REMARK INTRA:                  -0.879
REMARK UNBOUND:                -0.995
REMARK  Name = 
REMARK  9 active torsions:
REMARK  status: ('A' for Active; 'I' for Inactive)
REMARK    1  A    between atoms: C_1  and  O_2
REMARK    2  A    between atoms: O_2  and  C_3
REMARK    3  A    between atoms: C_10  and  C_11
REMARK    4  A    between atoms: N_13  and  C_14
REMARK    5  A    between atoms: C_14  and  C_15
REMARK    6  A    between atoms: C_18  and  C_19
REMARK    7  A    between atoms: C_19  and  N_20
REMARK    8  A    between atoms: N_20  and  C_21
REMARK    9  A    between atoms: C_21  and  C_22
REMARK                            x       y       z     vdW  Elec       q    Type
REMARK                         _______ _______ _______ _____ _____    ______ ____
ROOT
ATOM      1  C   UNL     1      47.143   3.363  16.813  0.00  0.00    +0.000 C 
ENDROOT
BRANCH   1   2
ATOM      2  C   UNL     1      48.618   3.281  17.125  0.00  0.00    +0.000 A 
ATOM      3  C   UNL     1      49.307   4.388  17.642  0.00  0.00    +0.000 A 
ATOM      4  C   UNL     1      50.671   4.300  17.952  0.00  0.00    +0.000 A 
ATOM      5  C   UNL     1      51.378   3.106  17.751  0.00  0.00    +0.000 A 
ATOM      6  C   UNL     1      50.696   2.011  17.206  0.00  0.00    +0.000 A 
ATOM      7  C   UNL     1      49.334   2.101  16.886  0.00  0.00    +0.000 A 
BRANCH   5   8
ATOM      8  C   UNL     1      52.850   3.002  18.105  0.00  0.00    +0.000 C 
BRANCH   8   9
ATOM      9  N   UNL     1      53.166   1.698  18.676  0.00  0.00    +0.000 NA
ATOM     10  H   UNL     1      52.434   1.028  18.431  0.00  0.00    +0.000 HD
BRANCH   9  11
ATOM     11  C   UNL     1      54.442   1.165  18.162  0.00  0.00    +0.000 C 
BRANCH  11  12
ATOM     12  C   UNL     1      54.479  -0.359  18.147  0.00  0.00    +0.000 A 
ATOM     13  N   UNL     1      53.949  -1.007  19.210  0.00  0.00    +0.000 NA
ATOM     14  C   UNL     1      54.022  -2.352  19.187  0.00  0.00    +0.000 A 
ATOM     15  C   UNL     1      54.584  -3.066  18.156  0.00  0.00    +0.000 A 
ATOM     16  C   UNL     1      55.080  -2.316  17.116  0.00  0.00    +0.000 A 
ATOM     17  N   UNL     1      55.038  -0.971  17.082  0.00  0.00    +0.000 NA
ENDBRANCH  11  12
ENDBRANCH   9  11
ENDBRANCH   8   9
ENDBRANCH   5   8
ENDBRANCH   1   2
BRANCH   1  20
ATOM     18  C   UNL     1      46.932   4.262  14.523  0.00  0.00    +0.000 C 
ATOM     19  O   UNL     1      47.247   3.186  14.024  0.00  0.00    +0.000 OA
ATOM     20  N   UNL     1      46.861   4.427  15.882  0.00  0.00    +0.000 N 
ATOM     21  H   UNL     1      46.708   5.347  16.268  0.00  0.00    +0.000 HD
BRANCH  18  29
ATOM     22  C   UNL     1      44.160   5.128  12.677  0.00  0.00    +0.000 A 
ATOM     23  N   UNL     1      43.250   5.671  11.844  0.00  0.00    +0.000 NA
ATOM     24  C   UNL     1      43.560   6.819  11.237  0.00  0.00    +0.000 A 
ATOM     25  N   UNL     1      44.688   7.513  11.365  0.00  0.00    +0.000 NA
ATOM     26  C   UNL     1      45.567   6.938  12.205  0.00  0.00    +0.000 A 
ATOM     27  S   UNL     1      47.057   7.695  12.504  0.00  0.00    +0.000 S 
ATOM     28  C   UNL     1      47.540   6.442  13.546  0.00  0.00    +0.000 A 
ATOM     29  C   UNL     1      46.596   5.430  13.687  0.00  0.00    +0.000 A 
ATOM     30  C   UNL     1      45.403   5.745  12.902  0.00  0.00    +0.000 A 
BRANCH  22  32
ATOM     31  C   UNL     1      43.620   2.853  12.549  0.00  0.00    +0.000 C 
ATOM     32  O   UNL     1      43.799   3.998  13.379  0.00  0.00    +0.000 OA
ENDBRANCH  22  32
ENDBRANCH  18  29
ENDBRANCH   1  20
TORSDOF 8
ENDMDL
MODEL 8
REMARK VINA RESULT:    -6.860      3.218      5.315
REMARK INTER + INTRA:         -11.064
REMARK INTER:                  -9.979
REMARK INTRA:                  -1.085
REMARK UNBOUND:                -0.995
REMARK  Name = 
REMARK  9 active torsions:
REMARK  status: ('A' for Active; 'I' for Inactive)
REMARK    1  A    between atoms: C_1  and  O_2
REMARK    2  A    between atoms: O_2  and  C_3
REMARK    3  A    between atoms: C_10  and  C_11
REMARK    4  A    between atoms: N_13  and  C_14
REMARK    5  A    between atoms: C_14  and  C_15
REMARK    6  A    between atoms: C_18  and  C_19
REMARK    7  A    between atoms: C_19  and  N_20
REMARK    8  A    between atoms: N_20  and  C_21
REMARK    9  A    between atoms: C_21  and  C_22
REMARK                            x       y       z     vdW  Elec       q    Type
REMARK                         _______ _______ _______ _____ _____    ______ ____
ROOT
ATOM      1  C   UNL     1      47.873   5.864  14.251  0.00  0.00    +0.000 C 
ENDROOT
BRANCH   1   2
ATOM      2  C   UNL     1      46.741   5.616  13.283  0.00  0.00    +0.000 A 
ATOM      3  C   UNL     1      46.685   6.290  12.055  0.00  0.00    +0.000 A 
ATOM      4  C   UNL     1      45.645   6.040  11.149  0.00  0.00    +0.000 A 
ATOM      5  C   UNL     1      44.637   5.113  11.451  0.00  0.00    +0.000 A 
ATOM      6  C   UNL     1      44.678   4.464  12.691  0.00  0.00    +0.000 A 
ATOM      7  C   UNL     1      45.712   4.721  13.601  0.00  0.00    +0.000 A 
BRANCH   5   8
ATOM      8  C   UNL     1      43.522   4.825  10.463  0.00  0.00    +0.000 C 
BRANCH   8   9
ATOM      9  N   UNL     1      44.043   4.242   9.232  0.00  0.00    +0.000 NA
ATOM     10  H   UNL     1      44.832   4.797   8.894  0.00  0.00    +0.000 HD
BRANCH   9  11
ATOM     11  C   UNL     1      44.527   2.863   9.436  0.00  0.00    +0.000 C 
BRANCH  11  12
ATOM     12  C   UNL     1      45.640   2.483   8.467  0.00  0.00    +0.000 A 
ATOM     13  N   UNL     1      46.003   1.180   8.412  0.00  0.00    +0.000 NA
ATOM     14  C   UNL     1      47.010   0.876   7.571  0.00  0.00    +0.000 A 
ATOM     15  C   UNL     1      47.652   1.802   6.784  0.00  0.00    +0.000 A 
ATOM     16  C   UNL     1      47.198   3.095   6.901  0.00  0.00    +0.000 A 
ATOM     17  N   UNL     1      46.198   3.462   7.724  0.00  0.00    +0.000 NA
ENDBRANCH  11  12
ENDBRANCH   9  11
ENDBRANCH   8   9
ENDBRANCH   5   8
ENDBRANCH   1   2
BRANCH   1  20
ATOM     18  C   UNL     1      48.986   8.066  14.330  0.00  0.00    +0.000 C 
ATOM     19  O   UNL     1      48.366   8.394  15.337  0.00  0.00    +0.000 OA
ATOM     20  N   UNL     1      48.798   6.844  13.739  0.00  0.00    +0.000 N 
ATOM     21  H   UNL     1      49.238   6.642  12.853  0.00  0.00    +0.000 HD
BRANCH  18  29
ATOM     22  C   UNL     1      48.901  10.185  11.619  0.00  0.00    +0.000 A 
ATOM     23  N   UNL     1      49.155  11.020  10.593  0.00  0.00    +0.000 NA
ATOM     24  C   UNL     1      50.391  11.515  10.478  0.00  0.00    +0.000 A 
ATOM     25  N   UNL     1      51.425  11.280  11.280  0.00  0.00    +0.000 NA
ATOM     26  C   UNL     1      51.128  10.443  12.289  0.00  0.00    +0.000 A 
ATOM     27  S   UNL     1      52.325  10.044  13.426  0.00  0.00    +0.000 S 
ATOM     28  C   UNL     1      51.256   9.027  14.269  0.00  0.00    +0.000 A 
ATOM     29  C   UNL     1      49.981   8.964  13.713  0.00  0.00    +0.000 A 
ATOM     30  C   UNL     1      49.903   9.836  12.542  0.00  0.00    +0.000 A 
BRANCH  22  32
ATOM     31  C   UNL     1      46.651  10.817  11.778  0.00  0.00    +0.000 C 
ATOM     32  O   UNL     1      47.603   9.755  11.795  0.00  0.00    +0.000 OA
ENDBRANCH  22  32
ENDBRANCH  18  29
ENDBRANCH   1  20
TORSDOF 8
ENDMDL
MODEL 9
REMARK VINA RESULT:    -6.790      3.758      5.254
REMARK INTER + INTRA:         -10.960
REMARK INTER:                  -9.929
REMARK INTRA:                  -1.031
REMARK UNBOUND:                -0.995
REMARK  Name = 
REMARK  9 active torsions:
REMARK  status: ('A' for Active; 'I' for Inactive)
REMARK    1  A    between atoms: C_1  and  O_2
REMARK    2  A    between atoms: O_2  and  C_3
REMARK    3  A    between atoms: C_10  and  C_11
REMARK    4  A    between atoms: N_13  and  C_14
REMARK    5  A    between atoms: C_14  and  C_15
REMARK    6  A    between atoms: C_18  and  C_19
REMARK    7  A    between atoms: C_19  and  N_20
REMARK    8  A    between atoms: N_20  and  C_21
REMARK    9  A    between atoms: C_21  and  C_22
REMARK                            x       y       z     vdW  Elec       q    Type
REMARK                         _______ _______ _______ _____ _____    ______ ____
ROOT
ATOM      1  C   UNL     1      48.021   6.538  13.913  0.00  0.00    +0.000 C 
ENDROOT
BRANCH   1   2
ATOM      2  C   UNL     1      46.864   6.116  13.040  0.00  0.00    +0.000 A 
ATOM      3  C   UNL     1      46.714   6.634  11.745  0.00  0.00    +0.000 A 
ATOM      4  C   UNL     1      45.651   6.221  10.929  0.00  0.00    +0.000 A 
ATOM      5  C   UNL     1      44.713   5.285  11.389  0.00  0.00    +0.000 A 
ATOM      6  C   UNL     1      44.847   4.794  12.693  0.00  0.00    +0.000 A 
ATOM      7  C   UNL     1      45.904   5.213  13.513  0.00  0.00    +0.000 A 
BRANCH   5   8
ATOM      8  C   UNL     1      43.574   4.823  10.500  0.00  0.00    +0.000 C 
BRANCH   8   9
ATOM      9  N   UNL     1      44.073   4.265   9.249  0.00  0.00    +0.000 NA
ATOM     10  H   UNL     1      44.906   4.776   8.951  0.00  0.00    +0.000 HD
BRANCH   9  11
ATOM     11  C   UNL     1      44.452   2.845   9.389  0.00  0.00    +0.000 C 
BRANCH  11  12
ATOM     12  C   UNL     1      45.604   2.452   8.472  0.00  0.00    +0.000 A 
ATOM     13  N   UNL     1      46.196   3.435   7.755  0.00  0.00    +0.000 NA
ATOM     14  C   UNL     1      47.190   3.057   6.929  0.00  0.00    +0.000 A 
ATOM     15  C   UNL     1      47.620   1.757   6.800  0.00  0.00    +0.000 A 
ATOM     16  C   UNL     1      46.966   0.836   7.583  0.00  0.00    +0.000 A 
ATOM     17  N   UNL     1      45.964   1.152   8.426  0.00  0.00    +0.000 NA
ENDBRANCH  11  12
ENDBRANCH   9  11
ENDBRANCH   8   9
ENDBRANCH   5   8
ENDBRANCH   1   2
BRANCH   1  20
ATOM     18  C   UNL     1      49.752   7.992  12.920  0.00  0.00    +0.000 C 
ATOM     19  O   UNL     1      49.230   9.004  13.381  0.00  0.00    +0.000 OA
ATOM     20  N   UNL     1      49.217   6.749  13.137  0.00  0.00    +0.000 N 
ATOM     21  H   UNL     1      49.601   5.948  12.657  0.00  0.00    +0.000 HD
BRANCH  18  29
ATOM     22  C   UNL     1      52.991   8.887  13.662  0.00  0.00    +0.000 A 
ATOM     23  N   UNL     1      54.292   9.237  13.664  0.00  0.00    +0.000 NA
ATOM     24  C   UNL     1      54.962   9.171  12.511  0.00  0.00    +0.000 A 
ATOM     25  N   UNL     1      54.487   8.784  11.331  0.00  0.00    +0.000 NA
ATOM     26  C   UNL     1      53.187   8.444  11.373  0.00  0.00    +0.000 A 
ATOM     27  S   UNL     1      52.416   7.906   9.959  0.00  0.00    +0.000 S 
ATOM     28  C   UNL     1      50.938   7.719  10.776  0.00  0.00    +0.000 A 
ATOM     29  C   UNL     1      50.992   8.060  12.125  0.00  0.00    +0.000 A 
ATOM     30  C   UNL     1      52.350   8.468  12.483  0.00  0.00    +0.000 A 
BRANCH  22  32
ATOM     31  C   UNL     1      52.459   7.616  15.556  0.00  0.00    +0.000 C 
ATOM     32  O   UNL     1      52.328   8.860  14.870  0.00  0.00    +0.000 OA
ENDBRANCH  22  32
ENDBRANCH  18  29
ENDBRANCH   1  20
TORSDOF 8
ENDMDL
