MODEL 1
REMARK VINA RESULT:    -8.246      0.000      0.000
REMARK INTER + INTRA:         -10.907
REMARK INTER:                 -10.175
REMARK INTRA:                  -0.733
REMARK UNBOUND:                -0.733
REMARK  Name = 
REMARK  4 active torsions:
REMARK  status: ('A' for Active; 'I' for Inactive)
REMARK    1  A    between atoms: C_4  and  C_5
REMARK    2  A    between atoms: C_5  and  N_6
REMARK    3  A    between atoms: C_11  and  C_12
REMARK    4  A    between atoms: C_18  and  C_19
REMARK                            x       y       z     vdW  Elec       q    Type
REMARK                         _______ _______ _______ _____ _____    ______ ____
ROOT
ATOM      1  F   UNL     1      46.539   4.390  14.981  0.00  0.00    +0.000 F 
ATOM      2  C   UNL     1      46.401   5.029  13.812  0.00  0.00    +0.000 A 
ATOM      3  C   UNL     1      45.291   4.753  13.018  0.00  0.00    +0.000 A 
ATOM      4  C   UNL     1      45.113   5.431  11.808  0.00  0.00    +0.000 A 
ATOM      5  C   UNL     1      46.093   6.366  11.417  0.00  0.00    +0.000 A 
ATOM      6  C   UNL     1      47.220   6.657  12.224  0.00  0.00    +0.000 A 
ATOM      7  C   UNL     1      47.357   5.972  13.434  0.00  0.00    +0.000 A 
ENDROOT
BRANCH   6   8
ATOM      8  C   UNL     1      48.211   7.731  11.782  0.00  0.00    +0.000 C 
ATOM      9  C   UNL     1      49.691   7.421  12.094  0.00  0.00    +0.000 C 
ATOM     10  C   UNL     1      50.291   8.154  13.293  0.00  0.00    +0.000 C 
ATOM     11  N   UNL     1      49.923   9.565  13.325  0.00  0.00    +0.000 NA
ATOM     12  C   UNL     1      48.473   9.688  13.448  0.00  0.00    +0.000 C 
ATOM     13  C   UNL     1      47.768   9.146  12.209  0.00  0.00    +0.000 C 
ATOM     14  H   UNL     1      50.237  10.025  12.469  0.00  0.00    +0.000 HD
ENDBRANCH   6   8
BRANCH   4  15
ATOM     15  C   UNL     1      43.874   5.188  10.969  0.00  0.00    +0.000 C 
BRANCH  15  16
ATOM     16  N   UNL     1      44.211   5.027   9.566  0.00  0.00    +0.000 N 
ATOM     17  C   UNL     1      44.817   3.853   9.137  0.00  0.00    +0.000 A 
ATOM     18  C   UNL     1      44.562   2.590   9.673  0.00  0.00    +0.000 A 
ATOM     19  N   UNL     1      45.121   1.442   9.214  0.00  0.00    +0.000 NA
ATOM     20  C   UNL     1      45.941   1.585   8.146  0.00  0.00    +0.000 A 
ATOM     21  C   UNL     1      46.209   2.820   7.573  0.00  0.00    +0.000 A 
ATOM     22  N   UNL     1      45.653   3.970   8.080  0.00  0.00    +0.000 NA
ATOM     23  H   UNL     1      44.686   5.814   9.132  0.00  0.00    +0.000 HD
BRANCH  21  24
ATOM     24  C   UNL     1      47.100   2.871   6.351  0.00  0.00    +0.000 C 
ATOM     25  F   UNL     1      46.914   1.811   5.505  0.00  0.00    +0.000 F 
ATOM     26  F   UNL     1      46.894   3.978   5.581  0.00  0.00    +0.000 F 
ATOM     27  F   UNL     1      48.431   2.858   6.649  0.00  0.00    +0.000 F 
ENDBRANCH  21  24
ENDBRANCH  15  16
ENDBRANCH   4  15
TORSDOF 4
ENDMDL
MODEL 2
REMARK VINA RESULT:    -7.873      1.995      2.750
REMARK INTER + INTRA:         -10.446
REMARK INTER:                  -9.708
REMARK INTRA:                  -0.738
REMARK UNBOUND:                -0.733
REMARK  Name = 
REMARK  4 active torsions:
REMARK  status: ('A' for Active; 'I' for Inactive)
REMARK    1  A    between atoms: C_4  and  C_5
REMARK    2  A    between atoms: C_5  and  N_6
REMARK    3  A    between atoms: C_11  and  C_12
REMARK    4  A    between atoms: C_18  and  C_19
REMARK                            x       y       z     vdW  Elec       q    Type
REMARK                         _______ _______ _______ _____ _____    ______ ____
ROOT
ATOM      1  F   UNL     1      45.139   9.543  12.132  0.00  0.00    +0.000 F 
ATOM      2  C   UNL     1      45.262   8.210  12.166  0.00  0.00    +0.000 A 
ATOM      3  C   UNL     1      44.295   7.426  11.541  0.00  0.00    +0.000 A 
ATOM      4  C   UNL     1      44.420   6.034  11.539  0.00  0.00    +0.000 A 
ATOM      5  C   UNL     1      45.525   5.462  12.203  0.00  0.00    +0.000 A 
ATOM      6  C   UNL     1      46.516   6.255  12.834  0.00  0.00    +0.000 A 
ATOM      7  C   UNL     1      46.366   7.643  12.801  0.00  0.00    +0.000 A 
ENDROOT
BRANCH   6   8
ATOM      8  C   UNL     1      47.727   5.582  13.476  0.00  0.00    +0.000 C 
ATOM      9  C   UNL     1      47.394   4.415  14.431  0.00  0.00    +0.000 C 
ATOM     10  C   UNL     1      47.479   4.728  15.925  0.00  0.00    +0.000 C 
ATOM     11  N   UNL     1      48.667   5.502  16.266  0.00  0.00    +0.000 NA
ATOM     12  C   UNL     1      48.626   6.788  15.576  0.00  0.00    +0.000 C 
ATOM     13  C   UNL     1      48.720   6.605  14.065  0.00  0.00    +0.000 C 
ATOM     14  H   UNL     1      49.506   4.989  15.990  0.00  0.00    +0.000 HD
ENDBRANCH   6   8
BRANCH   4  15
ATOM     15  C   UNL     1      43.411   5.174  10.803  0.00  0.00    +0.000 C 
BRANCH  15  16
ATOM     16  N   UNL     1      43.803   4.966   9.421  0.00  0.00    +0.000 N 
ATOM     17  C   UNL     1      44.542   3.841   9.079  0.00  0.00    +0.000 A 
ATOM     18  C   UNL     1      44.406   2.592   9.687  0.00  0.00    +0.000 A 
ATOM     19  N   UNL     1      45.096   1.485   9.313  0.00  0.00    +0.000 NA
ATOM     20  C   UNL     1      45.925   1.651   8.256  0.00  0.00    +0.000 A 
ATOM     21  C   UNL     1      46.078   2.871   7.614  0.00  0.00    +0.000 A 
ATOM     22  N   UNL     1      45.390   3.983   8.036  0.00  0.00    +0.000 NA
ATOM     23  H   UNL     1      44.204   5.772   8.949  0.00  0.00    +0.000 HD
BRANCH  21  24
ATOM     24  C   UNL     1      46.993   2.944   6.410  0.00  0.00    +0.000 C 
ATOM     25  F   UNL     1      46.867   4.112   5.708  0.00  0.00    +0.000 F 
ATOM     26  F   UNL     1      48.316   2.869   6.736  0.00  0.00    +0.000 F 
ATOM     27  F   UNL     1      46.769   1.955   5.499  0.00  0.00    +0.000 F 
ENDBRANCH  21  24
ENDBRANCH  15  16
ENDBRANCH   4  15
TORSDOF 4
ENDMDL
MODEL 3
REMARK VINA RESULT:    -7.634      1.679      2.114
REMARK INTER + INTRA:         -10.152
REMARK INTER:                  -9.515
REMARK INTRA:                  -0.637
REMARK UNBOUND:                -0.733
REMARK  Name = 
REMARK  4 active torsions:
REMARK  status: ('A' for Active; 'I' for Inactive)
REMARK    1  A    between atoms: C_4  and  C_5
REMARK    2  A    between atoms: C_5  and  N_6
REMARK    3  A    between atoms: C_11  and  C_12
REMARK    4  A    between atoms: C_18  and  C_19
REMARK                            x       y       z     vdW  Elec       q    Type
REMARK                         _______ _______ _______ _____ _____    ______ ____
ROOT
ATOM      1  F   UNL     1      44.871   9.972  12.518  0.00  0.00    +0.000 F 
ATOM      2  C   UNL     1      45.413   8.770  12.282  0.00  0.00    +0.000 A 
ATOM      3  C   UNL     1      44.615   7.761  11.749  0.00  0.00    +0.000 A 
ATOM      4  C   UNL     1      45.169   6.509  11.466  0.00  0.00    +0.000 A 
ATOM      5  C   UNL     1      46.533   6.302  11.760  0.00  0.00    +0.000 A 
ATOM      6  C   UNL     1      47.352   7.327  12.294  0.00  0.00    +0.000 A 
ATOM      7  C   UNL     1      46.768   8.571  12.548  0.00  0.00    +0.000 A 
ENDROOT
BRANCH   6   8
ATOM      8  C   UNL     1      48.839   7.065  12.524  0.00  0.00    +0.000 C 
ATOM      9  C   UNL     1      49.325   7.297  13.972  0.00  0.00    +0.000 C 
ATOM     10  C   UNL     1      50.088   8.597  14.222  0.00  0.00    +0.000 C 
ATOM     11  N   UNL     1      51.064   8.881  13.176  0.00  0.00    +0.000 NA
ATOM     12  C   UNL     1      50.378   9.044  11.898  0.00  0.00    +0.000 C 
ATOM     13  C   UNL     1      49.723   7.739  11.455  0.00  0.00    +0.000 C 
ATOM     14  H   UNL     1      51.735   8.114  13.112  0.00  0.00    +0.000 HD
ENDBRANCH   6   8
BRANCH   4  15
ATOM     15  C   UNL     1      44.327   5.425  10.824  0.00  0.00    +0.000 C 
BRANCH  15  16
ATOM     16  N   UNL     1      44.739   5.181   9.453  0.00  0.00    +0.000 N 
ATOM     17  C   UNL     1      45.110   3.900   9.066  0.00  0.00    +0.000 A 
ATOM     18  C   UNL     1      44.543   2.727   9.568  0.00  0.00    +0.000 A 
ATOM     19  N   UNL     1      44.877   1.480   9.148  0.00  0.00    +0.000 NA
ATOM     20  C   UNL     1      45.795   1.433   8.154  0.00  0.00    +0.000 A 
ATOM     21  C   UNL     1      46.372   2.575   7.617  0.00  0.00    +0.000 A 
ATOM     22  N   UNL     1      46.038   3.822   8.085  0.00  0.00    +0.000 NA
ATOM     23  H   UNL     1      45.407   5.842   9.068  0.00  0.00    +0.000 HD
BRANCH  21  24
ATOM     24  C   UNL     1      47.353   2.420   6.475  0.00  0.00    +0.000 C 
ATOM     25  F   UNL     1      46.967   3.082   5.340  0.00  0.00    +0.000 F 
ATOM     26  F   UNL     1      48.595   2.905   6.763  0.00  0.00    +0.000 F 
ATOM     27  F   UNL     1      47.532   1.124   6.086  0.00  0.00    +0.000 F 
ENDBRANCH  21  24
ENDBRANCH  15  16
ENDBRANCH   4  15
TORSDOF 4
ENDMDL
MODEL 4
REMARK VINA RESULT:    -7.012      2.433      3.397
REMARK INTER + INTRA:          -9.384
REMARK INTER:                  -8.671
REMARK INTRA:                  -0.713
REMARK UNBOUND:                -0.733
REMARK  Name = 
REMARK  4 active torsions:
REMARK  status: ('A' for Active; 'I' for Inactive)
REMARK    1  A    between atoms: C_4  and  C_5
REMARK    2  A    between atoms: C_5  and  N_6
REMARK    3  A    between atoms: C_11  and  C_12
REMARK    4  A    between atoms: C_18  and  C_19
REMARK                            x       y       z     vdW  Elec       q    Type
REMARK                         _______ _______ _______ _____ _____    ______ ____
ROOT
ATOM      1  F   UNL     1      49.421   7.215  11.845  0.00  0.00    +0.000 F 
ATOM      2  C   UNL     1      48.337   6.709  12.446  0.00  0.00    +0.000 A 
ATOM      3  C   UNL     1      47.144   6.631  11.733  0.00  0.00    +0.000 A 
ATOM      4  C   UNL     1      46.008   6.077  12.333  0.00  0.00    +0.000 A 
ATOM      5  C   UNL     1      46.107   5.635  13.668  0.00  0.00    +0.000 A 
ATOM      6  C   UNL     1      47.321   5.704  14.396  0.00  0.00    +0.000 A 
ATOM      7  C   UNL     1      48.439   6.248  13.759  0.00  0.00    +0.000 A 
ENDROOT
BRANCH   6   8
ATOM      8  C   UNL     1      47.386   5.144  15.815  0.00  0.00    +0.000 C 
ATOM      9  C   UNL     1      48.535   5.700  16.683  0.00  0.00    +0.000 C 
ATOM     10  C   UNL     1      49.742   4.780  16.865  0.00  0.00    +0.000 C 
ATOM     11  N   UNL     1      49.356   3.400  17.138  0.00  0.00    +0.000 NA
ATOM     12  C   UNL     1      48.600   2.872  16.007  0.00  0.00    +0.000 C 
ATOM     13  C   UNL     1      47.273   3.605  15.841  0.00  0.00    +0.000 C 
ATOM     14  H   UNL     1      48.784   3.362  17.984  0.00  0.00    +0.000 HD
ENDBRANCH   6   8
BRANCH   4  15
ATOM     15  C   UNL     1      44.722   5.925  11.545  0.00  0.00    +0.000 C 
BRANCH  15  16
ATOM     16  N   UNL     1      44.989   5.758  10.127  0.00  0.00    +0.000 N 
ATOM     17  C   UNL     1      45.111   4.480   9.598  0.00  0.00    +0.000 A 
ATOM     18  C   UNL     1      44.390   3.370  10.040  0.00  0.00    +0.000 A 
ATOM     19  N   UNL     1      44.478   2.135   9.484  0.00  0.00    +0.000 NA
ATOM     20  C   UNL     1      45.303   2.041   8.414  0.00  0.00    +0.000 A 
ATOM     21  C   UNL     1      46.025   3.123   7.933  0.00  0.00    +0.000 A 
ATOM     22  N   UNL     1      45.940   4.354   8.537  0.00  0.00    +0.000 NA
ATOM     23  H   UNL     1      45.731   6.339   9.746  0.00  0.00    +0.000 HD
BRANCH  21  24
ATOM     24  C   UNL     1      46.883   2.929   6.701  0.00  0.00    +0.000 C 
ATOM     25  F   UNL     1      46.669   1.728   6.080  0.00  0.00    +0.000 F 
ATOM     26  F   UNL     1      46.661   3.870   5.738  0.00  0.00    +0.000 F 
ATOM     27  F   UNL     1      48.221   2.960   6.962  0.00  0.00    +0.000 F 
ENDBRANCH  21  24
ENDBRANCH  15  16
ENDBRANCH   4  15
TORSDOF 4
ENDMDL
MODEL 5
REMARK VINA RESULT:    -6.766      4.165      8.082
REMARK INTER + INTRA:          -9.081
REMARK INTER:                  -8.473
REMARK INTRA:                  -0.608
REMARK UNBOUND:                -0.733
REMARK  Name = 
REMARK  4 active torsions:
REMARK  status: ('A' for Active; 'I' for Inactive)
REMARK    1  A    between atoms: C_4  and  C_5
REMARK    2  A    between atoms: C_5  and  N_6
REMARK    3  A    between atoms: C_11  and  C_12
REMARK    4  A    between atoms: C_18  and  C_19
REMARK                            x       y       z     vdW  Elec       q    Type
REMARK                         _______ _______ _______ _____ _____    ______ ____
ROOT
ATOM      1  F   UNL     1      44.581  10.251  11.196  0.00  0.00    +0.000 F 
ATOM      2  C   UNL     1      44.890   8.992  11.534  0.00  0.00    +0.000 A 
ATOM      3  C   UNL     1      46.041   8.758  12.282  0.00  0.00    +0.000 A 
ATOM      4  C   UNL     1      46.366   7.455  12.672  0.00  0.00    +0.000 A 
ATOM      5  C   UNL     1      45.517   6.405  12.263  0.00  0.00    +0.000 A 
ATOM      6  C   UNL     1      44.341   6.639  11.508  0.00  0.00    +0.000 A 
ATOM      7  C   UNL     1      44.040   7.956  11.152  0.00  0.00    +0.000 A 
ENDROOT
BRANCH   6   8
ATOM      8  C   UNL     1      43.424   5.470  11.156  0.00  0.00    +0.000 C 
ATOM      9  C   UNL     1      42.911   4.658  12.365  0.00  0.00    +0.000 C 
ATOM     10  C   UNL     1      43.599   3.315  12.610  0.00  0.00    +0.000 C 
ATOM     11  N   UNL     1      43.798   2.557  11.379  0.00  0.00    +0.000 NA
ATOM     12  C   UNL     1      44.666   3.309  10.478  0.00  0.00    +0.000 C 
ATOM     13  C   UNL     1      43.996   4.600  10.018  0.00  0.00    +0.000 C 
ATOM     14  H   UNL     1      42.897   2.387  10.929  0.00  0.00    +0.000 HD
ENDBRANCH   6   8
BRANCH   4  15
ATOM     15  C   UNL     1      47.579   7.195  13.544  0.00  0.00    +0.000 C 
BRANCH  15  16
ATOM     16  N   UNL     1      47.307   6.166  14.531  0.00  0.00    +0.000 N 
ATOM     17  C   UNL     1      48.263   5.868  15.493  0.00  0.00    +0.000 A 
ATOM     18  C   UNL     1      49.128   6.804  16.064  0.00  0.00    +0.000 A 
ATOM     19  N   UNL     1      50.025   6.514  17.040  0.00  0.00    +0.000 NA
ATOM     20  C   UNL     1      50.012   5.232  17.474  0.00  0.00    +0.000 A 
ATOM     21  C   UNL     1      49.158   4.274  16.945  0.00  0.00    +0.000 A 
ATOM     22  N   UNL     1      48.283   4.590  15.934  0.00  0.00    +0.000 NA
ATOM     23  H   UNL     1      46.929   5.295  14.169  0.00  0.00    +0.000 HD
BRANCH  21  24
ATOM     24  C   UNL     1      49.185   2.879  17.531  0.00  0.00    +0.000 C 
ATOM     25  F   UNL     1      48.840   1.910  16.629  0.00  0.00    +0.000 F 
ATOM     26  F   UNL     1      50.416   2.514  17.991  0.00  0.00    +0.000 F 
ATOM     27  F   UNL     1      48.324   2.715  18.576  0.00  0.00    +0.000 F 
ENDBRANCH  21  24
ENDBRANCH  15  16
ENDBRANCH   4  15
TORSDOF 4
ENDMDL
MODEL 6
REMARK VINA RESULT:    -6.648      4.586      6.353
REMARK INTER + INTRA:          -8.935
REMARK INTER:                  -8.229
REMARK INTRA:                  -0.707
REMARK UNBOUND:                -0.733
REMARK  Name = 
REMARK  4 active torsions:
REMARK  status: ('A' for Active; 'I' for Inactive)
REMARK    1  A    between atoms: C_4  and  C_5
REMARK    2  A    between atoms: C_5  and  N_6
REMARK    3  A    between atoms: C_11  and  C_12
REMARK    4  A    between atoms: C_18  and  C_19
REMARK                            x       y       z     vdW  Elec       q    Type
REMARK                         _______ _______ _______ _____ _____    ______ ____
ROOT
ATOM      1  F   UNL     1      49.033  10.074  17.601  0.00  0.00    +0.000 F 
ATOM      2  C   UNL     1      49.013   8.841  17.078  0.00  0.00    +0.000 A 
ATOM      3  C   UNL     1      48.581   8.671  15.765  0.00  0.00    +0.000 A 
ATOM      4  C   UNL     1      48.581   7.397  15.190  0.00  0.00    +0.000 A 
ATOM      5  C   UNL     1      49.001   6.308  15.982  0.00  0.00    +0.000 A 
ATOM      6  C   UNL     1      49.449   6.476  17.316  0.00  0.00    +0.000 A 
ATOM      7  C   UNL     1      49.450   7.766  17.851  0.00  0.00    +0.000 A 
ENDROOT
BRANCH   6   8
ATOM      8  C   UNL     1      49.958   5.269  18.100  0.00  0.00    +0.000 C 
ATOM      9  C   UNL     1      49.451   3.901  17.593  0.00  0.00    +0.000 C 
ATOM     10  C   UNL     1      48.333   3.256  18.412  0.00  0.00    +0.000 C 
ATOM     11  N   UNL     1      48.570   3.348  19.849  0.00  0.00    +0.000 NA
ATOM     12  C   UNL     1      48.617   4.751  20.247  0.00  0.00    +0.000 C 
ATOM     13  C   UNL     1      49.816   5.460  19.625  0.00  0.00    +0.000 C 
ATOM     14  H   UNL     1      49.453   2.892  20.084  0.00  0.00    +0.000 HD
ENDBRANCH   6   8
BRANCH   4  15
ATOM     15  C   UNL     1      48.179   7.209  13.741  0.00  0.00    +0.000 C 
BRANCH  15  16
ATOM     16  N   UNL     1      46.745   7.021  13.612  0.00  0.00    +0.000 N 
ATOM     17  C   UNL     1      46.248   5.786  13.218  0.00  0.00    +0.000 A 
ATOM     18  C   UNL     1      46.821   4.559  13.556  0.00  0.00    +0.000 A 
ATOM     19  N   UNL     1      46.300   3.354  13.209  0.00  0.00    +0.000 NA
ATOM     20  C   UNL     1      45.133   3.406  12.525  0.00  0.00    +0.000 A 
ATOM     21  C   UNL     1      44.522   4.603  12.182  0.00  0.00    +0.000 A 
ATOM     22  N   UNL     1      45.090   5.808  12.520  0.00  0.00    +0.000 NA
ATOM     23  H   UNL     1      46.247   7.747  13.105  0.00  0.00    +0.000 HD
BRANCH  21  24
ATOM     24  C   UNL     1      43.193   4.555  11.460  0.00  0.00    +0.000 C 
ATOM     25  F   UNL     1      42.217   5.290  12.078  0.00  0.00    +0.000 F 
ATOM     26  F   UNL     1      43.254   5.047  10.189  0.00  0.00    +0.000 F 
ATOM     27  F   UNL     1      42.678   3.297  11.356  0.00  0.00    +0.000 F 
ENDBRANCH  21  24
ENDBRANCH  15  16
ENDBRANCH   4  15
TORSDOF 4
ENDMDL
MODEL 7
REMARK VINA RESULT:    -6.594      4.358      5.845
REMARK INTER + INTRA:          -8.869
REMARK INTER:                  -8.259
REMARK INTRA:                  -0.609
REMARK UNBOUND:                -0.733
REMARK  Name = 
REMARK  4 active torsions:
REMARK  status: ('A' for Active; 'I' for Inactive)
REMARK    1  A    between atoms: C_4  and  C_5
REMARK    2  A    between atoms: C_5  and  N_6
REMARK    3  A    between atoms: C_11  and  C_12
REMARK    4  A    between atoms: C_18  and  C_19
REMARK                            x       y       z     vdW  Elec       q    Type
REMARK                         _______ _______ _______ _____ _____    ______ ____
ROOT
ATOM      1  F   UNL     1      50.804   1.109  17.580  0.00  0.00    +0.000 F 
ATOM      2  C   UNL     1      50.383   2.363  17.369  0.00  0.00    +0.000 A 
ATOM      3  C   UNL     1      49.111   2.569  16.843  0.00  0.00    +0.000 A 
ATOM      4  C   UNL     1      48.641   3.871  16.643  0.00  0.00    +0.000 A 
ATOM      5  C   UNL     1      49.496   4.945  16.962  0.00  0.00    +0.000 A 
ATOM      6  C   UNL     1      50.789   4.741  17.505  0.00  0.00    +0.000 A 
ATOM      7  C   UNL     1      51.219   3.427  17.707  0.00  0.00    +0.000 A 
ENDROOT
BRANCH   6   8
ATOM      8  C   UNL     1      51.643   5.945  17.898  0.00  0.00    +0.000 C 
ATOM      9  C   UNL     1      50.854   7.249  18.150  0.00  0.00    +0.000 C 
ATOM     10  C   UNL     1      50.902   8.288  17.030  0.00  0.00    +0.000 C 
ATOM     11  N   UNL     1      52.244   8.458  16.484  0.00  0.00    +0.000 NA
ATOM     12  C   UNL     1      52.697   7.199  15.900  0.00  0.00    +0.000 C 
ATOM     13  C   UNL     1      52.862   6.124  16.970  0.00  0.00    +0.000 C 
ATOM     14  H   UNL     1      52.885   8.745  17.225  0.00  0.00    +0.000 HD
ENDBRANCH   6   8
BRANCH   4  15
ATOM     15  C   UNL     1      47.232   4.108  16.135  0.00  0.00    +0.000 C 
BRANCH  15  16
ATOM     16  N   UNL     1      47.014   3.452  14.859  0.00  0.00    +0.000 N 
ATOM     17  C   UNL     1      46.421   4.155  13.819  0.00  0.00    +0.000 A 
ATOM     18  C   UNL     1      46.599   5.519  13.584  0.00  0.00    +0.000 A 
ATOM     19  N   UNL     1      46.055   6.188  12.535  0.00  0.00    +0.000 NA
ATOM     20  C   UNL     1      45.336   5.428  11.676  0.00  0.00    +0.000 A 
ATOM     21  C   UNL     1      45.147   4.066  11.864  0.00  0.00    +0.000 A 
ATOM     22  N   UNL     1      45.683   3.423  12.953  0.00  0.00    +0.000 NA
ATOM     23  H   UNL     1      46.598   2.526  14.903  0.00  0.00    +0.000 HD
BRANCH  21  24
ATOM     24  C   UNL     1      44.367   3.294  10.822  0.00  0.00    +0.000 C 
ATOM     25  F   UNL     1      43.787   4.099   9.879  0.00  0.00    +0.000 F 
ATOM     26  F   UNL     1      45.138   2.419  10.114  0.00  0.00    +0.000 F 
ATOM     27  F   UNL     1      43.342   2.562  11.344  0.00  0.00    +0.000 F 
ENDBRANCH  21  24
ENDBRANCH  15  16
ENDBRANCH   4  15
TORSDOF 4
ENDMDL
MODEL 8
REMARK VINA RESULT:    -6.578      2.912      4.031
REMARK INTER + INTRA:          -8.849
REMARK INTER:                  -8.143
REMARK INTRA:                  -0.706
REMARK UNBOUND:                -0.733
REMARK  Name = 
REMARK  4 active torsions:
REMARK  status: ('A' for Active; 'I' for Inactive)
REMARK    1  A    between atoms: C_4  and  C_5
REMARK    2  A    between atoms: C_5  and  N_6
REMARK    3  A    between atoms: C_11  and  C_12
REMARK    4  A    between atoms: C_18  and  C_19
REMARK                            x       y       z     vdW  Elec       q    Type
REMARK                         _______ _______ _______ _____ _____    ______ ____
ROOT
ATOM      1  F   UNL     1      50.135   7.395  10.986  0.00  0.00    +0.000 F 
ATOM      2  C   UNL     1      49.300   7.480  12.030  0.00  0.00    +0.000 A 
ATOM      3  C   UNL     1      47.927   7.441  11.803  0.00  0.00    +0.000 A 
ATOM      4  C   UNL     1      47.039   7.497  12.881  0.00  0.00    +0.000 A 
ATOM      5  C   UNL     1      47.574   7.621  14.180  0.00  0.00    +0.000 A 
ATOM      6  C   UNL     1      48.971   7.654  14.418  0.00  0.00    +0.000 A 
ATOM      7  C   UNL     1      49.828   7.578  13.318  0.00  0.00    +0.000 A 
ENDROOT
BRANCH   6   8
ATOM      8  C   UNL     1      49.492   7.717  15.852  0.00  0.00    +0.000 C 
ATOM      9  C   UNL     1      51.030   7.707  15.987  0.00  0.00    +0.000 C 
ATOM     10  C   UNL     1      51.657   6.379  16.412  0.00  0.00    +0.000 C 
ATOM     11  N   UNL     1      50.924   5.739  17.499  0.00  0.00    +0.000 NA
ATOM     12  C   UNL     1      49.566   5.434  17.059  0.00  0.00    +0.000 C 
ATOM     13  C   UNL     1      48.779   6.710  16.778  0.00  0.00    +0.000 C 
ATOM     14  H   UNL     1      50.893   6.361  18.309  0.00  0.00    +0.000 HD
ENDBRANCH   6   8
BRANCH   4  15
ATOM     15  C   UNL     1      45.545   7.387  12.651  0.00  0.00    +0.000 C 
BRANCH  15  16
ATOM     16  N   UNL     1      45.253   6.742  11.383  0.00  0.00    +0.000 N 
ATOM     17  C   UNL     1      44.765   5.442  11.370  0.00  0.00    +0.000 A 
ATOM     18  C   UNL     1      43.911   4.909  12.338  0.00  0.00    +0.000 A 
ATOM     19  N   UNL     1      43.398   3.654  12.291  0.00  0.00    +0.000 NA
ATOM     20  C   UNL     1      43.739   2.931  11.198  0.00  0.00    +0.000 A 
ATOM     21  C   UNL     1      44.573   3.428  10.206  0.00  0.00    +0.000 A 
ATOM     22  N   UNL     1      45.103   4.692  10.297  0.00  0.00    +0.000 NA
ATOM     23  H   UNL     1      45.972   6.825  10.669  0.00  0.00    +0.000 HD
BRANCH  21  24
ATOM     24  C   UNL     1      44.856   2.560   8.999  0.00  0.00    +0.000 C 
ATOM     25  F   UNL     1      46.164   2.167   8.913  0.00  0.00    +0.000 F 
ATOM     26  F   UNL     1      44.137   1.400   8.991  0.00  0.00    +0.000 F 
ATOM     27  F   UNL     1      44.592   3.179   7.813  0.00  0.00    +0.000 F 
ENDBRANCH  21  24
ENDBRANCH  15  16
ENDBRANCH   4  15
TORSDOF 4
ENDMDL
MODEL 9
REMARK VINA RESULT:    -6.310      5.306      6.681
REMARK INTER + INTRA:          -8.519
REMARK INTER:                  -7.912
REMARK INTRA:                  -0.607
REMARK UNBOUND:                -0.733
REMARK  Name = 
REMARK  4 active torsions:
REMARK  status: ('A' for Active; 'I' for Inactive)
REMARK    1  A    between atoms: C_4  and  C_5
REMARK    2  A    between atoms: C_5  and  N_6
REMARK    3  A    between atoms: C_11  and  C_12
REMARK    4  A    between atoms: C_18  and  C_19
REMARK                            x       y       z     vdW  Elec       q    Type
REMARK                         _______ _______ _______ _____ _____    ______ ____
ROOT
ATOM      1  F   UNL     1      51.181   1.003  17.419  0.00  0.00    +0.000 F 
ATOM      2  C   UNL     1      50.732   2.264  17.365  0.00  0.00    +0.000 A 
ATOM      3  C   UNL     1      49.421   2.498  16.960  0.00  0.00    +0.000 A 
ATOM      4  C   UNL     1      48.923   3.804  16.926  0.00  0.00    +0.000 A 
ATOM      5  C   UNL     1      49.789   4.857  17.284  0.00  0.00    +0.000 A 
ATOM      6  C   UNL     1      51.122   4.625  17.705  0.00  0.00    +0.000 A 
ATOM      7  C   UNL     1      51.580   3.306  17.742  0.00  0.00    +0.000 A 
ENDROOT
BRANCH   6   8
ATOM      8  C   UNL     1      51.991   5.800  18.149  0.00  0.00    +0.000 C 
ATOM      9  C   UNL     1      53.448   5.434  18.508  0.00  0.00    +0.000 C 
ATOM     10  C   UNL     1      53.771   5.356  20.000  0.00  0.00    +0.000 C 
ATOM     11  N   UNL     1      53.194   6.464  20.753  0.00  0.00    +0.000 NA
ATOM     12  C   UNL     1      51.740   6.426  20.643  0.00  0.00    +0.000 C 
ATOM     13  C   UNL     1      51.290   6.677  19.207  0.00  0.00    +0.000 C 
ATOM     14  H   UNL     1      53.545   7.351  20.388  0.00  0.00    +0.000 HD
ENDBRANCH   6   8
BRANCH   4  15
ATOM     15  C   UNL     1      47.477   4.064  16.552  0.00  0.00    +0.000 C 
BRANCH  15  16
ATOM     16  N   UNL     1      47.124   3.393  15.314  0.00  0.00    +0.000 N 
ATOM     17  C   UNL     1      46.695   4.143  14.226  0.00  0.00    +0.000 A 
ATOM     18  C   UNL     1      47.162   5.420  13.913  0.00  0.00    +0.000 A 
ATOM     19  N   UNL     1      46.775   6.125  12.820  0.00  0.00    +0.000 NA
ATOM     20  C   UNL     1      45.909   5.486  11.998  0.00  0.00    +0.000 A 
ATOM     21  C   UNL     1      45.433   4.211  12.263  0.00  0.00    +0.000 A 
ATOM     22  N   UNL     1      45.818   3.534  13.396  0.00  0.00    +0.000 NA
ATOM     23  H   UNL     1      46.518   2.582  15.407  0.00  0.00    +0.000 HD
BRANCH  21  24
ATOM     24  C   UNL     1      44.506   3.562  11.258  0.00  0.00    +0.000 C 
ATOM     25  F   UNL     1      43.635   2.671  11.825  0.00  0.00    +0.000 F 
ATOM     26  F   UNL     1      43.716   4.458  10.599  0.00  0.00    +0.000 F 
ATOM     27  F   UNL     1      45.162   2.853  10.295  0.00  0.00    +0.000 F 
ENDBRANCH  21  24
ENDBRANCH  15  16
ENDBRANCH   4  15
TORSDOF 4
ENDMDL
