MODEL 1
REMARK VINA RESULT:    -8.828      0.000      0.000
REMARK INTER + INTRA:         -11.285
REMARK INTER:                 -10.892
REMARK INTRA:                  -0.393
REMARK UNBOUND:                -0.393
REMARK  Name = 
REMARK  4 active torsions:
REMARK  status: ('A' for Active; 'I' for Inactive)
REMARK    1  A    between atoms: C_2  and  C_4
REMARK    2  A    between atoms: N_8  and  C_9
REMARK    3  A    between atoms: C_9  and  C_10
REMARK    4  A    between atoms: C_12  and  C_13
REMARK                            x       y       z     vdW  Elec       q    Type
REMARK                         _______ _______ _______ _____ _____    ______ ____
ROOT
ATOM      1  C   UNL     1      43.450   3.724  11.102  0.00  0.00    +0.000 C 
ENDROOT
BRANCH   1   6
ATOM      2  C   UNL     1      46.638   2.515   7.223  0.00  0.00    +0.000 A 
ATOM      3  C   UNL     1      46.121   3.744   7.615  0.00  0.00    +0.000 A 
ATOM      4  C   UNL     1      45.282   3.803   8.729  0.00  0.00    +0.000 A 
ATOM      5  C   UNL     1      44.976   2.643   9.431  0.00  0.00    +0.000 A 
ATOM      6  N   UNL     1      44.170   2.612  10.532  0.00  0.00    +0.000 N 
ATOM      7  N   UNL     1      45.464   1.446   9.050  0.00  0.00    +0.000 NA
ATOM      8  C   UNL     1      46.269   1.399   7.954  0.00  0.00    +0.000 A 
ATOM      9  H   UNL     1      44.067   1.689  10.933  0.00  0.00    +0.000 HD
BRANCH   2  11
ATOM     10  N   UNL     1      47.453   3.319   5.086  0.00  0.00    +0.000 N 
ATOM     11  C   UNL     1      47.535   2.364   6.062  0.00  0.00    +0.000 C 
ATOM     12  O   UNL     1      48.341   1.446   5.989  0.00  0.00    +0.000 OA
ATOM     13  H   UNL     1      48.142   3.266   4.345  0.00  0.00    +0.000 HD
ATOM     14  H   UNL     1      46.984   4.202   5.222  0.00  0.00    +0.000 HD
ENDBRANCH   2  11
ENDBRANCH   1   6
BRANCH   1  15
ATOM     15  C   UNL     1      44.392   4.711  11.736  0.00  0.00    +0.000 A 
ATOM     16  C   UNL     1      44.268   6.089  11.478  0.00  0.00    +0.000 A 
ATOM     17  C   UNL     1      45.146   7.040  12.038  0.00  0.00    +0.000 A 
ATOM     18  C   UNL     1      46.166   6.556  12.879  0.00  0.00    +0.000 A 
ATOM     19  C   UNL     1      46.305   5.190  13.141  0.00  0.00    +0.000 A 
ATOM     20  C   UNL     1      45.422   4.284  12.571  0.00  0.00    +0.000 A 
ATOM     21  F   UNL     1      45.579   2.978  12.835  0.00  0.00    +0.000 F 
BRANCH  17  22
ATOM     22  C   UNL     1      45.008   8.482  11.738  0.00  0.00    +0.000 A 
ATOM     23  C   UNL     1      43.931   8.998  10.999  0.00  0.00    +0.000 A 
ATOM     24  C   UNL     1      43.842  10.362  10.722  0.00  0.00    +0.000 A 
ATOM     25  C   UNL     1      44.834  11.196  11.202  0.00  0.00    +0.000 A 
ATOM     26  N   UNL     1      45.888  10.760  11.920  0.00  0.00    +0.000 NA
ATOM     27  C   UNL     1      45.948   9.427  12.161  0.00  0.00    +0.000 A 
ENDBRANCH  17  22
ENDBRANCH   1  15
TORSDOF 4
ENDMDL
MODEL 2
REMARK VINA RESULT:    -8.679      2.334      3.941
REMARK INTER + INTRA:         -11.101
REMARK INTER:                 -10.529
REMARK INTRA:                  -0.572
REMARK UNBOUND:                -0.393
REMARK  Name = 
REMARK  4 active torsions:
REMARK  status: ('A' for Active; 'I' for Inactive)
REMARK    1  A    between atoms: C_2  and  C_4
REMARK    2  A    between atoms: N_8  and  C_9
REMARK    3  A    between atoms: C_9  and  C_10
REMARK    4  A    between atoms: C_12  and  C_13
REMARK                            x       y       z     vdW  Elec       q    Type
REMARK                         _______ _______ _______ _____ _____    ______ ____
ROOT
ATOM      1  C   UNL     1      43.395   3.292  11.298  0.00  0.00    +0.000 C 
ENDROOT
BRANCH   1   6
ATOM      2  C   UNL     1      46.514   2.712   7.224  0.00  0.00    +0.000 A 
ATOM      3  C   UNL     1      45.817   3.827   7.673  0.00  0.00    +0.000 A 
ATOM      4  C   UNL     1      45.046   3.722   8.832  0.00  0.00    +0.000 A 
ATOM      5  C   UNL     1      44.986   2.517   9.521  0.00  0.00    +0.000 A 
ATOM      6  N   UNL     1      44.262   2.330  10.664  0.00  0.00    +0.000 N 
ATOM      7  N   UNL     1      45.651   1.428   9.086  0.00  0.00    +0.000 NA
ATOM      8  C   UNL     1      46.387   1.538   7.947  0.00  0.00    +0.000 A 
ATOM      9  H   UNL     1      44.344   1.398  11.048  0.00  0.00    +0.000 HD
BRANCH   2  11
ATOM     10  N   UNL     1      48.693   2.501   6.181  0.00  0.00    +0.000 N 
ATOM     11  C   UNL     1      47.356   2.735   6.012  0.00  0.00    +0.000 C 
ATOM     12  O   UNL     1      46.877   2.922   4.902  0.00  0.00    +0.000 OA
ATOM     13  H   UNL     1      49.246   2.417   5.336  0.00  0.00    +0.000 HD
ATOM     14  H   UNL     1      49.078   2.113   7.029  0.00  0.00    +0.000 HD
ENDBRANCH   2  11
ENDBRANCH   1   6
BRANCH   1  15
ATOM     15  C   UNL     1      44.182   4.456  11.839  0.00  0.00    +0.000 A 
ATOM     16  C   UNL     1      45.142   4.264  12.851  0.00  0.00    +0.000 A 
ATOM     17  C   UNL     1      45.881   5.334  13.396  0.00  0.00    +0.000 A 
ATOM     18  C   UNL     1      45.624   6.620  12.884  0.00  0.00    +0.000 A 
ATOM     19  C   UNL     1      44.671   6.827  11.883  0.00  0.00    +0.000 A 
ATOM     20  C   UNL     1      43.962   5.748  11.371  0.00  0.00    +0.000 A 
ATOM     21  F   UNL     1      43.050   5.974  10.414  0.00  0.00    +0.000 F 
BRANCH  17  22
ATOM     22  C   UNL     1      46.872   5.112  14.472  0.00  0.00    +0.000 A 
ATOM     23  C   UNL     1      46.820   3.998  15.326  0.00  0.00    +0.000 A 
ATOM     24  C   UNL     1      47.763   3.830  16.340  0.00  0.00    +0.000 A 
ATOM     25  C   UNL     1      48.756   4.781  16.478  0.00  0.00    +0.000 A 
ATOM     26  N   UNL     1      48.860   5.867  15.687  0.00  0.00    +0.000 NA
ATOM     27  C   UNL     1      47.921   6.004  14.718  0.00  0.00    +0.000 A 
ENDBRANCH  17  22
ENDBRANCH   1  15
TORSDOF 4
ENDMDL
MODEL 3
REMARK VINA RESULT:    -8.556      1.774      2.393
REMARK INTER + INTRA:         -10.949
REMARK INTER:                 -10.220
REMARK INTRA:                  -0.730
REMARK UNBOUND:                -0.393
REMARK  Name = 
REMARK  4 active torsions:
REMARK  status: ('A' for Active; 'I' for Inactive)
REMARK    1  A    between atoms: C_2  and  C_4
REMARK    2  A    between atoms: N_8  and  C_9
REMARK    3  A    between atoms: C_9  and  C_10
REMARK    4  A    between atoms: C_12  and  C_13
REMARK                            x       y       z     vdW  Elec       q    Type
REMARK                         _______ _______ _______ _____ _____    ______ ____
ROOT
ATOM      1  C   UNL     1      43.424   4.884  10.816  0.00  0.00    +0.000 C 
ENDROOT
BRANCH   1   6
ATOM      2  C   UNL     1      46.328   2.161   7.526  0.00  0.00    +0.000 A 
ATOM      3  C   UNL     1      45.956   1.889   8.838  0.00  0.00    +0.000 A 
ATOM      4  C   UNL     1      45.135   2.795   9.511  0.00  0.00    +0.000 A 
ATOM      5  C   UNL     1      44.699   3.948   8.869  0.00  0.00    +0.000 A 
ATOM      6  N   UNL     1      43.891   4.882   9.452  0.00  0.00    +0.000 N 
ATOM      7  N   UNL     1      45.064   4.224   7.601  0.00  0.00    +0.000 NA
ATOM      8  C   UNL     1      45.876   3.341   6.960  0.00  0.00    +0.000 A 
ATOM      9  H   UNL     1      43.652   5.650   8.838  0.00  0.00    +0.000 HD
BRANCH   2  11
ATOM     10  N   UNL     1      48.226   1.826   6.055  0.00  0.00    +0.000 N 
ATOM     11  C   UNL     1      47.188   1.256   6.740  0.00  0.00    +0.000 C 
ATOM     12  O   UNL     1      47.003   0.046   6.727  0.00  0.00    +0.000 OA
ATOM     13  H   UNL     1      48.871   1.189   5.603  0.00  0.00    +0.000 HD
ATOM     14  H   UNL     1      48.548   2.766   6.232  0.00  0.00    +0.000 HD
ENDBRANCH   2  11
ENDBRANCH   1   6
BRANCH   1  15
ATOM     15  C   UNL     1      44.542   5.205  11.771  0.00  0.00    +0.000 A 
ATOM     16  C   UNL     1      45.368   6.324  11.556  0.00  0.00    +0.000 A 
ATOM     17  C   UNL     1      46.439   6.643  12.418  0.00  0.00    +0.000 A 
ATOM     18  C   UNL     1      46.654   5.791  13.518  0.00  0.00    +0.000 A 
ATOM     19  C   UNL     1      45.845   4.673  13.741  0.00  0.00    +0.000 A 
ATOM     20  C   UNL     1      44.801   4.391  12.870  0.00  0.00    +0.000 A 
ATOM     21  F   UNL     1      44.042   3.311  13.104  0.00  0.00    +0.000 F 
BRANCH  17  22
ATOM     22  C   UNL     1      47.306   7.814  12.163  0.00  0.00    +0.000 A 
ATOM     23  C   UNL     1      48.662   7.688  11.824  0.00  0.00    +0.000 A 
ATOM     24  C   UNL     1      49.454   8.816  11.607  0.00  0.00    +0.000 A 
ATOM     25  C   UNL     1      48.867  10.062  11.724  0.00  0.00    +0.000 A 
ATOM     26  N   UNL     1      47.571  10.246  12.042  0.00  0.00    +0.000 NA
ATOM     27  C   UNL     1      46.834   9.128  12.257  0.00  0.00    +0.000 A 
ENDBRANCH  17  22
ENDBRANCH   1  15
TORSDOF 4
ENDMDL
MODEL 4
REMARK VINA RESULT:    -8.112      3.419      7.064
REMARK INTER + INTRA:         -10.402
REMARK INTER:                  -9.603
REMARK INTRA:                  -0.799
REMARK UNBOUND:                -0.393
REMARK  Name = 
REMARK  4 active torsions:
REMARK  status: ('A' for Active; 'I' for Inactive)
REMARK    1  A    between atoms: C_2  and  C_4
REMARK    2  A    between atoms: N_8  and  C_9
REMARK    3  A    between atoms: C_9  and  C_10
REMARK    4  A    between atoms: C_12  and  C_13
REMARK                            x       y       z     vdW  Elec       q    Type
REMARK                         _______ _______ _______ _____ _____    ______ ____
ROOT
ATOM      1  C   UNL     1      44.622   6.475  12.018  0.00  0.00    +0.000 C 
ENDROOT
BRANCH   1   6
ATOM      2  C   UNL     1      49.534   7.835  12.853  0.00  0.00    +0.000 A 
ATOM      3  C   UNL     1      48.741   7.972  11.719  0.00  0.00    +0.000 A 
ATOM      4  C   UNL     1      47.417   7.533  11.762  0.00  0.00    +0.000 A 
ATOM      5  C   UNL     1      46.908   6.970  12.926  0.00  0.00    +0.000 A 
ATOM      6  N   UNL     1      45.624   6.519  13.054  0.00  0.00    +0.000 N 
ATOM      7  N   UNL     1      47.673   6.823  14.025  0.00  0.00    +0.000 NA
ATOM      8  C   UNL     1      48.967   7.242  13.968  0.00  0.00    +0.000 A 
ATOM      9  H   UNL     1      45.413   6.157  13.973  0.00  0.00    +0.000 HD
BRANCH   2  11
ATOM     10  N   UNL     1      51.706   7.807  13.929  0.00  0.00    +0.000 N 
ATOM     11  C   UNL     1      50.941   8.277  12.897  0.00  0.00    +0.000 C 
ATOM     12  O   UNL     1      51.412   9.004  12.032  0.00  0.00    +0.000 OA
ATOM     13  H   UNL     1      52.694   8.031  13.894  0.00  0.00    +0.000 HD
ATOM     14  H   UNL     1      51.425   7.032  14.510  0.00  0.00    +0.000 HD
ENDBRANCH   2  11
ENDBRANCH   1   6
BRANCH   1  15
ATOM     15  C   UNL     1      44.441   5.073  11.500  0.00  0.00    +0.000 A 
ATOM     16  C   UNL     1      45.137   4.636  10.357  0.00  0.00    +0.000 A 
ATOM     17  C   UNL     1      44.975   3.337   9.831  0.00  0.00    +0.000 A 
ATOM     18  C   UNL     1      44.082   2.480  10.500  0.00  0.00    +0.000 A 
ATOM     19  C   UNL     1      43.379   2.901  11.633  0.00  0.00    +0.000 A 
ATOM     20  C   UNL     1      43.565   4.188  12.121  0.00  0.00    +0.000 A 
ATOM     21  F   UNL     1      42.876   4.570  13.207  0.00  0.00    +0.000 F 
BRANCH  17  22
ATOM     22  C   UNL     1      45.703   2.905   8.618  0.00  0.00    +0.000 A 
ATOM     23  C   UNL     1      46.061   3.798   7.595  0.00  0.00    +0.000 A 
ATOM     24  C   UNL     1      46.733   3.350   6.458  0.00  0.00    +0.000 A 
ATOM     25  C   UNL     1      47.049   2.008   6.367  0.00  0.00    +0.000 A 
ATOM     26  N   UNL     1      46.736   1.105   7.317  0.00  0.00    +0.000 NA
ATOM     27  C   UNL     1      46.073   1.573   8.404  0.00  0.00    +0.000 A 
ENDBRANCH  17  22
ENDBRANCH   1  15
TORSDOF 4
ENDMDL
MODEL 5
REMARK VINA RESULT:    -7.529      4.593      7.955
REMARK INTER + INTRA:          -9.682
REMARK INTER:                  -9.149
REMARK INTRA:                  -0.533
REMARK UNBOUND:                -0.393
REMARK  Name = 
REMARK  4 active torsions:
REMARK  status: ('A' for Active; 'I' for Inactive)
REMARK    1  A    between atoms: C_2  and  C_4
REMARK    2  A    between atoms: N_8  and  C_9
REMARK    3  A    between atoms: C_9  and  C_10
REMARK    4  A    between atoms: C_12  and  C_13
REMARK                            x       y       z     vdW  Elec       q    Type
REMARK                         _______ _______ _______ _____ _____    ______ ____
ROOT
ATOM      1  C   UNL     1      45.888   5.483  13.570  0.00  0.00    +0.000 C 
ENDROOT
BRANCH   1   6
ATOM      2  C   UNL     1      49.137   4.289  17.402  0.00  0.00    +0.000 A 
ATOM      3  C   UNL     1      48.984   5.469  16.685  0.00  0.00    +0.000 A 
ATOM      4  C   UNL     1      48.002   5.540  15.696  0.00  0.00    +0.000 A 
ATOM      5  C   UNL     1      47.192   4.440  15.441  0.00  0.00    +0.000 A 
ATOM      6  N   UNL     1      46.205   4.425  14.497  0.00  0.00    +0.000 N 
ATOM      7  N   UNL     1      47.341   3.288  16.125  0.00  0.00    +0.000 NA
ATOM      8  C   UNL     1      48.311   3.226  17.077  0.00  0.00    +0.000 A 
ATOM      9  H   UNL     1      45.698   3.552  14.455  0.00  0.00    +0.000 HD
BRANCH   2  11
ATOM     10  N   UNL     1      49.700   4.203  19.759  0.00  0.00    +0.000 N 
ATOM     11  C   UNL     1      50.145   4.130  18.467  0.00  0.00    +0.000 C 
ATOM     12  O   UNL     1      51.321   3.909  18.210  0.00  0.00    +0.000 OA
ATOM     13  H   UNL     1      50.378   3.991  20.481  0.00  0.00    +0.000 HD
ATOM     14  H   UNL     1      48.723   4.143  20.005  0.00  0.00    +0.000 HD
ENDBRANCH   2  11
ENDBRANCH   1   6
BRANCH   1  15
ATOM     15  C   UNL     1      45.045   4.972  12.433  0.00  0.00    +0.000 A 
ATOM     16  C   UNL     1      45.648   4.437  11.279  0.00  0.00    +0.000 A 
ATOM     17  C   UNL     1      44.890   3.969  10.185  0.00  0.00    +0.000 A 
ATOM     18  C   UNL     1      43.489   4.055  10.290  0.00  0.00    +0.000 A 
ATOM     19  C   UNL     1      42.876   4.589  11.427  0.00  0.00    +0.000 A 
ATOM     20  C   UNL     1      43.656   5.040  12.484  0.00  0.00    +0.000 A 
ATOM     21  F   UNL     1      43.044   5.552  13.562  0.00  0.00    +0.000 F 
BRANCH  17  22
ATOM     22  C   UNL     1      45.545   3.426   8.974  0.00  0.00    +0.000 A 
ATOM     23  C   UNL     1      45.793   2.055   8.803  0.00  0.00    +0.000 A 
ATOM     24  C   UNL     1      46.428   1.581   7.655  0.00  0.00    +0.000 A 
ATOM     25  C   UNL     1      46.797   2.493   6.684  0.00  0.00    +0.000 A 
ATOM     26  N   UNL     1      46.583   3.819   6.791  0.00  0.00    +0.000 NA
ATOM     27  C   UNL     1      45.973   4.246   7.925  0.00  0.00    +0.000 A 
ENDBRANCH  17  22
ENDBRANCH   1  15
TORSDOF 4
ENDMDL
MODEL 6
REMARK VINA RESULT:    -7.462      3.240      6.825
REMARK INTER + INTRA:          -9.599
REMARK INTER:                  -8.987
REMARK INTRA:                  -0.612
REMARK UNBOUND:                -0.393
REMARK  Name = 
REMARK  4 active torsions:
REMARK  status: ('A' for Active; 'I' for Inactive)
REMARK    1  A    between atoms: C_2  and  C_4
REMARK    2  A    between atoms: N_8  and  C_9
REMARK    3  A    between atoms: C_9  and  C_10
REMARK    4  A    between atoms: C_12  and  C_13
REMARK                            x       y       z     vdW  Elec       q    Type
REMARK                         _______ _______ _______ _____ _____    ______ ____
ROOT
ATOM      1  C   UNL     1      45.667   4.535  13.734  0.00  0.00    +0.000 C 
ENDROOT
BRANCH   1   6
ATOM      2  C   UNL     1      48.562   8.471  12.061  0.00  0.00    +0.000 A 
ATOM      3  C   UNL     1      47.184   8.363  12.206  0.00  0.00    +0.000 A 
ATOM      4  C   UNL     1      46.645   7.177  12.706  0.00  0.00    +0.000 A 
ATOM      5  C   UNL     1      47.484   6.126  13.055  0.00  0.00    +0.000 A 
ATOM      6  N   UNL     1      47.041   4.935  13.556  0.00  0.00    +0.000 N 
ATOM      7  N   UNL     1      48.821   6.218  12.908  0.00  0.00    +0.000 NA
ATOM      8  C   UNL     1      49.333   7.374  12.405  0.00  0.00    +0.000 A 
ATOM      9  H   UNL     1      47.785   4.286  13.776  0.00  0.00    +0.000 HD
BRANCH   2  11
ATOM     10  N   UNL     1      50.580   9.679  11.474  0.00  0.00    +0.000 N 
ATOM     11  C   UNL     1      49.214   9.690  11.545  0.00  0.00    +0.000 C 
ATOM     12  O   UNL     1      48.564  10.654  11.166  0.00  0.00    +0.000 OA
ATOM     13  H   UNL     1      51.014  10.476  11.024  0.00  0.00    +0.000 HD
ATOM     14  H   UNL     1      51.126   8.833  11.548  0.00  0.00    +0.000 HD
ENDBRANCH   2  11
ENDBRANCH   1   6
BRANCH   1  15
ATOM     15  C   UNL     1      44.946   4.472  12.415  0.00  0.00    +0.000 A 
ATOM     16  C   UNL     1      45.552   3.872  11.295  0.00  0.00    +0.000 A 
ATOM     17  C   UNL     1      44.915   3.814  10.038  0.00  0.00    +0.000 A 
ATOM     18  C   UNL     1      43.631   4.384   9.942  0.00  0.00    +0.000 A 
ATOM     19  C   UNL     1      43.019   4.987  11.044  0.00  0.00    +0.000 A 
ATOM     20  C   UNL     1      43.678   5.026  12.265  0.00  0.00    +0.000 A 
ATOM     21  F   UNL     1      43.071   5.614  13.306  0.00  0.00    +0.000 F 
BRANCH  17  22
ATOM     22  C   UNL     1      45.578   3.195   8.870  0.00  0.00    +0.000 A 
ATOM     23  C   UNL     1      46.017   3.945   7.767  0.00  0.00    +0.000 A 
ATOM     24  C   UNL     1      46.624   3.324   6.675  0.00  0.00    +0.000 A 
ATOM     25  C   UNL     1      46.792   1.953   6.709  0.00  0.00    +0.000 A 
ATOM     26  N   UNL     1      46.396   1.182   7.740  0.00  0.00    +0.000 NA
ATOM     27  C   UNL     1      45.800   1.817   8.780  0.00  0.00    +0.000 A 
ENDBRANCH  17  22
ENDBRANCH   1  15
TORSDOF 4
ENDMDL
MODEL 7
REMARK VINA RESULT:    -7.240      2.192      3.022
REMARK INTER + INTRA:          -9.326
REMARK INTER:                  -8.989
REMARK INTRA:                  -0.337
REMARK UNBOUND:                -0.393
REMARK  Name = 
REMARK  4 active torsions:
REMARK  status: ('A' for Active; 'I' for Inactive)
REMARK    1  A    between atoms: C_2  and  C_4
REMARK    2  A    between atoms: N_8  and  C_9
REMARK    3  A    between atoms: C_9  and  C_10
REMARK    4  A    between atoms: C_12  and  C_13
REMARK                            x       y       z     vdW  Elec       q    Type
REMARK                         _______ _______ _______ _____ _____    ______ ____
ROOT
ATOM      1  C   UNL     1      43.397   3.262  11.187  0.00  0.00    +0.000 C 
ENDROOT
BRANCH   1   6
ATOM      2  C   UNL     1      46.381   2.703   7.009  0.00  0.00    +0.000 A 
ATOM      3  C   UNL     1      45.401   3.646   7.298  0.00  0.00    +0.000 A 
ATOM      4  C   UNL     1      44.744   3.587   8.527  0.00  0.00    +0.000 A 
ATOM      5  C   UNL     1      45.074   2.596   9.445  0.00  0.00    +0.000 A 
ATOM      6  N   UNL     1      44.485   2.469  10.670  0.00  0.00    +0.000 N 
ATOM      7  N   UNL     1      46.015   1.671   9.168  0.00  0.00    +0.000 NA
ATOM      8  C   UNL     1      46.638   1.730   7.960  0.00  0.00    +0.000 A 
ATOM      9  H   UNL     1      44.856   1.706  11.221  0.00  0.00    +0.000 HD
BRANCH   2  11
ATOM     10  N   UNL     1      48.461   2.394   5.802  0.00  0.00    +0.000 N 
ATOM     11  C   UNL     1      47.128   2.696   5.737  0.00  0.00    +0.000 C 
ATOM     12  O   UNL     1      46.575   2.916   4.667  0.00  0.00    +0.000 OA
ATOM     13  H   UNL     1      48.942   2.290   4.916  0.00  0.00    +0.000 HD
ATOM     14  H   UNL     1      48.889   1.979   6.616  0.00  0.00    +0.000 HD
ENDBRANCH   2  11
ENDBRANCH   1   6
BRANCH   1  15
ATOM     15  C   UNL     1      43.828   4.685  11.421  0.00  0.00    +0.000 A 
ATOM     16  C   UNL     1      45.184   4.997  11.634  0.00  0.00    +0.000 A 
ATOM     17  C   UNL     1      45.621   6.316  11.879  0.00  0.00    +0.000 A 
ATOM     18  C   UNL     1      44.640   7.325  11.899  0.00  0.00    +0.000 A 
ATOM     19  C   UNL     1      43.289   7.030  11.694  0.00  0.00    +0.000 A 
ATOM     20  C   UNL     1      42.897   5.719  11.457  0.00  0.00    +0.000 A 
ATOM     21  F   UNL     1      41.594   5.461  11.267  0.00  0.00    +0.000 F 
BRANCH  17  22
ATOM     22  C   UNL     1      47.049   6.618  12.118  0.00  0.00    +0.000 A 
ATOM     23  C   UNL     1      47.805   7.422  11.249  0.00  0.00    +0.000 A 
ATOM     24  C   UNL     1      49.154   7.673  11.498  0.00  0.00    +0.000 A 
ATOM     25  C   UNL     1      49.728   7.120  12.627  0.00  0.00    +0.000 A 
ATOM     26  N   UNL     1      49.053   6.345  13.499  0.00  0.00    +0.000 NA
ATOM     27  C   UNL     1      47.746   6.113  13.220  0.00  0.00    +0.000 A 
ENDBRANCH  17  22
ENDBRANCH   1  15
TORSDOF 4
ENDMDL
MODEL 8
REMARK VINA RESULT:    -6.962      6.127      8.427
REMARK INTER + INTRA:          -8.983
REMARK INTER:                  -8.182
REMARK INTRA:                  -0.801
REMARK UNBOUND:                -0.393
REMARK  Name = 
REMARK  4 active torsions:
REMARK  status: ('A' for Active; 'I' for Inactive)
REMARK    1  A    between atoms: C_2  and  C_4
REMARK    2  A    between atoms: N_8  and  C_9
REMARK    3  A    between atoms: C_9  and  C_10
REMARK    4  A    between atoms: C_12  and  C_13
REMARK                            x       y       z     vdW  Elec       q    Type
REMARK                         _______ _______ _______ _____ _____    ______ ____
ROOT
ATOM      1  C   UNL     1      47.494   4.122  16.845  0.00  0.00    +0.000 C 
ENDROOT
BRANCH   1   6
ATOM      2  C   UNL     1      52.286   2.440  17.782  0.00  0.00    +0.000 A 
ATOM      3  C   UNL     1      51.690   3.664  18.061  0.00  0.00    +0.000 A 
ATOM      4  C   UNL     1      50.352   3.861  17.716  0.00  0.00    +0.000 A 
ATOM      5  C   UNL     1      49.635   2.840  17.104  0.00  0.00    +0.000 A 
ATOM      6  N   UNL     1      48.323   2.947  16.739  0.00  0.00    +0.000 N 
ATOM      7  N   UNL     1      50.209   1.654  16.820  0.00  0.00    +0.000 NA
ATOM      8  C   UNL     1      51.518   1.479  17.148  0.00  0.00    +0.000 A 
ATOM      9  H   UNL     1      47.949   2.104  16.324  0.00  0.00    +0.000 HD
BRANCH   2  11
ATOM     10  N   UNL     1      53.922   1.454  19.275  0.00  0.00    +0.000 N 
ATOM     11  C   UNL     1      53.693   2.146  18.117  0.00  0.00    +0.000 C 
ATOM     12  O   UNL     1      54.611   2.476  17.378  0.00  0.00    +0.000 OA
ATOM     13  H   UNL     1      54.879   1.166  19.445  0.00  0.00    +0.000 HD
ATOM     14  H   UNL     1      53.194   0.965  19.774  0.00  0.00    +0.000 HD
ENDBRANCH   2  11
ENDBRANCH   1   6
BRANCH   1  15
ATOM     15  C   UNL     1      47.456   4.877  15.544  0.00  0.00    +0.000 A 
ATOM     16  C   UNL     1      46.620   4.452  14.493  0.00  0.00    +0.000 A 
ATOM     17  C   UNL     1      46.575   5.122  13.253  0.00  0.00    +0.000 A 
ATOM     18  C   UNL     1      47.404   6.249  13.100  0.00  0.00    +0.000 A 
ATOM     19  C   UNL     1      48.242   6.680  14.132  0.00  0.00    +0.000 A 
ATOM     20  C   UNL     1      48.261   5.994  15.339  0.00  0.00    +0.000 A 
ATOM     21  F   UNL     1      49.077   6.425  16.312  0.00  0.00    +0.000 F 
BRANCH  17  22
ATOM     22  C   UNL     1      45.702   4.647  12.157  0.00  0.00    +0.000 A 
ATOM     23  C   UNL     1      45.599   5.323  10.930  0.00  0.00    +0.000 A 
ATOM     24  C   UNL     1      44.753   4.854   9.924  0.00  0.00    +0.000 A 
ATOM     25  C   UNL     1      44.027   3.703  10.160  0.00  0.00    +0.000 A 
ATOM     26  N   UNL     1      44.087   3.010  11.314  0.00  0.00    +0.000 NA
ATOM     27  C   UNL     1      44.911   3.499  12.274  0.00  0.00    +0.000 A 
ENDBRANCH  17  22
ENDBRANCH   1  15
TORSDOF 4
ENDMDL
MODEL 9
REMARK VINA RESULT:    -6.931      5.397      8.536
REMARK INTER + INTRA:          -8.944
REMARK INTER:                  -8.413
REMARK INTRA:                  -0.531
REMARK UNBOUND:                -0.393
REMARK  Name = 
REMARK  4 active torsions:
REMARK  status: ('A' for Active; 'I' for Inactive)
REMARK    1  A    between atoms: C_2  and  C_4
REMARK    2  A    between atoms: N_8  and  C_9
REMARK    3  A    between atoms: C_9  and  C_10
REMARK    4  A    between atoms: C_12  and  C_13
REMARK                            x       y       z     vdW  Elec       q    Type
REMARK                         _______ _______ _______ _____ _____    ______ ____
ROOT
ATOM      1  C   UNL     1      47.821   6.620  13.938  0.00  0.00    +0.000 C 
ENDROOT
BRANCH   1   6
ATOM      2  C   UNL     1      49.015   5.060  18.713  0.00  0.00    +0.000 A 
ATOM      3  C   UNL     1      49.335   6.234  18.042  0.00  0.00    +0.000 A 
ATOM      4  C   UNL     1      48.864   6.422  16.742  0.00  0.00    +0.000 A 
ATOM      5  C   UNL     1      48.085   5.443  16.137  0.00  0.00    +0.000 A 
ATOM      6  N   UNL     1      47.581   5.548  14.872  0.00  0.00    +0.000 N 
ATOM      7  N   UNL     1      47.780   4.297  16.776  0.00  0.00    +0.000 NA
ATOM      8  C   UNL     1      48.256   4.119  18.039  0.00  0.00    +0.000 A 
ATOM      9  H   UNL     1      47.019   4.756  14.593  0.00  0.00    +0.000 HD
BRANCH   2  11
ATOM     10  N   UNL     1      48.626   4.048  20.882  0.00  0.00    +0.000 N 
ATOM     11  C   UNL     1      49.466   4.783  20.091  0.00  0.00    +0.000 C 
ATOM     12  O   UNL     1      50.556   5.162  20.497  0.00  0.00    +0.000 OA
ATOM     13  H   UNL     1      48.986   3.775  21.789  0.00  0.00    +0.000 HD
ATOM     14  H   UNL     1      47.846   3.524  20.514  0.00  0.00    +0.000 HD
ENDBRANCH   2  11
ENDBRANCH   1   6
BRANCH   1  15
ATOM     15  C   UNL     1      46.700   6.731  12.940  0.00  0.00    +0.000 A 
ATOM     16  C   UNL     1      46.419   5.672  12.057  0.00  0.00    +0.000 A 
ATOM     17  C   UNL     1      45.390   5.750  11.096  0.00  0.00    +0.000 A 
ATOM     18  C   UNL     1      44.641   6.940  11.051  0.00  0.00    +0.000 A 
ATOM     19  C   UNL     1      44.911   8.003  11.918  0.00  0.00    +0.000 A 
ATOM     20  C   UNL     1      45.933   7.890  12.851  0.00  0.00    +0.000 A 
ATOM     21  F   UNL     1      46.176   8.925  13.669  0.00  0.00    +0.000 F 
BRANCH  17  22
ATOM     22  C   UNL     1      45.123   4.631  10.165  0.00  0.00    +0.000 A 
ATOM     23  C   UNL     1      45.546   4.647   8.826  0.00  0.00    +0.000 A 
ATOM     24  C   UNL     1      45.263   3.581   7.973  0.00  0.00    +0.000 A 
ATOM     25  C   UNL     1      44.564   2.502   8.481  0.00  0.00    +0.000 A 
ATOM     26  N   UNL     1      44.136   2.427   9.756  0.00  0.00    +0.000 NA
ATOM     27  C   UNL     1      44.420   3.486  10.554  0.00  0.00    +0.000 A 
ENDBRANCH  17  22
ENDBRANCH   1  15
TORSDOF 4
ENDMDL
