MODEL 1
REMARK VINA RESULT:    -8.516      0.000      0.000
REMARK INTER + INTRA:         -12.294
REMARK INTER:                 -11.503
REMARK INTRA:                  -0.791
REMARK UNBOUND:                -0.791
REMARK  Name = 
REMARK  10 active torsions:
REMARK  status: ('A' for Active; 'I' for Inactive)
REMARK    1  A    between atoms: C_1  and  C_2
REMARK    2  A    between atoms: C_2  and  C_3
REMARK    3  A    between atoms: C_5  and  N_6
REMARK    4  A    between atoms: C_9  and  C_10
REMARK    5  A    between atoms: C_10  and  C_11
REMARK    6  A    between atoms: C_10  and  C_12
REMARK    7  A    between atoms: C_10  and  C_13
REMARK    8  A    between atoms: C_13  and  N_14
REMARK    9  A    between atoms: N_14  and  C_15
REMARK   10  A    between atoms: C_18  and  C_19
REMARK                            x       y       z     vdW  Elec       q    Type
REMARK                         _______ _______ _______ _____ _____    ______ ____
ROOT
ATOM      1  C   UNL     1      43.718   5.822  11.587  0.00  0.00    +0.000 C 
ATOM      2  C   UNL     1      42.657   5.184  12.521  0.00  0.00    +0.000 C 
ATOM      3  C   UNL     1      43.311   7.292  11.330  0.00  0.00    +0.000 C 
ENDROOT
BRANCH   1   7
ATOM      4  N   UNL     1      46.572   4.384  15.389  0.00  0.00    +0.000 N 
ATOM      5  C   UNL     1      46.468   5.092  14.175  0.00  0.00    +0.000 A 
ATOM      6  C   UNL     1      45.217   5.194  13.566  0.00  0.00    +0.000 A 
ATOM      7  C   UNL     1      45.090   5.764  12.286  0.00  0.00    +0.000 A 
ATOM      8  C   UNL     1      46.272   6.222  11.692  0.00  0.00    +0.000 A 
ATOM      9  C   UNL     1      47.463   6.147  12.394  0.00  0.00    +0.000 A 
ATOM     10  N   UNL     1      47.582   5.589  13.610  0.00  0.00    +0.000 NA
ATOM     11  H   UNL     1      46.112   4.924  16.115  0.00  0.00    +0.000 HD
BRANCH   4  16
ATOM     12  C   UNL     1      50.229   2.909  17.434  0.00  0.00    +0.000 C 
ATOM     13  C   UNL     1      48.899   3.619  17.679  0.00  0.00    +0.000 C 
ATOM     14  C   UNL     1      48.700   3.951  19.154  0.00  0.00    +0.000 C 
ATOM     15  C   UNL     1      47.685   2.901  17.031  0.00  0.00    +0.000 C 
ATOM     16  C   UNL     1      47.833   3.842  15.807  0.00  0.00    +0.000 C 
ATOM     17  C   UNL     1      48.613   4.813  16.719  0.00  0.00    +0.000 C 
ENDBRANCH   4  16
ENDBRANCH   1   7
BRANCH   1  18
ATOM     18  C   UNL     1      43.630   5.043  10.233  0.00  0.00    +0.000 C 
BRANCH  18  19
ATOM     19  N   UNL     1      44.210   3.692  10.302  0.00  0.00    +0.000 N 
ATOM     20  H   UNL     1      43.530   2.964  10.506  0.00  0.00    +0.000 HD
BRANCH  19  21
ATOM     21  C   UNL     1      45.129   3.328   9.311  0.00  0.00    +0.000 A 
ATOM     22  C   UNL     1      45.495   2.000   9.073  0.00  0.00    +0.000 A 
ATOM     23  C   UNL     1      46.333   1.672   8.010  0.00  0.00    +0.000 A 
ATOM     24  C   UNL     1      46.788   2.694   7.194  0.00  0.00    +0.000 A 
ATOM     25  N   UNL     1      46.470   4.005   7.372  0.00  0.00    +0.000 NA
ATOM     26  C   UNL     1      45.641   4.274   8.412  0.00  0.00    +0.000 A 
BRANCH  24  27
ATOM     27  C   UNL     1      47.657   2.364   6.018  0.00  0.00    +0.000 C 
ATOM     28  N   UNL     1      47.518   3.178   4.934  0.00  0.00    +0.000 N 
ATOM     29  O   UNL     1      48.440   1.418   6.021  0.00  0.00    +0.000 OA
ATOM     30  H   UNL     1      46.833   3.927   4.960  0.00  0.00    +0.000 HD
ATOM     31  H   UNL     1      48.046   2.989   4.093  0.00  0.00    +0.000 HD
ENDBRANCH  24  27
ENDBRANCH  19  21
ENDBRANCH  18  19
ENDBRANCH   1  18
TORSDOF 6
ENDMDL
MODEL 2
REMARK VINA RESULT:    -8.389      2.549      4.335
REMARK INTER + INTRA:         -12.122
REMARK INTER:                 -11.157
REMARK INTRA:                  -0.965
REMARK UNBOUND:                -0.791
REMARK  Name = 
REMARK  10 active torsions:
REMARK  status: ('A' for Active; 'I' for Inactive)
REMARK    1  A    between atoms: C_1  and  C_2
REMARK    2  A    between atoms: C_2  and  C_3
REMARK    3  A    between atoms: C_5  and  N_6
REMARK    4  A    between atoms: C_9  and  C_10
REMARK    5  A    between atoms: C_10  and  C_11
REMARK    6  A    between atoms: C_10  and  C_12
REMARK    7  A    between atoms: C_10  and  C_13
REMARK    8  A    between atoms: C_13  and  N_14
REMARK    9  A    between atoms: N_14  and  C_15
REMARK   10  A    between atoms: C_18  and  C_19
REMARK                            x       y       z     vdW  Elec       q    Type
REMARK                         _______ _______ _______ _____ _____    ______ ____
ROOT
ATOM      1  C   UNL     1      43.745   5.561  11.999  0.00  0.00    +0.000 C 
ATOM      2  C   UNL     1      42.875   5.298  13.256  0.00  0.00    +0.000 C 
ATOM      3  C   UNL     1      43.317   6.920  11.395  0.00  0.00    +0.000 C 
ENDROOT
BRANCH   1   7
ATOM      4  N   UNL     1      48.321   7.424  11.503  0.00  0.00    +0.000 N 
ATOM      5  C   UNL     1      47.472   6.497  12.140  0.00  0.00    +0.000 A 
ATOM      6  C   UNL     1      46.143   6.412  11.722  0.00  0.00    +0.000 A 
ATOM      7  C   UNL     1      45.226   5.609  12.423  0.00  0.00    +0.000 A 
ATOM      8  C   UNL     1      45.729   4.911  13.527  0.00  0.00    +0.000 A 
ATOM      9  C   UNL     1      47.077   4.995  13.832  0.00  0.00    +0.000 A 
ATOM     10  N   UNL     1      47.948   5.775  13.169  0.00  0.00    +0.000 NA
ATOM     11  H   UNL     1      48.498   7.100  10.557  0.00  0.00    +0.000 HD
BRANCH   4  16
ATOM     12  C   UNL     1      52.085   9.344  12.876  0.00  0.00    +0.000 C 
ATOM     13  C   UNL     1      51.123   9.257  11.692  0.00  0.00    +0.000 C 
ATOM     14  C   UNL     1      51.566  10.152  10.539  0.00  0.00    +0.000 C 
ATOM     15  C   UNL     1      49.634   9.441  12.089  0.00  0.00    +0.000 C 
ATOM     16  C   UNL     1      49.505   7.897  12.163  0.00  0.00    +0.000 C 
ATOM     17  C   UNL     1      50.754   7.806  11.260  0.00  0.00    +0.000 C 
ENDBRANCH   4  16
ENDBRANCH   1   7
BRANCH   1  18
ATOM     18  C   UNL     1      43.383   4.433  10.977  0.00  0.00    +0.000 C 
BRANCH  18  19
ATOM     19  N   UNL     1      43.766   4.760   9.593  0.00  0.00    +0.000 N 
ATOM     20  H   UNL     1      44.035   5.731   9.460  0.00  0.00    +0.000 HD
BRANCH  19  21
ATOM     21  C   UNL     1      44.599   3.859   8.920  0.00  0.00    +0.000 A 
ATOM     22  C   UNL     1      45.581   4.271   8.016  0.00  0.00    +0.000 A 
ATOM     23  C   UNL     1      46.457   3.350   7.447  0.00  0.00    +0.000 A 
ATOM     24  C   UNL     1      46.331   2.017   7.804  0.00  0.00    +0.000 A 
ATOM     25  N   UNL     1      45.396   1.552   8.676  0.00  0.00    +0.000 NA
ATOM     26  C   UNL     1      44.575   2.488   9.214  0.00  0.00    +0.000 A 
BRANCH  24  27
ATOM     27  C   UNL     1      47.288   1.011   7.238  0.00  0.00    +0.000 C 
ATOM     28  N   UNL     1      47.068  -0.283   7.605  0.00  0.00    +0.000 N 
ATOM     29  O   UNL     1      48.216   1.326   6.499  0.00  0.00    +0.000 OA
ATOM     30  H   UNL     1      46.311  -0.496   8.246  0.00  0.00    +0.000 HD
ATOM     31  H   UNL     1      47.698  -1.008   7.290  0.00  0.00    +0.000 HD
ENDBRANCH  24  27
ENDBRANCH  19  21
ENDBRANCH  18  19
ENDBRANCH   1  18
TORSDOF 6
ENDMDL
MODEL 3
REMARK VINA RESULT:    -8.366      1.719      2.160
REMARK INTER + INTRA:         -12.091
REMARK INTER:                 -11.241
REMARK INTRA:                  -0.850
REMARK UNBOUND:                -0.791
REMARK  Name = 
REMARK  10 active torsions:
REMARK  status: ('A' for Active; 'I' for Inactive)
REMARK    1  A    between atoms: C_1  and  C_2
REMARK    2  A    between atoms: C_2  and  C_3
REMARK    3  A    between atoms: C_5  and  N_6
REMARK    4  A    between atoms: C_9  and  C_10
REMARK    5  A    between atoms: C_10  and  C_11
REMARK    6  A    between atoms: C_10  and  C_12
REMARK    7  A    between atoms: C_10  and  C_13
REMARK    8  A    between atoms: C_13  and  N_14
REMARK    9  A    between atoms: N_14  and  C_15
REMARK   10  A    between atoms: C_18  and  C_19
REMARK                            x       y       z     vdW  Elec       q    Type
REMARK                         _______ _______ _______ _____ _____    ______ ____
ROOT
ATOM      1  C   UNL     1      44.857   6.189  12.055  0.00  0.00    +0.000 C 
ATOM      2  C   UNL     1      43.409   5.682  12.276  0.00  0.00    +0.000 C 
ATOM      3  C   UNL     1      44.907   7.686  12.442  0.00  0.00    +0.000 C 
ENDROOT
BRANCH   1   7
ATOM      4  N   UNL     1      48.090   5.940  15.816  0.00  0.00    +0.000 N 
ATOM      5  C   UNL     1      47.425   5.274  14.767  0.00  0.00    +0.000 A 
ATOM      6  C   UNL     1      46.604   6.017  13.918  0.00  0.00    +0.000 A 
ATOM      7  C   UNL     1      45.810   5.375  12.952  0.00  0.00    +0.000 A 
ATOM      8  C   UNL     1      45.910   3.980  12.893  0.00  0.00    +0.000 A 
ATOM      9  C   UNL     1      46.803   3.324  13.725  0.00  0.00    +0.000 A 
ATOM     10  N   UNL     1      47.549   3.940  14.657  0.00  0.00    +0.000 NA
ATOM     11  H   UNL     1      48.811   6.531  15.414  0.00  0.00    +0.000 HD
BRANCH   4  16
ATOM     12  C   UNL     1      49.016   4.209  19.801  0.00  0.00    +0.000 C 
ATOM     13  C   UNL     1      48.257   5.342  19.112  0.00  0.00    +0.000 C 
ATOM     14  C   UNL     1      47.518   6.220  20.116  0.00  0.00    +0.000 C 
ATOM     15  C   UNL     1      47.373   4.865  17.929  0.00  0.00    +0.000 C 
ATOM     16  C   UNL     1      48.540   5.212  16.968  0.00  0.00    +0.000 C 
ATOM     17  C   UNL     1      49.094   6.143  18.068  0.00  0.00    +0.000 C 
ENDBRANCH   4  16
ENDBRANCH   1   7
BRANCH   1  18
ATOM     18  C   UNL     1      45.129   6.070  10.518  0.00  0.00    +0.000 C 
BRANCH  18  19
ATOM     19  N   UNL     1      44.286   5.062   9.856  0.00  0.00    +0.000 N 
ATOM     20  H   UNL     1      43.482   5.453   9.373  0.00  0.00    +0.000 HD
BRANCH  19  21
ATOM     21  C   UNL     1      44.929   4.052   9.131  0.00  0.00    +0.000 A 
ATOM     22  C   UNL     1      45.751   4.318   8.033  0.00  0.00    +0.000 A 
ATOM     23  C   UNL     1      46.454   3.294   7.404  0.00  0.00    +0.000 A 
ATOM     24  C   UNL     1      46.321   2.007   7.900  0.00  0.00    +0.000 A 
ATOM     25  N   UNL     1      45.537   1.682   8.964  0.00  0.00    +0.000 NA
ATOM     26  C   UNL     1      44.883   2.715   9.550  0.00  0.00    +0.000 A 
BRANCH  24  27
ATOM     27  C   UNL     1      47.100   0.892   7.268  0.00  0.00    +0.000 C 
ATOM     28  N   UNL     1      46.730  -0.367   7.635  0.00  0.00    +0.000 N 
ATOM     29  O   UNL     1      48.017   1.093   6.478  0.00  0.00    +0.000 OA
ATOM     30  H   UNL     1      45.989  -0.489   8.318  0.00  0.00    +0.000 HD
ATOM     31  H   UNL     1      47.237  -1.164   7.276  0.00  0.00    +0.000 HD
ENDBRANCH  24  27
ENDBRANCH  19  21
ENDBRANCH  18  19
ENDBRANCH   1  18
TORSDOF 6
ENDMDL
MODEL 4
REMARK VINA RESULT:    -7.927      3.185      4.272
REMARK INTER + INTRA:         -11.498
REMARK INTER:                 -10.620
REMARK INTRA:                  -0.877
REMARK UNBOUND:                -0.791
REMARK  Name = 
REMARK  10 active torsions:
REMARK  status: ('A' for Active; 'I' for Inactive)
REMARK    1  A    between atoms: C_1  and  C_2
REMARK    2  A    between atoms: C_2  and  C_3
REMARK    3  A    between atoms: C_5  and  N_6
REMARK    4  A    between atoms: C_9  and  C_10
REMARK    5  A    between atoms: C_10  and  C_11
REMARK    6  A    between atoms: C_10  and  C_12
REMARK    7  A    between atoms: C_10  and  C_13
REMARK    8  A    between atoms: C_13  and  N_14
REMARK    9  A    between atoms: N_14  and  C_15
REMARK   10  A    between atoms: C_18  and  C_19
REMARK                            x       y       z     vdW  Elec       q    Type
REMARK                         _______ _______ _______ _____ _____    ______ ____
ROOT
ATOM      1  C   UNL     1      44.117   4.867  12.159  0.00  0.00    +0.000 C 
ATOM      2  C   UNL     1      45.035   3.684  12.563  0.00  0.00    +0.000 C 
ATOM      3  C   UNL     1      43.012   5.007  13.232  0.00  0.00    +0.000 C 
ENDROOT
BRANCH   1   7
ATOM      4  N   UNL     1      48.541   7.124  12.111  0.00  0.00    +0.000 N 
ATOM      5  C   UNL     1      47.137   7.248  12.119  0.00  0.00    +0.000 A 
ATOM      6  C   UNL     1      46.364   6.091  12.230  0.00  0.00    +0.000 A 
ATOM      7  C   UNL     1      44.966   6.152  12.096  0.00  0.00    +0.000 A 
ATOM      8  C   UNL     1      44.419   7.420  11.866  0.00  0.00    +0.000 A 
ATOM      9  C   UNL     1      45.250   8.527  11.840  0.00  0.00    +0.000 A 
ATOM     10  N   UNL     1      46.587   8.464  11.953  0.00  0.00    +0.000 NA
ATOM     11  H   UNL     1      48.843   6.848  13.040  0.00  0.00    +0.000 HD
BRANCH   4  16
ATOM     12  C   UNL     1      51.649  10.030  10.834  0.00  0.00    +0.000 C 
ATOM     13  C   UNL     1      51.379   8.885  11.809  0.00  0.00    +0.000 C 
ATOM     14  C   UNL     1      52.598   8.580  12.673  0.00  0.00    +0.000 C 
ATOM     15  C   UNL     1      50.760   7.631  11.135  0.00  0.00    +0.000 C 
ATOM     16  C   UNL     1      49.358   8.156  11.538  0.00  0.00    +0.000 C 
ATOM     17  C   UNL     1      50.051   9.017  12.615  0.00  0.00    +0.000 C 
ENDBRANCH   4  16
ENDBRANCH   1   7
BRANCH   1  18
ATOM     18  C   UNL     1      43.442   4.452  10.810  0.00  0.00    +0.000 C 
BRANCH  18  19
ATOM     19  N   UNL     1      43.792   3.088  10.380  0.00  0.00    +0.000 N 
ATOM     20  H   UNL     1      42.996   2.459  10.322  0.00  0.00    +0.000 HD
BRANCH  19  21
ATOM     21  C   UNL     1      44.683   2.953   9.309  0.00  0.00    +0.000 A 
ATOM     22  C   UNL     1      45.185   4.049   8.604  0.00  0.00    +0.000 A 
ATOM     23  C   UNL     1      46.149   3.878   7.613  0.00  0.00    +0.000 A 
ATOM     24  C   UNL     1      46.599   2.594   7.350  0.00  0.00    +0.000 A 
ATOM     25  N   UNL     1      46.150   1.486   8.001  0.00  0.00    +0.000 NA
ATOM     26  C   UNL     1      45.222   1.706   8.966  0.00  0.00    +0.000 A 
BRANCH  24  27
ATOM     27  C   UNL     1      47.667   2.386   6.319  0.00  0.00    +0.000 C 
ATOM     28  N   UNL     1      47.521   3.101   5.167  0.00  0.00    +0.000 N 
ATOM     29  O   UNL     1      48.608   1.617   6.489  0.00  0.00    +0.000 OA
ATOM     30  H   UNL     1      46.709   3.699   5.052  0.00  0.00    +0.000 HD
ATOM     31  H   UNL     1      48.185   2.980   4.415  0.00  0.00    +0.000 HD
ENDBRANCH  24  27
ENDBRANCH  19  21
ENDBRANCH  18  19
ENDBRANCH   1  18
TORSDOF 6
ENDMDL
MODEL 5
REMARK VINA RESULT:    -7.612      2.857      3.573
REMARK INTER + INTRA:         -11.073
REMARK INTER:                 -10.344
REMARK INTRA:                  -0.729
REMARK UNBOUND:                -0.791
REMARK  Name = 
REMARK  10 active torsions:
REMARK  status: ('A' for Active; 'I' for Inactive)
REMARK    1  A    between atoms: C_1  and  C_2
REMARK    2  A    between atoms: C_2  and  C_3
REMARK    3  A    between atoms: C_5  and  N_6
REMARK    4  A    between atoms: C_9  and  C_10
REMARK    5  A    between atoms: C_10  and  C_11
REMARK    6  A    between atoms: C_10  and  C_12
REMARK    7  A    between atoms: C_10  and  C_13
REMARK    8  A    between atoms: C_13  and  N_14
REMARK    9  A    between atoms: N_14  and  C_15
REMARK   10  A    between atoms: C_18  and  C_19
REMARK                            x       y       z     vdW  Elec       q    Type
REMARK                         _______ _______ _______ _____ _____    ______ ____
ROOT
ATOM      1  C   UNL     1      44.260   4.512  12.180  0.00  0.00    +0.000 C 
ATOM      2  C   UNL     1      45.352   3.433  12.398  0.00  0.00    +0.000 C 
ATOM      3  C   UNL     1      43.171   4.318  13.262  0.00  0.00    +0.000 C 
ENDROOT
BRANCH   1   7
ATOM      4  N   UNL     1      47.735   7.492  14.105  0.00  0.00    +0.000 N 
ATOM      5  C   UNL     1      46.585   7.362  13.301  0.00  0.00    +0.000 A 
ATOM      6  C   UNL     1      45.964   6.115  13.217  0.00  0.00    +0.000 A 
ATOM      7  C   UNL     1      44.905   5.904  12.317  0.00  0.00    +0.000 A 
ATOM      8  C   UNL     1      44.519   7.006  11.545  0.00  0.00    +0.000 A 
ATOM      9  C   UNL     1      45.140   8.228  11.740  0.00  0.00    +0.000 A 
ATOM     10  N   UNL     1      46.162   8.422  12.590  0.00  0.00    +0.000 NA
ATOM     11  H   UNL     1      47.456   7.414  15.078  0.00  0.00    +0.000 HD
BRANCH   4  16
ATOM     12  C   UNL     1      51.131  10.342  13.837  0.00  0.00    +0.000 C 
ATOM     13  C   UNL     1      50.696   9.022  14.471  0.00  0.00    +0.000 C 
ATOM     14  C   UNL     1      51.805   8.413  15.322  0.00  0.00    +0.000 C 
ATOM     15  C   UNL     1      50.065   8.028  13.460  0.00  0.00    +0.000 C 
ATOM     16  C   UNL     1      48.667   8.558  13.872  0.00  0.00    +0.000 C 
ATOM     17  C   UNL     1      49.309   9.069  15.180  0.00  0.00    +0.000 C 
ENDBRANCH   4  16
ENDBRANCH   1   7
BRANCH   1  18
ATOM     18  C   UNL     1      43.623   4.210  10.784  0.00  0.00    +0.000 C 
BRANCH  18  19
ATOM     19  N   UNL     1      43.931   2.859  10.285  0.00  0.00    +0.000 N 
ATOM     20  H   UNL     1      43.121   2.247  10.232  0.00  0.00    +0.000 HD
BRANCH  19  21
ATOM     21  C   UNL     1      44.778   2.753   9.176  0.00  0.00    +0.000 A 
ATOM     22  C   UNL     1      45.141   3.855   8.397  0.00  0.00    +0.000 A 
ATOM     23  C   UNL     1      46.067   3.724   7.365  0.00  0.00    +0.000 A 
ATOM     24  C   UNL     1      46.622   2.476   7.136  0.00  0.00    +0.000 A 
ATOM     25  N   UNL     1      46.311   1.364   7.858  0.00  0.00    +0.000 NA
ATOM     26  C   UNL     1      45.414   1.545   8.860  0.00  0.00    +0.000 A 
BRANCH  24  27
ATOM     27  C   UNL     1      47.653   2.316   6.060  0.00  0.00    +0.000 C 
ATOM     28  N   UNL     1      47.615   3.244   5.063  0.00  0.00    +0.000 N 
ATOM     29  O   UNL     1      48.476   1.405   6.065  0.00  0.00    +0.000 OA
ATOM     30  H   UNL     1      46.896   3.960   5.079  0.00  0.00    +0.000 HD
ATOM     31  H   UNL     1      48.257   3.174   4.287  0.00  0.00    +0.000 HD
ENDBRANCH  24  27
ENDBRANCH  19  21
ENDBRANCH  18  19
ENDBRANCH   1  18
TORSDOF 6
ENDMDL
MODEL 6
REMARK VINA RESULT:    -6.559      4.714      7.495
REMARK INTER + INTRA:          -9.650
REMARK INTER:                  -8.880
REMARK INTRA:                  -0.770
REMARK UNBOUND:                -0.791
REMARK  Name = 
REMARK  10 active torsions:
REMARK  status: ('A' for Active; 'I' for Inactive)
REMARK    1  A    between atoms: C_1  and  C_2
REMARK    2  A    between atoms: C_2  and  C_3
REMARK    3  A    between atoms: C_5  and  N_6
REMARK    4  A    between atoms: C_9  and  C_10
REMARK    5  A    between atoms: C_10  and  C_11
REMARK    6  A    between atoms: C_10  and  C_12
REMARK    7  A    between atoms: C_10  and  C_13
REMARK    8  A    between atoms: C_13  and  N_14
REMARK    9  A    between atoms: N_14  and  C_15
REMARK   10  A    between atoms: C_18  and  C_19
REMARK                            x       y       z     vdW  Elec       q    Type
REMARK                         _______ _______ _______ _____ _____    ______ ____
ROOT
ATOM      1  C   UNL     1      48.586   8.727  12.790  0.00  0.00    +0.000 C 
ATOM      2  C   UNL     1      48.840   9.384  14.172  0.00  0.00    +0.000 C 
ATOM      3  C   UNL     1      47.381   9.441  12.133  0.00  0.00    +0.000 C 
ENDROOT
BRANCH   1   7
ATOM      4  N   UNL     1      52.344   6.777  10.195  0.00  0.00    +0.000 N 
ATOM      5  C   UNL     1      51.709   7.933  10.690  0.00  0.00    +0.000 A 
ATOM      6  C   UNL     1      50.599   7.781  11.523  0.00  0.00    +0.000 A 
ATOM      7  C   UNL     1      49.847   8.900  11.921  0.00  0.00    +0.000 A 
ATOM      8  C   UNL     1      50.287  10.143  11.450  0.00  0.00    +0.000 A 
ATOM      9  C   UNL     1      51.440  10.214  10.686  0.00  0.00    +0.000 A 
ATOM     10  N   UNL     1      52.147   9.140  10.294  0.00  0.00    +0.000 NA
ATOM     11  H   UNL     1      52.817   6.316  10.967  0.00  0.00    +0.000 HD
BRANCH   4  16
ATOM     12  C   UNL     1      54.512   6.241   6.355  0.00  0.00    +0.000 C 
ATOM     13  C   UNL     1      53.564   5.540   7.327  0.00  0.00    +0.000 C 
ATOM     14  C   UNL     1      53.180   4.148   6.835  0.00  0.00    +0.000 C 
ATOM     15  C   UNL     1      52.351   6.412   7.745  0.00  0.00    +0.000 C 
ATOM     16  C   UNL     1      53.145   6.842   9.006  0.00  0.00    +0.000 C 
ATOM     17  C   UNL     1      54.016   5.581   8.818  0.00  0.00    +0.000 C 
ENDBRANCH   4  16
ENDBRANCH   1   7
BRANCH   1  18
ATOM     18  C   UNL     1      48.180   7.245  13.082  0.00  0.00    +0.000 C 
BRANCH  18  19
ATOM     19  N   UNL     1      46.780   7.101  13.513  0.00  0.00    +0.000 N 
ATOM     20  H   UNL     1      46.286   7.985  13.607  0.00  0.00    +0.000 HD
BRANCH  19  21
ATOM     21  C   UNL     1      46.012   6.101  12.905  0.00  0.00    +0.000 A 
ATOM     22  C   UNL     1      45.534   6.209  11.596  0.00  0.00    +0.000 A 
ATOM     23  C   UNL     1      44.863   5.148  10.993  0.00  0.00    +0.000 A 
ATOM     24  C   UNL     1      44.687   3.983  11.722  0.00  0.00    +0.000 A 
ATOM     25  N   UNL     1      45.128   3.815  12.999  0.00  0.00    +0.000 NA
ATOM     26  C   UNL     1      45.787   4.871  13.538  0.00  0.00    +0.000 A 
BRANCH  24  27
ATOM     27  C   UNL     1      44.006   2.811  11.083  0.00  0.00    +0.000 C 
ATOM     28  N   UNL     1      44.640   2.278  10.001  0.00  0.00    +0.000 N 
ATOM     29  O   UNL     1      42.941   2.361  11.496  0.00  0.00    +0.000 OA
ATOM     30  H   UNL     1      45.501   2.702   9.670  0.00  0.00    +0.000 HD
ATOM     31  H   UNL     1      44.217   1.510   9.499  0.00  0.00    +0.000 HD
ENDBRANCH  24  27
ENDBRANCH  19  21
ENDBRANCH  18  19
ENDBRANCH   1  18
TORSDOF 6
ENDMDL
MODEL 7
REMARK VINA RESULT:    -6.513      3.741      8.497
REMARK INTER + INTRA:          -9.588
REMARK INTER:                  -8.296
REMARK INTRA:                  -1.293
REMARK UNBOUND:                -0.791
REMARK  Name = 
REMARK  10 active torsions:
REMARK  status: ('A' for Active; 'I' for Inactive)
REMARK    1  A    between atoms: C_1  and  C_2
REMARK    2  A    between atoms: C_2  and  C_3
REMARK    3  A    between atoms: C_5  and  N_6
REMARK    4  A    between atoms: C_9  and  C_10
REMARK    5  A    between atoms: C_10  and  C_11
REMARK    6  A    between atoms: C_10  and  C_12
REMARK    7  A    between atoms: C_10  and  C_13
REMARK    8  A    between atoms: C_13  and  N_14
REMARK    9  A    between atoms: N_14  and  C_15
REMARK   10  A    between atoms: C_18  and  C_19
REMARK                            x       y       z     vdW  Elec       q    Type
REMARK                         _______ _______ _______ _____ _____    ______ ____
ROOT
ATOM      1  C   UNL     1      49.650   8.971  16.570  0.00  0.00    +0.000 C 
ATOM      2  C   UNL     1      50.142  10.383  16.159  0.00  0.00    +0.000 C 
ATOM      3  C   UNL     1      48.332   9.133  17.364  0.00  0.00    +0.000 C 
ENDROOT
BRANCH   1   7
ATOM      4  N   UNL     1      47.004   5.613  14.044  0.00  0.00    +0.000 N 
ATOM      5  C   UNL     1      48.126   6.463  14.084  0.00  0.00    +0.000 A 
ATOM      6  C   UNL     1      48.384   7.175  15.257  0.00  0.00    +0.000 A 
ATOM      7  C   UNL     1      49.404   8.142  15.295  0.00  0.00    +0.000 A 
ATOM      8  C   UNL     1      50.131   8.323  14.112  0.00  0.00    +0.000 A 
ATOM      9  C   UNL     1      49.858   7.525  13.014  0.00  0.00    +0.000 A 
ATOM     10  N   UNL     1      48.873   6.613  12.977  0.00  0.00    +0.000 NA
ATOM     11  H   UNL     1      47.182   4.817  14.649  0.00  0.00    +0.000 HD
BRANCH   4  16
ATOM     12  C   UNL     1      44.482   4.552  10.544  0.00  0.00    +0.000 C 
ATOM     13  C   UNL     1      44.417   4.912  12.028  0.00  0.00    +0.000 C 
ATOM     14  C   UNL     1      42.981   4.948  12.537  0.00  0.00    +0.000 C 
ATOM     15  C   UNL     1      45.243   6.174  12.395  0.00  0.00    +0.000 C 
ATOM     16  C   UNL     1      46.418   5.242  12.787  0.00  0.00    +0.000 C 
ATOM     17  C   UNL     1      45.390   4.100  12.935  0.00  0.00    +0.000 C 
ENDBRANCH   4  16
ENDBRANCH   1   7
BRANCH   1  18
ATOM     18  C   UNL     1      50.738   8.396  17.536  0.00  0.00    +0.000 C 
BRANCH  18  19
ATOM     19  N   UNL     1      50.187   7.490  18.557  0.00  0.00    +0.000 N 
ATOM     20  H   UNL     1      49.328   7.827  18.985  0.00  0.00    +0.000 HD
BRANCH  19  21
ATOM     21  C   UNL     1      50.158   6.121  18.265  0.00  0.00    +0.000 A 
ATOM     22  C   UNL     1      49.008   5.342  18.416  0.00  0.00    +0.000 A 
ATOM     23  C   UNL     1      48.993   4.008  18.015  0.00  0.00    +0.000 A 
ATOM     24  C   UNL     1      50.146   3.478  17.458  0.00  0.00    +0.000 A 
ATOM     25  N   UNL     1      51.297   4.183  17.284  0.00  0.00    +0.000 NA
ATOM     26  C   UNL     1      51.258   5.481  17.677  0.00  0.00    +0.000 A 
BRANCH  24  27
ATOM     27  C   UNL     1      50.144   2.058  16.979  0.00  0.00    +0.000 C 
ATOM     28  N   UNL     1      51.047   1.232  17.580  0.00  0.00    +0.000 N 
ATOM     29  O   UNL     1      49.389   1.659  16.098  0.00  0.00    +0.000 OA
ATOM     30  H   UNL     1      51.678   1.610  18.279  0.00  0.00    +0.000 HD
ATOM     31  H   UNL     1      51.125   0.270  17.279  0.00  0.00    +0.000 HD
ENDBRANCH  24  27
ENDBRANCH  19  21
ENDBRANCH  18  19
ENDBRANCH   1  18
TORSDOF 6
ENDMDL
MODEL 8
REMARK VINA RESULT:    -6.427      3.226      5.028
REMARK INTER + INTRA:          -9.472
REMARK INTER:                  -8.526
REMARK INTRA:                  -0.946
REMARK UNBOUND:                -0.791
REMARK  Name = 
REMARK  10 active torsions:
REMARK  status: ('A' for Active; 'I' for Inactive)
REMARK    1  A    between atoms: C_1  and  C_2
REMARK    2  A    between atoms: C_2  and  C_3
REMARK    3  A    between atoms: C_5  and  N_6
REMARK    4  A    between atoms: C_9  and  C_10
REMARK    5  A    between atoms: C_10  and  C_11
REMARK    6  A    between atoms: C_10  and  C_12
REMARK    7  A    between atoms: C_10  and  C_13
REMARK    8  A    between atoms: C_13  and  N_14
REMARK    9  A    between atoms: N_14  and  C_15
REMARK   10  A    between atoms: C_18  and  C_19
REMARK                            x       y       z     vdW  Elec       q    Type
REMARK                         _______ _______ _______ _____ _____    ______ ____
ROOT
ATOM      1  C   UNL     1      48.160   8.528  12.663  0.00  0.00    +0.000 C 
ATOM      2  C   UNL     1      48.833   9.846  12.201  0.00  0.00    +0.000 C 
ATOM      3  C   UNL     1      48.769   7.365  11.846  0.00  0.00    +0.000 C 
ENDROOT
BRANCH   1   7
ATOM      4  N   UNL     1      49.287   5.572  16.491  0.00  0.00    +0.000 N 
ATOM      5  C   UNL     1      48.949   6.863  16.039  0.00  0.00    +0.000 A 
ATOM      6  C   UNL     1      48.641   7.039  14.689  0.00  0.00    +0.000 A 
ATOM      7  C   UNL     1      48.440   8.329  14.165  0.00  0.00    +0.000 A 
ATOM      8  C   UNL     1      48.554   9.390  15.070  0.00  0.00    +0.000 A 
ATOM      9  C   UNL     1      48.793   9.124  16.408  0.00  0.00    +0.000 A 
ATOM     10  N   UNL     1      48.999   7.892  16.902  0.00  0.00    +0.000 NA
ATOM     11  H   UNL     1      48.452   4.995  16.467  0.00  0.00    +0.000 HD
BRANCH   4  16
ATOM     12  C   UNL     1      51.995   4.414  19.817  0.00  0.00    +0.000 C 
ATOM     13  C   UNL     1      51.546   4.008  18.414  0.00  0.00    +0.000 C 
ATOM     14  C   UNL     1      52.279   2.763  17.926  0.00  0.00    +0.000 C 
ATOM     15  C   UNL     1      51.559   5.181  17.397  0.00  0.00    +0.000 C 
ATOM     16  C   UNL     1      50.053   5.401  17.693  0.00  0.00    +0.000 C 
ATOM     17  C   UNL     1      50.001   3.950  18.218  0.00  0.00    +0.000 C 
ENDBRANCH   4  16
ENDBRANCH   1   7
BRANCH   1  18
ATOM     18  C   UNL     1      46.647   8.656  12.282  0.00  0.00    +0.000 C 
BRANCH  18  19
ATOM     19  N   UNL     1      45.756   7.910  13.186  0.00  0.00    +0.000 N 
ATOM     20  H   UNL     1      45.081   8.494  13.671  0.00  0.00    +0.000 HD
BRANCH  19  21
ATOM     21  C   UNL     1      45.212   6.709  12.716  0.00  0.00    +0.000 A 
ATOM     22  C   UNL     1      44.378   6.647  11.596  0.00  0.00    +0.000 A 
ATOM     23  C   UNL     1      43.942   5.421  11.100  0.00  0.00    +0.000 A 
ATOM     24  C   UNL     1      44.361   4.267  11.741  0.00  0.00    +0.000 A 
ATOM     25  N   UNL     1      45.171   4.260  12.835  0.00  0.00    +0.000 NA
ATOM     26  C   UNL     1      45.580   5.477  13.273  0.00  0.00    +0.000 A 
BRANCH  24  27
ATOM     27  C   UNL     1      43.940   2.933  11.203  0.00  0.00    +0.000 C 
ATOM     28  N   UNL     1      44.707   2.436  10.191  0.00  0.00    +0.000 N 
ATOM     29  O   UNL     1      42.965   2.325  11.634  0.00  0.00    +0.000 OA
ATOM     30  H   UNL     1      45.484   2.987   9.840  0.00  0.00    +0.000 HD
ATOM     31  H   UNL     1      44.458   1.559   9.757  0.00  0.00    +0.000 HD
ENDBRANCH  24  27
ENDBRANCH  19  21
ENDBRANCH  18  19
ENDBRANCH   1  18
TORSDOF 6
ENDMDL
MODEL 9
REMARK VINA RESULT:    -5.881      4.644      7.011
REMARK INTER + INTRA:          -8.735
REMARK INTER:                  -8.153
REMARK INTRA:                  -0.583
REMARK UNBOUND:                -0.791
REMARK  Name = 
REMARK  10 active torsions:
REMARK  status: ('A' for Active; 'I' for Inactive)
REMARK    1  A    between atoms: C_1  and  C_2
REMARK    2  A    between atoms: C_2  and  C_3
REMARK    3  A    between atoms: C_5  and  N_6
REMARK    4  A    between atoms: C_9  and  C_10
REMARK    5  A    between atoms: C_10  and  C_11
REMARK    6  A    between atoms: C_10  and  C_12
REMARK    7  A    between atoms: C_10  and  C_13
REMARK    8  A    between atoms: C_13  and  N_14
REMARK    9  A    between atoms: N_14  and  C_15
REMARK   10  A    between atoms: C_18  and  C_19
REMARK                            x       y       z     vdW  Elec       q    Type
REMARK                         _______ _______ _______ _____ _____    ______ ____
ROOT
ATOM      1  C   UNL     1      51.056   8.996  12.091  0.00  0.00    +0.000 C 
ATOM      2  C   UNL     1      50.469   9.926  10.998  0.00  0.00    +0.000 C 
ATOM      3  C   UNL     1      51.720   9.882  13.171  0.00  0.00    +0.000 C 
ENDROOT
BRANCH   1   7
ATOM      4  N   UNL     1      46.716   6.624  11.644  0.00  0.00    +0.000 N 
ATOM      5  C   UNL     1      47.762   7.052  12.486  0.00  0.00    +0.000 A 
ATOM      6  C   UNL     1      48.775   7.844  11.944  0.00  0.00    +0.000 A 
ATOM      7  C   UNL     1      49.910   8.172  12.708  0.00  0.00    +0.000 A 
ATOM      8  C   UNL     1      49.942   7.674  14.015  0.00  0.00    +0.000 A 
ATOM      9  C   UNL     1      48.863   6.954  14.499  0.00  0.00    +0.000 A 
ATOM     10  N   UNL     1      47.787   6.631  13.763  0.00  0.00    +0.000 NA
ATOM     11  H   UNL     1      46.145   7.430  11.408  0.00  0.00    +0.000 HD
BRANCH   4  16
ATOM     12  C   UNL     1      43.673   3.492  12.455  0.00  0.00    +0.000 C 
ATOM     13  C   UNL     1      43.838   4.940  11.999  0.00  0.00    +0.000 C 
ATOM     14  C   UNL     1      42.495   5.587  11.678  0.00  0.00    +0.000 C 
ATOM     15  C   UNL     1      44.901   5.120  10.883  0.00  0.00    +0.000 C 
ATOM     16  C   UNL     1      45.939   5.466  11.982  0.00  0.00    +0.000 C 
ATOM     17  C   UNL     1      44.755   5.808  12.913  0.00  0.00    +0.000 C 
ENDBRANCH   4  16
ENDBRANCH   1   7
BRANCH   1  18
ATOM     18  C   UNL     1      52.175   8.155  11.391  0.00  0.00    +0.000 C 
BRANCH  18  19
ATOM     19  N   UNL     1      52.330   8.472   9.961  0.00  0.00    +0.000 N 
ATOM     20  H   UNL     1      52.813   9.349   9.785  0.00  0.00    +0.000 HD
BRANCH  19  21
ATOM     21  C   UNL     1      52.733   7.439   9.107  0.00  0.00    +0.000 A 
ATOM     22  C   UNL     1      53.363   6.280   9.569  0.00  0.00    +0.000 A 
ATOM     23  C   UNL     1      53.652   5.231   8.700  0.00  0.00    +0.000 A 
ATOM     24  C   UNL     1      53.294   5.365   7.368  0.00  0.00    +0.000 A 
ATOM     25  N   UNL     1      52.680   6.467   6.856  0.00  0.00    +0.000 NA
ATOM     26  C   UNL     1      52.407   7.455   7.744  0.00  0.00    +0.000 A 
BRANCH  24  27
ATOM     27  C   UNL     1      53.557   4.235   6.419  0.00  0.00    +0.000 C 
ATOM     28  N   UNL     1      53.265   2.989   6.891  0.00  0.00    +0.000 N 
ATOM     29  O   UNL     1      54.012   4.410   5.293  0.00  0.00    +0.000 OA
ATOM     30  H   UNL     1      52.923   2.885   7.841  0.00  0.00    +0.000 HD
ATOM     31  H   UNL     1      53.453   2.179   6.317  0.00  0.00    +0.000 HD
ENDBRANCH  24  27
ENDBRANCH  19  21
ENDBRANCH  18  19
ENDBRANCH   1  18
TORSDOF 6
ENDMDL
