MODEL 1
REMARK VINA RESULT:    -7.925      0.000      0.000
REMARK INTER + INTRA:         -11.887
REMARK INTER:                 -10.704
REMARK INTRA:                  -1.183
REMARK UNBOUND:                -1.183
REMARK  Name = 
REMARK  6 active torsions:
REMARK  status: ('A' for Active; 'I' for Inactive)
REMARK    1  A    between atoms: C_2  and  C_20
REMARK    2  A    between atoms: N_3  and  C_4
REMARK    3  A    between atoms: C_4  and  C_5
REMARK    4  A    between atoms: C_8  and  C_9
REMARK    5  A    between atoms: C_9  and  N_10
REMARK    6  A    between atoms: C_11  and  C_13
REMARK                            x       y       z     vdW  Elec       q    Type
REMARK                         _______ _______ _______ _____ _____    ______ ____
ROOT
ATOM      1  C   UNL     1      46.044   4.392  13.083  0.00  0.00    +0.000 A 
ATOM      2  C   UNL     1      46.038   5.572  12.326  0.00  0.00    +0.000 A 
ATOM      3  C   UNL     1      45.453   5.605  11.054  0.00  0.00    +0.000 A 
ATOM      4  C   UNL     1      44.840   4.462  10.522  0.00  0.00    +0.000 A 
ATOM      5  C   UNL     1      44.842   3.284  11.281  0.00  0.00    +0.000 A 
ATOM      6  C   UNL     1      45.428   3.252  12.552  0.00  0.00    +0.000 A 
ENDROOT
BRANCH   1   7
ATOM      7  C   UNL     1      46.648   4.369  14.465  0.00  0.00    +0.000 C 
BRANCH   7  10
ATOM      8  O   UNL     1      48.699   4.752  16.322  0.00  0.00    +0.000 OA
ATOM      9  C   UNL     1      48.333   5.710  15.646  0.00  0.00    +0.000 C 
ATOM     10  N   UNL     1      47.282   5.627  14.770  0.00  0.00    +0.000 N 
ATOM     11  H   UNL     1      47.145   6.373  14.095  0.00  0.00    +0.000 HD
BRANCH   9  12
ATOM     12  C   UNL     1      48.976   7.027  15.768  0.00  0.00    +0.000 A 
ATOM     13  C   UNL     1      49.077   7.640  17.010  0.00  0.00    +0.000 A 
ATOM     14  S   UNL     1      49.834   9.169  16.956  0.00  0.00    +0.000 S 
ATOM     15  C   UNL     1      50.096   9.044  15.280  0.00  0.00    +0.000 A 
ATOM     16  N   UNL     1      50.743  10.026  14.595  0.00  0.00    +0.000 NA
ATOM     17  C   UNL     1      50.903   9.783  13.337  0.00  0.00    +0.000 A 
ATOM     18  N   UNL     1      50.470   8.651  12.699  0.00  0.00    +0.000 N 
ATOM     19  C   UNL     1      49.781   7.650  13.342  0.00  0.00    +0.000 A 
ATOM     20  O   UNL     1      49.358   6.676  12.728  0.00  0.00    +0.000 OA
ATOM     21  C   UNL     1      49.591   7.863  14.764  0.00  0.00    +0.000 A 
ATOM     22  H   UNL     1      50.613   8.526  11.708  0.00  0.00    +0.000 HD
ENDBRANCH   9  12
ENDBRANCH   7  10
ENDBRANCH   1   7
BRANCH   4  23
ATOM     23  C   UNL     1      44.173   4.501   9.171  0.00  0.00    +0.000 C 
BRANCH  23  24
ATOM     24  N   UNL     1      44.663   3.471   8.282  0.00  0.00    +0.000 N 
ATOM     25  C   UNL     1      45.823   3.670   7.557  0.00  0.00    +0.000 C 
ATOM     26  O   UNL     1      46.468   4.710   7.641  0.00  0.00    +0.000 OA
ATOM     27  H   UNL     1      44.109   2.635   8.151  0.00  0.00    +0.000 HD
BRANCH  25  28
ATOM     28  C   UNL     1      46.180   2.526   6.608  0.00  0.00    +0.000 C 
ATOM     29  C   UNL     1      47.044   1.455   7.265  0.00  0.00    +0.000 C 
ATOM     30  C   UNL     1      48.448   1.803   6.816  0.00  0.00    +0.000 C 
ATOM     31  N   UNL     1      48.279   2.234   5.429  0.00  0.00    +0.000 NA
ATOM     32  C   UNL     1      47.006   2.980   5.398  0.00  0.00    +0.000 C 
ATOM     33  H   UNL     1      48.199   1.413   4.829  0.00  0.00    +0.000 HD
ENDBRANCH  25  28
ENDBRANCH  23  24
ENDBRANCH   4  23
TORSDOF 6
ENDMDL
MODEL 2
REMARK VINA RESULT:    -7.835      2.032      3.496
REMARK INTER + INTRA:         -11.766
REMARK INTER:                 -10.593
REMARK INTRA:                  -1.173
REMARK UNBOUND:                -1.183
REMARK  Name = 
REMARK  6 active torsions:
REMARK  status: ('A' for Active; 'I' for Inactive)
REMARK    1  A    between atoms: C_2  and  C_20
REMARK    2  A    between atoms: N_3  and  C_4
REMARK    3  A    between atoms: C_4  and  C_5
REMARK    4  A    between atoms: C_8  and  C_9
REMARK    5  A    between atoms: C_9  and  N_10
REMARK    6  A    between atoms: C_11  and  C_13
REMARK                            x       y       z     vdW  Elec       q    Type
REMARK                         _______ _______ _______ _____ _____    ______ ____
ROOT
ATOM      1  C   UNL     1      46.034   6.741  12.335  0.00  0.00    +0.000 A 
ATOM      2  C   UNL     1      46.325   6.595  10.970  0.00  0.00    +0.000 A 
ATOM      3  C   UNL     1      45.647   5.651  10.190  0.00  0.00    +0.000 A 
ATOM      4  C   UNL     1      44.645   4.848  10.752  0.00  0.00    +0.000 A 
ATOM      5  C   UNL     1      44.352   4.997  12.115  0.00  0.00    +0.000 A 
ATOM      6  C   UNL     1      45.030   5.940  12.894  0.00  0.00    +0.000 A 
ENDROOT
BRANCH   1   7
ATOM      7  C   UNL     1      46.744   7.781  13.164  0.00  0.00    +0.000 C 
BRANCH   7  10
ATOM      8  O   UNL     1      49.281   6.654  13.469  0.00  0.00    +0.000 OA
ATOM      9  C   UNL     1      48.553   6.736  14.455  0.00  0.00    +0.000 C 
ATOM     10  N   UNL     1      47.267   7.203  14.377  0.00  0.00    +0.000 N 
ATOM     11  H   UNL     1      46.777   7.440  15.234  0.00  0.00    +0.000 HD
BRANCH   9  12
ATOM     12  C   UNL     1      49.004   6.294  15.783  0.00  0.00    +0.000 A 
ATOM     13  C   UNL     1      49.972   7.019  16.466  0.00  0.00    +0.000 A 
ATOM     14  S   UNL     1      50.385   6.348  17.981  0.00  0.00    +0.000 S 
ATOM     15  C   UNL     1      49.251   5.092  17.797  0.00  0.00    +0.000 A 
ATOM     16  N   UNL     1      49.069   4.162  18.774  0.00  0.00    +0.000 NA
ATOM     17  C   UNL     1      48.152   3.290  18.516  0.00  0.00    +0.000 A 
ATOM     18  N   UNL     1      47.405   3.258  17.369  0.00  0.00    +0.000 N 
ATOM     19  C   UNL     1      47.579   4.154  16.341  0.00  0.00    +0.000 A 
ATOM     20  O   UNL     1      46.931   4.062  15.303  0.00  0.00    +0.000 OA
ATOM     21  C   UNL     1      48.584   5.170  16.587  0.00  0.00    +0.000 A 
ATOM     22  H   UNL     1      46.712   2.540  17.220  0.00  0.00    +0.000 HD
ENDBRANCH   9  12
ENDBRANCH   7  10
ENDBRANCH   1   7
BRANCH   4  23
ATOM     23  C   UNL     1      43.884   3.857   9.909  0.00  0.00    +0.000 C 
BRANCH  23  24
ATOM     24  N   UNL     1      44.483   3.663   8.607  0.00  0.00    +0.000 N 
ATOM     25  C   UNL     1      45.322   2.589   8.378  0.00  0.00    +0.000 C 
ATOM     26  O   UNL     1      45.585   1.775   9.258  0.00  0.00    +0.000 OA
ATOM     27  H   UNL     1      44.329   4.361   7.891  0.00  0.00    +0.000 HD
BRANCH  25  28
ATOM     28  C   UNL     1      45.936   2.553   6.978  0.00  0.00    +0.000 C 
ATOM     29  C   UNL     1      46.739   1.284   6.714  0.00  0.00    +0.000 C 
ATOM     30  C   UNL     1      48.173   1.711   6.953  0.00  0.00    +0.000 C 
ATOM     31  N   UNL     1      48.235   3.064   6.400  0.00  0.00    +0.000 NA
ATOM     32  C   UNL     1      46.938   3.687   6.728  0.00  0.00    +0.000 C 
ATOM     33  H   UNL     1      48.331   3.009   5.386  0.00  0.00    +0.000 HD
ENDBRANCH  25  28
ENDBRANCH  23  24
ENDBRANCH   4  23
TORSDOF 6
ENDMDL
MODEL 3
REMARK VINA RESULT:    -7.376      2.674      3.814
REMARK INTER + INTRA:         -11.146
REMARK INTER:                 -10.309
REMARK INTRA:                  -0.837
REMARK UNBOUND:                -1.183
REMARK  Name = 
REMARK  6 active torsions:
REMARK  status: ('A' for Active; 'I' for Inactive)
REMARK    1  A    between atoms: C_2  and  C_20
REMARK    2  A    between atoms: N_3  and  C_4
REMARK    3  A    between atoms: C_4  and  C_5
REMARK    4  A    between atoms: C_8  and  C_9
REMARK    5  A    between atoms: C_9  and  N_10
REMARK    6  A    between atoms: C_11  and  C_13
REMARK                            x       y       z     vdW  Elec       q    Type
REMARK                         _______ _______ _______ _____ _____    ______ ____
ROOT
ATOM      1  C   UNL     1      46.848   6.209  12.813  0.00  0.00    +0.000 A 
ATOM      2  C   UNL     1      46.702   6.675  11.498  0.00  0.00    +0.000 A 
ATOM      3  C   UNL     1      45.774   6.088  10.629  0.00  0.00    +0.000 A 
ATOM      4  C   UNL     1      44.954   5.038  11.064  0.00  0.00    +0.000 A 
ATOM      5  C   UNL     1      45.097   4.576  12.380  0.00  0.00    +0.000 A 
ATOM      6  C   UNL     1      46.026   5.163  13.247  0.00  0.00    +0.000 A 
ENDROOT
BRANCH   1   7
ATOM      7  C   UNL     1      47.826   6.864  13.755  0.00  0.00    +0.000 C 
BRANCH   7  10
ATOM      8  O   UNL     1      49.991   6.587  15.499  0.00  0.00    +0.000 OA
ATOM      9  C   UNL     1      48.882   6.213  15.875  0.00  0.00    +0.000 C 
ATOM     10  N   UNL     1      47.785   6.242  15.055  0.00  0.00    +0.000 N 
ATOM     11  H   UNL     1      46.863   6.117  15.462  0.00  0.00    +0.000 HD
BRANCH   9  12
ATOM     12  C   UNL     1      48.671   5.668  17.224  0.00  0.00    +0.000 A 
ATOM     13  C   UNL     1      48.902   4.322  17.475  0.00  0.00    +0.000 A 
ATOM     14  S   UNL     1      48.587   3.865  19.090  0.00  0.00    +0.000 S 
ATOM     15  C   UNL     1      48.177   5.459  19.521  0.00  0.00    +0.000 A 
ATOM     16  N   UNL     1      47.833   5.775  20.799  0.00  0.00    +0.000 NA
ATOM     17  C   UNL     1      47.581   7.027  20.991  0.00  0.00    +0.000 A 
ATOM     18  N   UNL     1      47.637   7.992  20.021  0.00  0.00    +0.000 N 
ATOM     19  C   UNL     1      47.945   7.715  18.710  0.00  0.00    +0.000 A 
ATOM     20  O   UNL     1      47.930   8.595  17.856  0.00  0.00    +0.000 OA
ATOM     21  C   UNL     1      48.256   6.324  18.443  0.00  0.00    +0.000 A 
ATOM     22  H   UNL     1      47.415   8.953  20.231  0.00  0.00    +0.000 HD
ENDBRANCH   9  12
ENDBRANCH   7  10
ENDBRANCH   1   7
BRANCH   4  23
ATOM     23  C   UNL     1      43.926   4.429  10.146  0.00  0.00    +0.000 C 
BRANCH  23  24
ATOM     24  N   UNL     1      44.451   4.160   8.826  0.00  0.00    +0.000 N 
ATOM     25  C   UNL     1      45.172   3.006   8.584  0.00  0.00    +0.000 C 
ATOM     26  O   UNL     1      45.388   2.181   9.466  0.00  0.00    +0.000 OA
ATOM     27  H   UNL     1      44.339   4.860   8.105  0.00  0.00    +0.000 HD
BRANCH  25  28
ATOM     28  C   UNL     1      45.724   2.892   7.163  0.00  0.00    +0.000 C 
ATOM     29  C   UNL     1      46.390   1.548   6.889  0.00  0.00    +0.000 C 
ATOM     30  C   UNL     1      47.866   1.836   7.068  0.00  0.00    +0.000 C 
ATOM     31  N   UNL     1      48.038   3.169   6.490  0.00  0.00    +0.000 NA
ATOM     32  C   UNL     1      46.821   3.919   6.856  0.00  0.00    +0.000 C 
ATOM     33  H   UNL     1      48.088   3.091   5.474  0.00  0.00    +0.000 HD
ENDBRANCH  25  28
ENDBRANCH  23  24
ENDBRANCH   4  23
TORSDOF 6
ENDMDL
MODEL 4
REMARK VINA RESULT:    -7.291      2.540      4.025
REMARK INTER + INTRA:         -11.032
REMARK INTER:                 -10.210
REMARK INTRA:                  -0.822
REMARK UNBOUND:                -1.183
REMARK  Name = 
REMARK  6 active torsions:
REMARK  status: ('A' for Active; 'I' for Inactive)
REMARK    1  A    between atoms: C_2  and  C_20
REMARK    2  A    between atoms: N_3  and  C_4
REMARK    3  A    between atoms: C_4  and  C_5
REMARK    4  A    between atoms: C_8  and  C_9
REMARK    5  A    between atoms: C_9  and  N_10
REMARK    6  A    between atoms: C_11  and  C_13
REMARK                            x       y       z     vdW  Elec       q    Type
REMARK                         _______ _______ _______ _____ _____    ______ ____
ROOT
ATOM      1  C   UNL     1      47.351   6.286  13.021  0.00  0.00    +0.000 A 
ATOM      2  C   UNL     1      46.491   5.289  13.505  0.00  0.00    +0.000 A 
ATOM      3  C   UNL     1      45.423   4.824  12.729  0.00  0.00    +0.000 A 
ATOM      4  C   UNL     1      45.206   5.329  11.440  0.00  0.00    +0.000 A 
ATOM      5  C   UNL     1      46.067   6.323  10.954  0.00  0.00    +0.000 A 
ATOM      6  C   UNL     1      47.134   6.788  11.731  0.00  0.00    +0.000 A 
ENDROOT
BRANCH   1   7
ATOM      7  C   UNL     1      48.519   6.762  13.847  0.00  0.00    +0.000 C 
BRANCH   7  10
ATOM      8  O   UNL     1      50.308   6.440  15.968  0.00  0.00    +0.000 OA
ATOM      9  C   UNL     1      49.135   6.699  16.224  0.00  0.00    +0.000 C 
ATOM     10  N   UNL     1      48.178   6.795  15.248  0.00  0.00    +0.000 N 
ATOM     11  H   UNL     1      47.278   7.204  15.480  0.00  0.00    +0.000 HD
BRANCH   9  12
ATOM     12  C   UNL     1      48.673   6.881  17.608  0.00  0.00    +0.000 A 
ATOM     13  C   UNL     1      48.185   8.113  18.022  0.00  0.00    +0.000 A 
ATOM     14  S   UNL     1      47.713   8.143  19.663  0.00  0.00    +0.000 S 
ATOM     15  C   UNL     1      48.098   6.498  19.863  0.00  0.00    +0.000 A 
ATOM     16  N   UNL     1      47.897   5.869  21.053  0.00  0.00    +0.000 NA
ATOM     17  C   UNL     1      48.200   4.614  21.052  0.00  0.00    +0.000 A 
ATOM     18  N   UNL     1      48.693   3.931  19.971  0.00  0.00    +0.000 N 
ATOM     19  C   UNL     1      48.946   4.532  18.761  0.00  0.00    +0.000 A 
ATOM     20  O   UNL     1      49.440   3.902  17.832  0.00  0.00    +0.000 OA
ATOM     21  C   UNL     1      48.603   5.940  18.702  0.00  0.00    +0.000 A 
ATOM     22  H   UNL     1      48.925   2.951  20.038  0.00  0.00    +0.000 HD
ENDBRANCH   9  12
ENDBRANCH   7  10
ENDBRANCH   1   7
BRANCH   4  23
ATOM     23  C   UNL     1      44.082   4.804  10.583  0.00  0.00    +0.000 C 
BRANCH  23  24
ATOM     24  N   UNL     1      44.507   4.509   9.233  0.00  0.00    +0.000 N 
ATOM     25  C   UNL     1      45.079   3.288   8.932  0.00  0.00    +0.000 C 
ATOM     26  O   UNL     1      45.244   2.424   9.788  0.00  0.00    +0.000 OA
ATOM     27  H   UNL     1      44.438   5.234   8.530  0.00  0.00    +0.000 HD
BRANCH  25  28
ATOM     28  C   UNL     1      45.542   3.145   7.482  0.00  0.00    +0.000 C 
ATOM     29  C   UNL     1      46.009   1.734   7.143  0.00  0.00    +0.000 C 
ATOM     30  C   UNL     1      47.517   1.819   7.252  0.00  0.00    +0.000 C 
ATOM     31  N   UNL     1      47.837   3.134   6.699  0.00  0.00    +0.000 NA
ATOM     32  C   UNL     1      46.751   4.028   7.145  0.00  0.00    +0.000 C 
ATOM     33  H   UNL     1      47.828   3.082   5.680  0.00  0.00    +0.000 HD
ENDBRANCH  25  28
ENDBRANCH  23  24
ENDBRANCH   4  23
TORSDOF 6
ENDMDL
MODEL 5
REMARK VINA RESULT:    -7.220      5.296      9.354
REMARK INTER + INTRA:         -10.935
REMARK INTER:                 -10.059
REMARK INTRA:                  -0.876
REMARK UNBOUND:                -1.183
REMARK  Name = 
REMARK  6 active torsions:
REMARK  status: ('A' for Active; 'I' for Inactive)
REMARK    1  A    between atoms: C_2  and  C_20
REMARK    2  A    between atoms: N_3  and  C_4
REMARK    3  A    between atoms: C_4  and  C_5
REMARK    4  A    between atoms: C_8  and  C_9
REMARK    5  A    between atoms: C_9  and  N_10
REMARK    6  A    between atoms: C_11  and  C_13
REMARK                            x       y       z     vdW  Elec       q    Type
REMARK                         _______ _______ _______ _____ _____    ______ ____
ROOT
ATOM      1  C   UNL     1      48.659   3.599  17.034  0.00  0.00    +0.000 A 
ATOM      2  C   UNL     1      49.511   2.486  17.078  0.00  0.00    +0.000 A 
ATOM      3  C   UNL     1      50.860   2.628  17.423  0.00  0.00    +0.000 A 
ATOM      4  C   UNL     1      51.382   3.886  17.756  0.00  0.00    +0.000 A 
ATOM      5  C   UNL     1      50.530   4.998  17.716  0.00  0.00    +0.000 A 
ATOM      6  C   UNL     1      49.181   4.854  17.370  0.00  0.00    +0.000 A 
ENDROOT
BRANCH   1   7
ATOM      7  C   UNL     1      47.200   3.437  16.693  0.00  0.00    +0.000 C 
BRANCH   7  10
ATOM      8  O   UNL     1      47.240   3.103  13.919  0.00  0.00    +0.000 OA
ATOM      9  C   UNL     1      46.773   4.142  14.379  0.00  0.00    +0.000 C 
ATOM     10  N   UNL     1      46.786   4.419  15.721  0.00  0.00    +0.000 N 
ATOM     11  H   UNL     1      46.218   5.183  16.072  0.00  0.00    +0.000 HD
BRANCH   9  12
ATOM     12  C   UNL     1      46.204   5.181  13.507  0.00  0.00    +0.000 A 
ATOM     13  C   UNL     1      46.946   6.313  13.199  0.00  0.00    +0.000 A 
ATOM     14  S   UNL     1      46.120   7.417  12.192  0.00  0.00    +0.000 S 
ATOM     15  C   UNL     1      44.761   6.398  12.094  0.00  0.00    +0.000 A 
ATOM     16  N   UNL     1      43.679   6.740  11.343  0.00  0.00    +0.000 NA
ATOM     17  C   UNL     1      42.736   5.858  11.331  0.00  0.00    +0.000 A 
ATOM     18  N   UNL     1      42.773   4.667  12.007  0.00  0.00    +0.000 N 
ATOM     19  C   UNL     1      43.828   4.296  12.806  0.00  0.00    +0.000 A 
ATOM     20  O   UNL     1      43.802   3.247  13.442  0.00  0.00    +0.000 OA
ATOM     21  C   UNL     1      44.925   5.243  12.839  0.00  0.00    +0.000 A 
ATOM     22  H   UNL     1      41.996   4.025  11.970  0.00  0.00    +0.000 HD
ENDBRANCH   9  12
ENDBRANCH   7  10
ENDBRANCH   1   7
BRANCH   4  23
ATOM     23  C   UNL     1      52.824   4.040  18.167  0.00  0.00    +0.000 C 
BRANCH  23  24
ATOM     24  N   UNL     1      53.631   2.898  17.798  0.00  0.00    +0.000 N 
ATOM     25  C   UNL     1      54.172   2.082  18.773  0.00  0.00    +0.000 C 
ATOM     26  O   UNL     1      53.990   2.295  19.968  0.00  0.00    +0.000 OA
ATOM     27  H   UNL     1      53.844   2.747  16.821  0.00  0.00    +0.000 HD
BRANCH  25  28
ATOM     28  C   UNL     1      55.058   0.957  18.237  0.00  0.00    +0.000 C 
ATOM     29  C   UNL     1      55.073   0.887  16.714  0.00  0.00    +0.000 C 
ATOM     30  C   UNL     1      54.082  -0.214  16.397  0.00  0.00    +0.000 C 
ATOM     31  N   UNL     1      54.312  -1.209  17.443  0.00  0.00    +0.000 NA
ATOM     32  C   UNL     1      54.591  -0.438  18.670  0.00  0.00    +0.000 C 
ATOM     33  H   UNL     1      55.134  -1.764  17.205  0.00  0.00    +0.000 HD
ENDBRANCH  25  28
ENDBRANCH  23  24
ENDBRANCH   4  23
TORSDOF 6
ENDMDL
MODEL 6
REMARK VINA RESULT:    -6.967      2.774      3.329
REMARK INTER + INTRA:         -10.594
REMARK INTER:                  -9.758
REMARK INTRA:                  -0.836
REMARK UNBOUND:                -1.183
REMARK  Name = 
REMARK  6 active torsions:
REMARK  status: ('A' for Active; 'I' for Inactive)
REMARK    1  A    between atoms: C_2  and  C_20
REMARK    2  A    between atoms: N_3  and  C_4
REMARK    3  A    between atoms: C_4  and  C_5
REMARK    4  A    between atoms: C_8  and  C_9
REMARK    5  A    between atoms: C_9  and  N_10
REMARK    6  A    between atoms: C_11  and  C_13
REMARK                            x       y       z     vdW  Elec       q    Type
REMARK                         _______ _______ _______ _____ _____    ______ ____
ROOT
ATOM      1  C   UNL     1      46.632   6.286  12.845  0.00  0.00    +0.000 A 
ATOM      2  C   UNL     1      46.525   6.630  11.490  0.00  0.00    +0.000 A 
ATOM      3  C   UNL     1      45.744   5.865  10.616  0.00  0.00    +0.000 A 
ATOM      4  C   UNL     1      45.032   4.752  11.083  0.00  0.00    +0.000 A 
ATOM      5  C   UNL     1      45.136   4.410  12.439  0.00  0.00    +0.000 A 
ATOM      6  C   UNL     1      45.918   5.175  13.312  0.00  0.00    +0.000 A 
ENDROOT
BRANCH   1   7
ATOM      7  C   UNL     1      47.449   7.130  13.790  0.00  0.00    +0.000 C 
BRANCH   7  10
ATOM      8  O   UNL     1      48.824   8.071  16.033  0.00  0.00    +0.000 OA
ATOM      9  C   UNL     1      48.686   6.858  15.895  0.00  0.00    +0.000 C 
ATOM     10  N   UNL     1      48.094   6.311  14.786  0.00  0.00    +0.000 N 
ATOM     11  H   UNL     1      47.823   5.333  14.805  0.00  0.00    +0.000 HD
BRANCH   9  12
ATOM     12  C   UNL     1      49.190   5.908  16.897  0.00  0.00    +0.000 A 
ATOM     13  C   UNL     1      48.299   5.166  17.662  0.00  0.00    +0.000 A 
ATOM     14  S   UNL     1      49.062   4.131  18.786  0.00  0.00    +0.000 S 
ATOM     15  C   UNL     1      50.609   4.603  18.256  0.00  0.00    +0.000 A 
ATOM     16  N   UNL     1      51.733   4.057  18.796  0.00  0.00    +0.000 NA
ATOM     17  C   UNL     1      52.835   4.481  18.274  0.00  0.00    +0.000 A 
ATOM     18  N   UNL     1      52.918   5.406  17.267  0.00  0.00    +0.000 N 
ATOM     19  C   UNL     1      51.813   6.010  16.717  0.00  0.00    +0.000 A 
ATOM     20  O   UNL     1      51.926   6.876  15.856  0.00  0.00    +0.000 OA
ATOM     21  C   UNL     1      50.545   5.555  17.253  0.00  0.00    +0.000 A 
ATOM     22  H   UNL     1      53.812   5.708  16.912  0.00  0.00    +0.000 HD
ENDBRANCH   9  12
ENDBRANCH   7  10
ENDBRANCH   1   7
BRANCH   4  23
ATOM     23  C   UNL     1      44.158   3.947  10.156  0.00  0.00    +0.000 C 
BRANCH  23  24
ATOM     24  N   UNL     1      44.723   3.824   8.830  0.00  0.00    +0.000 N 
ATOM     25  C   UNL     1      45.341   2.650   8.442  0.00  0.00    +0.000 C 
ATOM     26  O   UNL     1      45.430   1.686   9.197  0.00  0.00    +0.000 OA
ATOM     27  H   UNL     1      44.716   4.630   8.220  0.00  0.00    +0.000 HD
BRANCH  25  28
ATOM     28  C   UNL     1      45.952   2.689   7.042  0.00  0.00    +0.000 C 
ATOM     29  C   UNL     1      46.666   1.395   6.667  0.00  0.00    +0.000 C 
ATOM     30  C   UNL     1      48.125   1.700   6.936  0.00  0.00    +0.000 C 
ATOM     31  N   UNL     1      48.283   3.087   6.499  0.00  0.00    +0.000 NA
ATOM     32  C   UNL     1      47.031   3.768   6.884  0.00  0.00    +0.000 C 
ATOM     33  H   UNL     1      48.376   3.111   5.483  0.00  0.00    +0.000 HD
ENDBRANCH  25  28
ENDBRANCH  23  24
ENDBRANCH   4  23
TORSDOF 6
ENDMDL
MODEL 7
REMARK VINA RESULT:    -6.753      4.568      8.996
REMARK INTER + INTRA:         -10.304
REMARK INTER:                  -9.293
REMARK INTRA:                  -1.012
REMARK UNBOUND:                -1.183
REMARK  Name = 
REMARK  6 active torsions:
REMARK  status: ('A' for Active; 'I' for Inactive)
REMARK    1  A    between atoms: C_2  and  C_20
REMARK    2  A    between atoms: N_3  and  C_4
REMARK    3  A    between atoms: C_4  and  C_5
REMARK    4  A    between atoms: C_8  and  C_9
REMARK    5  A    between atoms: C_9  and  N_10
REMARK    6  A    between atoms: C_11  and  C_13
REMARK                            x       y       z     vdW  Elec       q    Type
REMARK                         _______ _______ _______ _____ _____    ______ ____
ROOT
ATOM      1  C   UNL     1      48.608   3.527  17.118  0.00  0.00    +0.000 A 
ATOM      2  C   UNL     1      49.454   2.412  17.025  0.00  0.00    +0.000 A 
ATOM      3  C   UNL     1      50.809   2.510  17.366  0.00  0.00    +0.000 A 
ATOM      4  C   UNL     1      51.341   3.720  17.832  0.00  0.00    +0.000 A 
ATOM      5  C   UNL     1      50.494   4.833  17.929  0.00  0.00    +0.000 A 
ATOM      6  C   UNL     1      49.140   4.734  17.587  0.00  0.00    +0.000 A 
ENDROOT
BRANCH   1   7
ATOM      7  C   UNL     1      47.143   3.410  16.780  0.00  0.00    +0.000 C 
BRANCH   7  10
ATOM      8  O   UNL     1      47.205   3.092  14.005  0.00  0.00    +0.000 OA
ATOM      9  C   UNL     1      46.752   4.137  14.467  0.00  0.00    +0.000 C 
ATOM     10  N   UNL     1      46.758   4.405  15.811  0.00  0.00    +0.000 N 
ATOM     11  H   UNL     1      46.199   5.177  16.160  0.00  0.00    +0.000 HD
BRANCH   9  12
ATOM     12  C   UNL     1      46.212   5.191  13.596  0.00  0.00    +0.000 A 
ATOM     13  C   UNL     1      46.982   6.306  13.293  0.00  0.00    +0.000 A 
ATOM     14  S   UNL     1      46.186   7.433  12.287  0.00  0.00    +0.000 S 
ATOM     15  C   UNL     1      44.803   6.446  12.181  0.00  0.00    +0.000 A 
ATOM     16  N   UNL     1      43.732   6.817  11.427  0.00  0.00    +0.000 NA
ATOM     17  C   UNL     1      42.769   5.957  11.410  0.00  0.00    +0.000 A 
ATOM     18  N   UNL     1      42.774   4.764  12.083  0.00  0.00    +0.000 N 
ATOM     19  C   UNL     1      43.817   4.365  12.884  0.00  0.00    +0.000 A 
ATOM     20  O   UNL     1      43.765   3.316  13.517  0.00  0.00    +0.000 OA
ATOM     21  C   UNL     1      44.937   5.286  12.923  0.00  0.00    +0.000 A 
ATOM     22  H   UNL     1      41.983   4.140  12.041  0.00  0.00    +0.000 HD
ENDBRANCH   9  12
ENDBRANCH   7  10
ENDBRANCH   1   7
BRANCH   4  23
ATOM     23  C   UNL     1      52.789   3.822  18.239  0.00  0.00    +0.000 C 
BRANCH  23  24
ATOM     24  N   UNL     1      53.554   4.674  17.355  0.00  0.00    +0.000 N 
ATOM     25  C   UNL     1      54.081   5.865  17.817  0.00  0.00    +0.000 C 
ATOM     26  O   UNL     1      53.921   6.236  18.976  0.00  0.00    +0.000 OA
ATOM     27  H   UNL     1      53.639   4.415  16.381  0.00  0.00    +0.000 HD
BRANCH  25  28
ATOM     28  C   UNL     1      54.804   6.692  16.754  0.00  0.00    +0.000 C 
ATOM     29  C   UNL     1      54.074   7.986  16.409  0.00  0.00    +0.000 C 
ATOM     30  C   UNL     1      53.324   7.647  15.138  0.00  0.00    +0.000 C 
ATOM     31  N   UNL     1      54.255   6.799  14.394  0.00  0.00    +0.000 NA
ATOM     32  C   UNL     1      54.932   5.967  15.409  0.00  0.00    +0.000 C 
ATOM     33  H   UNL     1      54.948   7.387  13.930  0.00  0.00    +0.000 HD
ENDBRANCH  25  28
ENDBRANCH  23  24
ENDBRANCH   4  23
TORSDOF 6
ENDMDL
MODEL 8
REMARK VINA RESULT:    -6.648      3.226      9.249
REMARK INTER + INTRA:         -10.163
REMARK INTER:                  -9.087
REMARK INTRA:                  -1.076
REMARK UNBOUND:                -1.183
REMARK  Name = 
REMARK  6 active torsions:
REMARK  status: ('A' for Active; 'I' for Inactive)
REMARK    1  A    between atoms: C_2  and  C_20
REMARK    2  A    between atoms: N_3  and  C_4
REMARK    3  A    between atoms: C_4  and  C_5
REMARK    4  A    between atoms: C_8  and  C_9
REMARK    5  A    between atoms: C_9  and  N_10
REMARK    6  A    between atoms: C_11  and  C_13
REMARK                            x       y       z     vdW  Elec       q    Type
REMARK                         _______ _______ _______ _____ _____    ______ ____
ROOT
ATOM      1  C   UNL     1      48.103   7.983  13.176  0.00  0.00    +0.000 A 
ATOM      2  C   UNL     1      48.410   6.836  13.922  0.00  0.00    +0.000 A 
ATOM      3  C   UNL     1      49.022   6.939  15.177  0.00  0.00    +0.000 A 
ATOM      4  C   UNL     1      49.320   8.194  15.724  0.00  0.00    +0.000 A 
ATOM      5  C   UNL     1      49.010   9.341  14.980  0.00  0.00    +0.000 A 
ATOM      6  C   UNL     1      48.398   9.237  13.725  0.00  0.00    +0.000 A 
ENDROOT
BRANCH   1   7
ATOM      7  C   UNL     1      47.415   7.869  11.839  0.00  0.00    +0.000 C 
BRANCH   7  10
ATOM      8  O   UNL     1      44.644   7.524  11.782  0.00  0.00    +0.000 OA
ATOM      9  C   UNL     1      45.361   6.539  11.629  0.00  0.00    +0.000 C 
ATOM     10  N   UNL     1      46.727   6.608  11.720  0.00  0.00    +0.000 N 
ATOM     11  H   UNL     1      47.282   5.824  11.391  0.00  0.00    +0.000 HD
BRANCH   9  12
ATOM     12  C   UNL     1      44.793   5.206  11.378  0.00  0.00    +0.000 A 
ATOM     13  C   UNL     1      43.983   4.604  12.331  0.00  0.00    +0.000 A 
ATOM     14  S   UNL     1      43.431   3.053  11.877  0.00  0.00    +0.000 S 
ATOM     15  C   UNL     1      44.216   3.153  10.370  0.00  0.00    +0.000 A 
ATOM     16  N   UNL     1      44.119   2.146   9.460  0.00  0.00    +0.000 NA
ATOM     17  C   UNL     1      44.734   2.371   8.347  0.00  0.00    +0.000 A 
ATOM     18  N   UNL     1      45.444   3.508   8.063  0.00  0.00    +0.000 N 
ATOM     19  C   UNL     1      45.599   4.535   8.965  0.00  0.00    +0.000 A 
ATOM     20  O   UNL     1      46.288   5.513   8.698  0.00  0.00    +0.000 OA
ATOM     21  C   UNL     1      44.910   4.342  10.226  0.00  0.00    +0.000 A 
ATOM     22  H   UNL     1      45.916   3.619   7.179  0.00  0.00    +0.000 HD
ENDBRANCH   9  12
ENDBRANCH   7  10
ENDBRANCH   1   7
BRANCH   4  23
ATOM     23  C   UNL     1      49.942   8.314  17.091  0.00  0.00    +0.000 C 
BRANCH  23  24
ATOM     24  N   UNL     1      50.230   7.026  17.683  0.00  0.00    +0.000 N 
ATOM     25  C   UNL     1      49.356   6.469  18.598  0.00  0.00    +0.000 C 
ATOM     26  O   UNL     1      48.322   7.037  18.934  0.00  0.00    +0.000 OA
ATOM     27  H   UNL     1      51.109   6.575  17.467  0.00  0.00    +0.000 HD
BRANCH  25  28
ATOM     28  C   UNL     1      49.825   5.140  19.191  0.00  0.00    +0.000 C 
ATOM     29  C   UNL     1      49.936   4.030  18.152  0.00  0.00    +0.000 C 
ATOM     30  C   UNL     1      48.647   3.252  18.319  0.00  0.00    +0.000 C 
ATOM     31  N   UNL     1      48.424   3.245  19.764  0.00  0.00    +0.000 NA
ATOM     32  C   UNL     1      48.859   4.573  20.240  0.00  0.00    +0.000 C 
ATOM     33  H   UNL     1      49.011   2.529  20.192  0.00  0.00    +0.000 HD
ENDBRANCH  25  28
ENDBRANCH  23  24
ENDBRANCH   4  23
TORSDOF 6
ENDMDL
MODEL 9
REMARK VINA RESULT:    -6.444      2.727      4.182
REMARK INTER + INTRA:          -9.887
REMARK INTER:                  -8.894
REMARK INTRA:                  -0.993
REMARK UNBOUND:                -1.183
REMARK  Name = 
REMARK  6 active torsions:
REMARK  status: ('A' for Active; 'I' for Inactive)
REMARK    1  A    between atoms: C_2  and  C_20
REMARK    2  A    between atoms: N_3  and  C_4
REMARK    3  A    between atoms: C_4  and  C_5
REMARK    4  A    between atoms: C_8  and  C_9
REMARK    5  A    between atoms: C_9  and  N_10
REMARK    6  A    between atoms: C_11  and  C_13
REMARK                            x       y       z     vdW  Elec       q    Type
REMARK                         _______ _______ _______ _____ _____    ______ ____
ROOT
ATOM      1  C   UNL     1      48.033   7.469  12.636  0.00  0.00    +0.000 A 
ATOM      2  C   UNL     1      47.852   6.213  13.234  0.00  0.00    +0.000 A 
ATOM      3  C   UNL     1      46.619   5.554  13.158  0.00  0.00    +0.000 A 
ATOM      4  C   UNL     1      45.546   6.127  12.462  0.00  0.00    +0.000 A 
ATOM      5  C   UNL     1      45.728   7.381  11.861  0.00  0.00    +0.000 A 
ATOM      6  C   UNL     1      46.961   8.038  11.938  0.00  0.00    +0.000 A 
ENDROOT
BRANCH   1   7
ATOM      7  C   UNL     1      49.372   8.161  12.693  0.00  0.00    +0.000 C 
BRANCH   7  10
ATOM      8  O   UNL     1      49.815   8.895  15.351  0.00  0.00    +0.000 OA
ATOM      9  C   UNL     1      50.360   7.880  14.924  0.00  0.00    +0.000 C 
ATOM     10  N   UNL     1      50.258   7.493  13.614  0.00  0.00    +0.000 N 
ATOM     11  H   UNL     1      50.550   6.556  13.354  0.00  0.00    +0.000 HD
BRANCH   9  12
ATOM     12  C   UNL     1      51.196   7.035  15.789  0.00  0.00    +0.000 A 
ATOM     13  C   UNL     1      52.579   7.155  15.752  0.00  0.00    +0.000 A 
ATOM     14  S   UNL     1      53.385   6.082  16.808  0.00  0.00    +0.000 S 
ATOM     15  C   UNL     1      51.913   5.454  17.385  0.00  0.00    +0.000 A 
ATOM     16  N   UNL     1      51.889   4.498  18.354  0.00  0.00    +0.000 NA
ATOM     17  C   UNL     1      50.704   4.139  18.721  0.00  0.00    +0.000 A 
ATOM     18  N   UNL     1      49.540   4.644  18.204  0.00  0.00    +0.000 N 
ATOM     19  C   UNL     1      49.516   5.583  17.201  0.00  0.00    +0.000 A 
ATOM     20  O   UNL     1      48.455   5.972  16.722  0.00  0.00    +0.000 OA
ATOM     21  C   UNL     1      50.822   6.037  16.764  0.00  0.00    +0.000 A 
ATOM     22  H   UNL     1      48.643   4.312  18.524  0.00  0.00    +0.000 HD
ENDBRANCH   9  12
ENDBRANCH   7  10
ENDBRANCH   1   7
BRANCH   4  23
ATOM     23  C   UNL     1      44.228   5.405  12.342  0.00  0.00    +0.000 C 
BRANCH  23  24
ATOM     24  N   UNL     1      44.020   4.848  11.025  0.00  0.00    +0.000 N 
ATOM     25  C   UNL     1      44.493   3.586  10.718  0.00  0.00    +0.000 C 
ATOM     26  O   UNL     1      45.096   2.905  11.541  0.00  0.00    +0.000 OA
ATOM     27  H   UNL     1      43.582   5.422  10.316  0.00  0.00    +0.000 HD
BRANCH  25  28
ATOM     28  C   UNL     1      44.261   3.158   9.269  0.00  0.00    +0.000 C 
ATOM     29  C   UNL     1      44.744   1.740   8.983  0.00  0.00    +0.000 C 
ATOM     30  C   UNL     1      46.100   1.945   8.341  0.00  0.00    +0.000 C 
ATOM     31  N   UNL     1      45.915   3.125   7.496  0.00  0.00    +0.000 NA
ATOM     32  C   UNL     1      45.022   4.021   8.255  0.00  0.00    +0.000 C 
ATOM     33  H   UNL     1      45.452   2.849   6.630  0.00  0.00    +0.000 HD
ENDBRANCH  25  28
ENDBRANCH  23  24
ENDBRANCH   4  23
TORSDOF 6
ENDMDL
