MODEL 1
REMARK VINA RESULT:    -8.006      0.000      0.000
REMARK INTER + INTRA:         -13.738
REMARK INTER:                 -12.686
REMARK INTRA:                  -1.052
REMARK UNBOUND:                -1.052
REMARK  Name = 
REMARK  11 active torsions:
REMARK  status: ('A' for Active; 'I' for Inactive)
REMARK    1  A    between atoms: N_1  and  C_2
REMARK    2  A    between atoms: C_2  and  C_3
REMARK    3  A    between atoms: C_3  and  N_4
REMARK    4  A    between atoms: C_3  and  C_21
REMARK    5  A    between atoms: N_4  and  C_5
REMARK    6  A    between atoms: C_5  and  C_6
REMARK    7  A    between atoms: C_9  and  C_10
REMARK    8  A    between atoms: C_10  and  C_11
REMARK    9  A    between atoms: C_10  and  C_13
REMARK   10  A    between atoms: C_11  and  O_12
REMARK   11  A    between atoms: C_13  and  C_14
REMARK                            x       y       z     vdW  Elec       q    Type
REMARK                         _______ _______ _______ _____ _____    ______ ____
ROOT
ATOM      1  N   UNL     1      48.453   4.736  15.841  0.00  0.00    +0.000 NA
ATOM      2  H   UNL     1      49.356   4.335  15.582  0.00  0.00    +0.000 HD
ENDROOT
BRANCH   1   3
ATOM      3  C   UNL     1      48.501   5.056  17.279  0.00  0.00    +0.000 C 
BRANCH   3   4
ATOM      4  C   UNL     1      49.910   4.719  17.748  0.00  0.00    +0.000 A 
ATOM      5  C   UNL     1      50.762   5.614  18.382  0.00  0.00    +0.000 A 
ATOM      6  S   UNL     1      52.286   4.944  18.760  0.00  0.00    +0.000 S 
ATOM      7  C   UNL     1      51.858   3.440  18.088  0.00  0.00    +0.000 A 
ATOM      8  N   UNL     1      52.732   2.396  18.083  0.00  0.00    +0.000 NA
ATOM      9  C   UNL     1      52.267   1.319  17.543  0.00  0.00    +0.000 A 
ATOM     10  N   UNL     1      51.010   1.188  17.008  0.00  0.00    +0.000 N 
ATOM     11  C   UNL     1      50.097   2.218  16.975  0.00  0.00    +0.000 A 
ATOM     12  O   UNL     1      48.987   2.068  16.473  0.00  0.00    +0.000 OA
ATOM     13  C   UNL     1      50.572   3.448  17.582  0.00  0.00    +0.000 A 
ATOM     14  H   UNL     1      50.710   0.316  16.600  0.00  0.00    +0.000 HD
ENDBRANCH   3   4
BRANCH   3  15
ATOM     15  C   UNL     1      47.424   4.320  18.136  0.00  0.00    +0.000 C 
BRANCH  15  16
ATOM     16  N   UNL     1      46.629   3.337  17.385  0.00  0.00    +0.000 NA
ATOM     17  H   UNL     1      46.558   3.635  16.413  0.00  0.00    +0.000 HD
ATOM     18  H   UNL     1      45.679   3.311  17.754  0.00  0.00    +0.000 HD
ENDBRANCH  15  16
ENDBRANCH   3  15
ENDBRANCH   1   3
BRANCH   1  19
ATOM     19  C   UNL     1      48.224   5.907  14.992  0.00  0.00    +0.000 C 
BRANCH  19  20
ATOM     20  C   UNL     1      47.134   5.632  13.980  0.00  0.00    +0.000 A 
ATOM     21  C   UNL     1      46.651   6.659  13.157  0.00  0.00    +0.000 A 
ATOM     22  C   UNL     1      45.608   6.423  12.257  0.00  0.00    +0.000 A 
ATOM     23  C   UNL     1      45.035   5.148  12.142  0.00  0.00    +0.000 A 
ATOM     24  C   UNL     1      45.571   4.108  12.913  0.00  0.00    +0.000 A 
ATOM     25  C   UNL     1      46.597   4.348  13.833  0.00  0.00    +0.000 A 
BRANCH  23  26
ATOM     26  C   UNL     1      43.829   4.941  11.227  0.00  0.00    +0.000 C 
BRANCH  26  27
ATOM     27  C   UNL     1      42.534   5.432  11.914  0.00  0.00    +0.000 C 
BRANCH  27  28
ATOM     28  O   UNL     1      42.578   5.311  13.335  0.00  0.00    +0.000 OA
ATOM     29  H   UNL     1      42.800   6.194  13.676  0.00  0.00    +0.000 HD
ENDBRANCH  27  28
ENDBRANCH  26  27
BRANCH  26  30
ATOM     30  C   UNL     1      43.739   3.488  10.712  0.00  0.00    +0.000 C 
BRANCH  30  31
ATOM     31  C   UNL     1      44.594   3.248   9.512  0.00  0.00    +0.000 A 
ATOM     32  C   UNL     1      45.273   2.137   9.060  0.00  0.00    +0.000 A 
ATOM     33  N   UNL     1      45.955   2.417   7.905  0.00  0.00    +0.000 NA
ATOM     34  C   UNL     1      45.692   3.676   7.641  0.00  0.00    +0.000 A 
ATOM     35  N   UNL     1      44.857   4.219   8.575  0.00  0.00    +0.000 N 
ATOM     36  H   UNL     1      44.520   5.173   8.591  0.00  0.00    +0.000 HD
ENDBRANCH  30  31
ENDBRANCH  26  30
ENDBRANCH  23  26
ENDBRANCH  19  20
ENDBRANCH   1  19
TORSDOF 11
ENDMDL
MODEL 2
REMARK VINA RESULT:    -7.156      2.184      3.073
REMARK INTER + INTRA:         -12.391
REMARK INTER:                 -11.316
REMARK INTRA:                  -1.074
REMARK UNBOUND:                -1.052
REMARK  Name = 
REMARK  11 active torsions:
REMARK  status: ('A' for Active; 'I' for Inactive)
REMARK    1  A    between atoms: N_1  and  C_2
REMARK    2  A    between atoms: C_2  and  C_3
REMARK    3  A    between atoms: C_3  and  N_4
REMARK    4  A    between atoms: C_3  and  C_21
REMARK    5  A    between atoms: N_4  and  C_5
REMARK    6  A    between atoms: C_5  and  C_6
REMARK    7  A    between atoms: C_9  and  C_10
REMARK    8  A    between atoms: C_10  and  C_11
REMARK    9  A    between atoms: C_10  and  C_13
REMARK   10  A    between atoms: C_11  and  O_12
REMARK   11  A    between atoms: C_13  and  C_14
REMARK                            x       y       z     vdW  Elec       q    Type
REMARK                         _______ _______ _______ _____ _____    ______ ____
ROOT
ATOM      1  N   UNL     1      48.646   6.170  15.031  0.00  0.00    +0.000 NA
ATOM      2  H   UNL     1      48.806   5.175  14.868  0.00  0.00    +0.000 HD
ENDROOT
BRANCH   1   3
ATOM      3  C   UNL     1      49.782   6.684  15.817  0.00  0.00    +0.000 C 
BRANCH   3   4
ATOM      4  C   UNL     1      49.265   6.885  17.236  0.00  0.00    +0.000 A 
ATOM      5  C   UNL     1      48.885   8.111  17.768  0.00  0.00    +0.000 A 
ATOM      6  S   UNL     1      48.376   8.013  19.394  0.00  0.00    +0.000 S 
ATOM      7  C   UNL     1      48.648   6.333  19.441  0.00  0.00    +0.000 A 
ATOM      8  N   UNL     1      48.409   5.612  20.570  0.00  0.00    +0.000 NA
ATOM      9  C   UNL     1      48.658   4.350  20.455  0.00  0.00    +0.000 A 
ATOM     10  N   UNL     1      49.125   3.742  19.316  0.00  0.00    +0.000 N 
ATOM     11  C   UNL     1      49.398   4.431  18.156  0.00  0.00    +0.000 A 
ATOM     12  O   UNL     1      49.831   3.855  17.162  0.00  0.00    +0.000 OA
ATOM     13  C   UNL     1      49.121   5.853  18.234  0.00  0.00    +0.000 A 
ATOM     14  H   UNL     1      49.300   2.749  19.295  0.00  0.00    +0.000 HD
ENDBRANCH   3   4
BRANCH   3  15
ATOM     15  C   UNL     1      50.416   7.993  15.251  0.00  0.00    +0.000 C 
BRANCH  15  16
ATOM     16  N   UNL     1      51.686   7.783  14.539  0.00  0.00    +0.000 NA
ATOM     17  H   UNL     1      52.215   7.049  15.007  0.00  0.00    +0.000 HD
ATOM     18  H   UNL     1      52.251   8.631  14.591  0.00  0.00    +0.000 HD
ENDBRANCH  15  16
ENDBRANCH   3  15
ENDBRANCH   1   3
BRANCH   1  19
ATOM     19  C   UNL     1      48.501   6.820  13.726  0.00  0.00    +0.000 C 
BRANCH  19  20
ATOM     20  C   UNL     1      47.313   6.261  12.976  0.00  0.00    +0.000 A 
ATOM     21  C   UNL     1      46.944   6.790  11.731  0.00  0.00    +0.000 A 
ATOM     22  C   UNL     1      45.816   6.313  11.058  0.00  0.00    +0.000 A 
ATOM     23  C   UNL     1      45.040   5.279  11.602  0.00  0.00    +0.000 A 
ATOM     24  C   UNL     1      45.456   4.703  12.810  0.00  0.00    +0.000 A 
ATOM     25  C   UNL     1      46.569   5.197  13.498  0.00  0.00    +0.000 A 
BRANCH  23  26
ATOM     26  C   UNL     1      43.755   4.846  10.897  0.00  0.00    +0.000 C 
BRANCH  26  27
ATOM     27  C   UNL     1      42.516   5.259  11.724  0.00  0.00    +0.000 C 
BRANCH  27  28
ATOM     28  O   UNL     1      42.237   6.657  11.649  0.00  0.00    +0.000 OA
ATOM     29  H   UNL     1      42.607   7.051  12.458  0.00  0.00    +0.000 HD
ENDBRANCH  27  28
ENDBRANCH  26  27
BRANCH  26  30
ATOM     30  C   UNL     1      43.776   3.347  10.530  0.00  0.00    +0.000 C 
BRANCH  30  31
ATOM     31  C   UNL     1      44.707   3.044   9.403  0.00  0.00    +0.000 A 
ATOM     32  C   UNL     1      45.151   3.793   8.335  0.00  0.00    +0.000 A 
ATOM     33  N   UNL     1      45.989   3.060   7.536  0.00  0.00    +0.000 NA
ATOM     34  C   UNL     1      46.072   1.880   8.108  0.00  0.00    +0.000 A 
ATOM     35  N   UNL     1      45.328   1.826   9.252  0.00  0.00    +0.000 N 
ATOM     36  H   UNL     1      45.226   1.023   9.860  0.00  0.00    +0.000 HD
ENDBRANCH  30  31
ENDBRANCH  26  30
ENDBRANCH  23  26
ENDBRANCH  19  20
ENDBRANCH   1  19
TORSDOF 11
ENDMDL
MODEL 3
REMARK VINA RESULT:    -7.091      2.935      8.624
REMARK INTER + INTRA:         -12.289
REMARK INTER:                 -11.484
REMARK INTRA:                  -0.805
REMARK UNBOUND:                -1.052
REMARK  Name = 
REMARK  11 active torsions:
REMARK  status: ('A' for Active; 'I' for Inactive)
REMARK    1  A    between atoms: N_1  and  C_2
REMARK    2  A    between atoms: C_2  and  C_3
REMARK    3  A    between atoms: C_3  and  N_4
REMARK    4  A    between atoms: C_3  and  C_21
REMARK    5  A    between atoms: N_4  and  C_5
REMARK    6  A    between atoms: C_5  and  C_6
REMARK    7  A    between atoms: C_9  and  C_10
REMARK    8  A    between atoms: C_10  and  C_11
REMARK    9  A    between atoms: C_10  and  C_13
REMARK   10  A    between atoms: C_11  and  O_12
REMARK   11  A    between atoms: C_13  and  C_14
REMARK                            x       y       z     vdW  Elec       q    Type
REMARK                         _______ _______ _______ _____ _____    ______ ____
ROOT
ATOM      1  N   UNL     1      46.672   6.289  11.806  0.00  0.00    +0.000 NA
ATOM      2  H   UNL     1      46.952   5.331  12.024  0.00  0.00    +0.000 HD
ENDROOT
BRANCH   1   3
ATOM      3  C   UNL     1      45.213   6.382  11.995  0.00  0.00    +0.000 C 
BRANCH   3   4
ATOM      4  C   UNL     1      44.647   5.010  11.651  0.00  0.00    +0.000 A 
ATOM      5  C   UNL     1      43.884   4.236  12.515  0.00  0.00    +0.000 A 
ATOM      6  S   UNL     1      43.420   2.735  11.846  0.00  0.00    +0.000 S 
ATOM      7  C   UNL     1      44.223   3.072  10.383  0.00  0.00    +0.000 A 
ATOM      8  N   UNL     1      44.221   2.178   9.356  0.00  0.00    +0.000 NA
ATOM      9  C   UNL     1      44.867   2.572   8.311  0.00  0.00    +0.000 A 
ATOM     10  N   UNL     1      45.516   3.776   8.195  0.00  0.00    +0.000 N 
ATOM     11  C   UNL     1      45.561   4.704   9.210  0.00  0.00    +0.000 A 
ATOM     12  O   UNL     1      46.167   5.764   9.076  0.00  0.00    +0.000 OA
ATOM     13  C   UNL     1      44.837   4.310  10.404  0.00  0.00    +0.000 A 
ATOM     14  H   UNL     1      46.005   4.020   7.347  0.00  0.00    +0.000 HD
ENDBRANCH   3   4
BRANCH   3  15
ATOM     15  C   UNL     1      44.528   7.508  11.159  0.00  0.00    +0.000 C 
BRANCH  15  16
ATOM     16  N   UNL     1      43.058   7.454  11.174  0.00  0.00    +0.000 NA
ATOM     17  H   UNL     1      42.687   8.373  10.936  0.00  0.00    +0.000 HD
ATOM     18  H   UNL     1      42.733   7.240  12.116  0.00  0.00    +0.000 HD
ENDBRANCH  15  16
ENDBRANCH   3  15
ENDBRANCH   1   3
BRANCH   1  19
ATOM     19  C   UNL     1      47.430   7.187  12.680  0.00  0.00    +0.000 C 
BRANCH  19  20
ATOM     20  C   UNL     1      47.795   6.497  13.975  0.00  0.00    +0.000 A 
ATOM     21  C   UNL     1      47.266   5.237  14.285  0.00  0.00    +0.000 A 
ATOM     22  C   UNL     1      47.559   4.618  15.503  0.00  0.00    +0.000 A 
ATOM     23  C   UNL     1      48.406   5.235  16.435  0.00  0.00    +0.000 A 
ATOM     24  C   UNL     1      48.992   6.460  16.089  0.00  0.00    +0.000 A 
ATOM     25  C   UNL     1      48.679   7.093  14.882  0.00  0.00    +0.000 A 
BRANCH  23  26
ATOM     26  C   UNL     1      48.628   4.587  17.801  0.00  0.00    +0.000 C 
BRANCH  26  27
ATOM     27  C   UNL     1      47.786   5.299  18.884  0.00  0.00    +0.000 C 
BRANCH  27  28
ATOM     28  O   UNL     1      46.389   5.303  18.590  0.00  0.00    +0.000 OA
ATOM     29  H   UNL     1      46.288   5.806  17.763  0.00  0.00    +0.000 HD
ENDBRANCH  27  28
ENDBRANCH  26  27
BRANCH  26  30
ATOM     30  C   UNL     1      50.127   4.488  18.156  0.00  0.00    +0.000 C 
BRANCH  30  31
ATOM     31  C   UNL     1      50.718   3.165  17.794  0.00  0.00    +0.000 A 
ATOM     32  C   UNL     1      50.240   2.102  17.058  0.00  0.00    +0.000 A 
ATOM     33  N   UNL     1      51.151   1.079  17.028  0.00  0.00    +0.000 NA
ATOM     34  C   UNL     1      52.180   1.507  17.722  0.00  0.00    +0.000 A 
ATOM     35  N   UNL     1      51.974   2.773  18.192  0.00  0.00    +0.000 N 
ATOM     36  H   UNL     1      52.617   3.310  18.759  0.00  0.00    +0.000 HD
ENDBRANCH  30  31
ENDBRANCH  26  30
ENDBRANCH  23  26
ENDBRANCH  19  20
ENDBRANCH   1  19
TORSDOF 11
ENDMDL
MODEL 4
REMARK VINA RESULT:    -7.041      2.082      2.602
REMARK INTER + INTRA:         -12.210
REMARK INTER:                 -11.069
REMARK INTRA:                  -1.141
REMARK UNBOUND:                -1.052
REMARK  Name = 
REMARK  11 active torsions:
REMARK  status: ('A' for Active; 'I' for Inactive)
REMARK    1  A    between atoms: N_1  and  C_2
REMARK    2  A    between atoms: C_2  and  C_3
REMARK    3  A    between atoms: C_3  and  N_4
REMARK    4  A    between atoms: C_3  and  C_21
REMARK    5  A    between atoms: N_4  and  C_5
REMARK    6  A    between atoms: C_5  and  C_6
REMARK    7  A    between atoms: C_9  and  C_10
REMARK    8  A    between atoms: C_10  and  C_11
REMARK    9  A    between atoms: C_10  and  C_13
REMARK   10  A    between atoms: C_11  and  O_12
REMARK   11  A    between atoms: C_13  and  C_14
REMARK                            x       y       z     vdW  Elec       q    Type
REMARK                         _______ _______ _______ _____ _____    ______ ____
ROOT
ATOM      1  N   UNL     1      47.872   7.212  15.074  0.00  0.00    +0.000 NA
ATOM      2  H   UNL     1      47.210   6.511  15.411  0.00  0.00    +0.000 HD
ENDROOT
BRANCH   1   3
ATOM      3  C   UNL     1      48.926   7.359  16.095  0.00  0.00    +0.000 C 
BRANCH   3   4
ATOM      4  C   UNL     1      49.130   5.978  16.704  0.00  0.00    +0.000 A 
ATOM      5  C   UNL     1      48.102   5.102  17.027  0.00  0.00    +0.000 A 
ATOM      6  S   UNL     1      48.651   3.641  17.719  0.00  0.00    +0.000 S 
ATOM      7  C   UNL     1      50.278   4.132  17.610  0.00  0.00    +0.000 A 
ATOM      8  N   UNL     1      51.287   3.327  18.042  0.00  0.00    +0.000 NA
ATOM      9  C   UNL     1      52.466   3.831  17.892  0.00  0.00    +0.000 A 
ATOM     10  N   UNL     1      52.731   5.065  17.353  0.00  0.00    +0.000 N 
ATOM     11  C   UNL     1      51.745   5.921  16.918  0.00  0.00    +0.000 A 
ATOM     12  O   UNL     1      52.020   7.025  16.456  0.00  0.00    +0.000 OA
ATOM     13  C   UNL     1      50.401   5.392  17.055  0.00  0.00    +0.000 A 
ATOM     14  H   UNL     1      53.679   5.399  17.266  0.00  0.00    +0.000 HD
ENDBRANCH   3   4
BRANCH   3  15
ATOM     15  C   UNL     1      48.614   8.425  17.191  0.00  0.00    +0.000 C 
BRANCH  15  16
ATOM     16  N   UNL     1      47.717   9.501  16.742  0.00  0.00    +0.000 NA
ATOM     17  H   UNL     1      48.247  10.368  16.662  0.00  0.00    +0.000 HD
ATOM     18  H   UNL     1      46.997   9.662  17.446  0.00  0.00    +0.000 HD
ENDBRANCH  15  16
ENDBRANCH   3  15
ENDBRANCH   1   3
BRANCH   1  19
ATOM     19  C   UNL     1      48.378   6.763  13.776  0.00  0.00    +0.000 C 
BRANCH  19  20
ATOM     20  C   UNL     1      47.269   6.156  12.946  0.00  0.00    +0.000 A 
ATOM     21  C   UNL     1      46.924   6.709  11.705  0.00  0.00    +0.000 A 
ATOM     22  C   UNL     1      45.866   6.184  10.958  0.00  0.00    +0.000 A 
ATOM     23  C   UNL     1      45.139   5.079  11.424  0.00  0.00    +0.000 A 
ATOM     24  C   UNL     1      45.536   4.483  12.629  0.00  0.00    +0.000 A 
ATOM     25  C   UNL     1      46.578   5.023  13.390  0.00  0.00    +0.000 A 
BRANCH  23  26
ATOM     26  C   UNL     1      43.922   4.588  10.640  0.00  0.00    +0.000 C 
BRANCH  26  27
ATOM     27  C   UNL     1      42.618   4.895  11.412  0.00  0.00    +0.000 C 
BRANCH  27  28
ATOM     28  O   UNL     1      42.369   6.294  11.551  0.00  0.00    +0.000 OA
ATOM     29  H   UNL     1      43.209   6.691  11.839  0.00  0.00    +0.000 HD
ENDBRANCH  27  28
ENDBRANCH  26  27
BRANCH  26  30
ATOM     30  C   UNL     1      44.059   3.106  10.229  0.00  0.00    +0.000 C 
BRANCH  30  31
ATOM     31  C   UNL     1      44.971   2.914   9.063  0.00  0.00    +0.000 A 
ATOM     32  C   UNL     1      45.727   1.842   8.640  0.00  0.00    +0.000 A 
ATOM     33  N   UNL     1      46.437   2.159   7.512  0.00  0.00    +0.000 NA
ATOM     34  C   UNL     1      46.116   3.402   7.235  0.00  0.00    +0.000 A 
ATOM     35  N   UNL     1      45.217   3.898   8.135  0.00  0.00    +0.000 N 
ATOM     36  H   UNL     1      44.828   4.832   8.136  0.00  0.00    +0.000 HD
ENDBRANCH  30  31
ENDBRANCH  26  30
ENDBRANCH  23  26
ENDBRANCH  19  20
ENDBRANCH   1  19
TORSDOF 11
ENDMDL
MODEL 5
REMARK VINA RESULT:    -6.221      1.778      2.120
REMARK INTER + INTRA:         -10.909
REMARK INTER:                  -9.631
REMARK INTRA:                  -1.279
REMARK UNBOUND:                -1.052
REMARK  Name = 
REMARK  11 active torsions:
REMARK  status: ('A' for Active; 'I' for Inactive)
REMARK    1  A    between atoms: N_1  and  C_2
REMARK    2  A    between atoms: C_2  and  C_3
REMARK    3  A    between atoms: C_3  and  N_4
REMARK    4  A    between atoms: C_3  and  C_21
REMARK    5  A    between atoms: N_4  and  C_5
REMARK    6  A    between atoms: C_5  and  C_6
REMARK    7  A    between atoms: C_9  and  C_10
REMARK    8  A    between atoms: C_10  and  C_11
REMARK    9  A    between atoms: C_10  and  C_13
REMARK   10  A    between atoms: C_11  and  O_12
REMARK   11  A    between atoms: C_13  and  C_14
REMARK                            x       y       z     vdW  Elec       q    Type
REMARK                         _______ _______ _______ _____ _____    ______ ____
ROOT
ATOM      1  N   UNL     1      48.262   7.537  16.380  0.00  0.00    +0.000 NA
ATOM      2  H   UNL     1      47.829   6.627  16.549  0.00  0.00    +0.000 HD
ENDROOT
BRANCH   1   3
ATOM      3  C   UNL     1      49.236   7.777  17.460  0.00  0.00    +0.000 C 
BRANCH   3   4
ATOM      4  C   UNL     1      50.224   6.618  17.412  0.00  0.00    +0.000 A 
ATOM      5  C   UNL     1      51.603   6.764  17.337  0.00  0.00    +0.000 A 
ATOM      6  S   UNL     1      52.437   5.275  17.272  0.00  0.00    +0.000 S 
ATOM      7  C   UNL     1      50.984   4.390  17.340  0.00  0.00    +0.000 A 
ATOM      8  N   UNL     1      50.987   3.029  17.321  0.00  0.00    +0.000 NA
ATOM      9  C   UNL     1      49.812   2.497  17.383  0.00  0.00    +0.000 A 
ATOM     10  N   UNL     1      48.635   3.198  17.462  0.00  0.00    +0.000 N 
ATOM     11  C   UNL     1      48.579   4.573  17.467  0.00  0.00    +0.000 A 
ATOM     12  O   UNL     1      47.505   5.166  17.522  0.00  0.00    +0.000 OA
ATOM     13  C   UNL     1      49.879   5.217  17.411  0.00  0.00    +0.000 A 
ATOM     14  H   UNL     1      47.749   2.718  17.506  0.00  0.00    +0.000 HD
ENDBRANCH   3   4
BRANCH   3  15
ATOM     15  C   UNL     1      48.601   7.927  18.877  0.00  0.00    +0.000 C 
BRANCH  15  16
ATOM     16  N   UNL     1      47.130   7.901  18.880  0.00  0.00    +0.000 NA
ATOM     17  H   UNL     1      46.779   8.757  18.453  0.00  0.00    +0.000 HD
ATOM     18  H   UNL     1      46.790   7.891  19.841  0.00  0.00    +0.000 HD
ENDBRANCH  15  16
ENDBRANCH   3  15
ENDBRANCH   1   3
BRANCH   1  19
ATOM     19  C   UNL     1      48.867   7.504  15.047  0.00  0.00    +0.000 C 
BRANCH  19  20
ATOM     20  C   UNL     1      47.873   7.017  14.017  0.00  0.00    +0.000 A 
ATOM     21  C   UNL     1      47.324   7.904  13.080  0.00  0.00    +0.000 A 
ATOM     22  C   UNL     1      46.367   7.471  12.160  0.00  0.00    +0.000 A 
ATOM     23  C   UNL     1      45.949   6.132  12.137  0.00  0.00    +0.000 A 
ATOM     24  C   UNL     1      46.555   5.232  13.025  0.00  0.00    +0.000 A 
ATOM     25  C   UNL     1      47.494   5.671  13.964  0.00  0.00    +0.000 A 
BRANCH  23  26
ATOM     26  C   UNL     1      44.827   5.705  11.191  0.00  0.00    +0.000 C 
BRANCH  26  27
ATOM     27  C   UNL     1      43.510   6.432  11.547  0.00  0.00    +0.000 C 
BRANCH  27  28
ATOM     28  O   UNL     1      42.798   5.804  12.613  0.00  0.00    +0.000 OA
ATOM     29  H   UNL     1      42.411   6.524  13.141  0.00  0.00    +0.000 HD
ENDBRANCH  27  28
ENDBRANCH  26  27
BRANCH  26  30
ATOM     30  C   UNL     1      44.683   4.170  11.123  0.00  0.00    +0.000 C 
BRANCH  30  31
ATOM     31  C   UNL     1      45.062   3.614   9.790  0.00  0.00    +0.000 A 
ATOM     32  C   UNL     1      45.128   2.327   9.303  0.00  0.00    +0.000 A 
ATOM     33  N   UNL     1      45.566   2.316   8.005  0.00  0.00    +0.000 NA
ATOM     34  C   UNL     1      45.755   3.577   7.690  0.00  0.00    +0.000 A 
ATOM     35  N   UNL     1      45.446   4.404   8.732  0.00  0.00    +0.000 N 
ATOM     36  H   UNL     1      45.520   5.413   8.735  0.00  0.00    +0.000 HD
ENDBRANCH  30  31
ENDBRANCH  26  30
ENDBRANCH  23  26
ENDBRANCH  19  20
ENDBRANCH   1  19
TORSDOF 11
ENDMDL
MODEL 6
REMARK VINA RESULT:    -6.142      3.026      8.547
REMARK INTER + INTRA:         -10.784
REMARK INTER:                  -9.308
REMARK INTRA:                  -1.477
REMARK UNBOUND:                -1.052
REMARK  Name = 
REMARK  11 active torsions:
REMARK  status: ('A' for Active; 'I' for Inactive)
REMARK    1  A    between atoms: N_1  and  C_2
REMARK    2  A    between atoms: C_2  and  C_3
REMARK    3  A    between atoms: C_3  and  N_4
REMARK    4  A    between atoms: C_3  and  C_21
REMARK    5  A    between atoms: N_4  and  C_5
REMARK    6  A    between atoms: C_5  and  C_6
REMARK    7  A    between atoms: C_9  and  C_10
REMARK    8  A    between atoms: C_10  and  C_11
REMARK    9  A    between atoms: C_10  and  C_13
REMARK   10  A    between atoms: C_11  and  O_12
REMARK   11  A    between atoms: C_13  and  C_14
REMARK                            x       y       z     vdW  Elec       q    Type
REMARK                         _______ _______ _______ _____ _____    ______ ____
ROOT
ATOM      1  N   UNL     1      47.168   8.785  14.434  0.00  0.00    +0.000 NA
ATOM      2  H   UNL     1      46.501   9.551  14.542  0.00  0.00    +0.000 HD
ENDROOT
BRANCH   1   3
ATOM      3  C   UNL     1      47.157   8.376  13.018  0.00  0.00    +0.000 C 
BRANCH   3   4
ATOM      4  C   UNL     1      46.501   7.002  12.973  0.00  0.00    +0.000 A 
ATOM      5  C   UNL     1      47.038   5.856  13.545  0.00  0.00    +0.000 A 
ATOM      6  S   UNL     1      46.079   4.465  13.301  0.00  0.00    +0.000 S 
ATOM      7  C   UNL     1      44.918   5.348  12.423  0.00  0.00    +0.000 A 
ATOM      8  N   UNL     1      43.811   4.742  11.912  0.00  0.00    +0.000 NA
ATOM      9  C   UNL     1      43.020   5.538  11.274  0.00  0.00    +0.000 A 
ATOM     10  N   UNL     1      43.231   6.883  11.098  0.00  0.00    +0.000 N 
ATOM     11  C   UNL     1      44.342   7.537  11.580  0.00  0.00    +0.000 A 
ATOM     12  O   UNL     1      44.505   8.739  11.388  0.00  0.00    +0.000 OA
ATOM     13  C   UNL     1      45.256   6.684  12.316  0.00  0.00    +0.000 A 
ATOM     14  H   UNL     1      42.571   7.448  10.586  0.00  0.00    +0.000 HD
ENDBRANCH   3   4
BRANCH   3  15
ATOM     15  C   UNL     1      48.564   8.359  12.343  0.00  0.00    +0.000 C 
BRANCH  15  16
ATOM     16  N   UNL     1      48.801   9.483  11.425  0.00  0.00    +0.000 NA
ATOM     17  H   UNL     1      48.993  10.324  11.966  0.00  0.00    +0.000 HD
ATOM     18  H   UNL     1      47.956   9.667  10.884  0.00  0.00    +0.000 HD
ENDBRANCH  15  16
ENDBRANCH   3  15
ENDBRANCH   1   3
BRANCH   1  19
ATOM     19  C   UNL     1      48.475   9.261  14.892  0.00  0.00    +0.000 C 
BRANCH  19  20
ATOM     20  C   UNL     1      49.033   8.353  15.964  0.00  0.00    +0.000 A 
ATOM     21  C   UNL     1      49.944   7.339  15.636  0.00  0.00    +0.000 A 
ATOM     22  C   UNL     1      50.423   6.464  16.614  0.00  0.00    +0.000 A 
ATOM     23  C   UNL     1      50.021   6.594  17.952  0.00  0.00    +0.000 A 
ATOM     24  C   UNL     1      49.169   7.656  18.288  0.00  0.00    +0.000 A 
ATOM     25  C   UNL     1      48.668   8.516  17.305  0.00  0.00    +0.000 A 
BRANCH  23  26
ATOM     26  C   UNL     1      50.477   5.563  18.983  0.00  0.00    +0.000 C 
BRANCH  26  27
ATOM     27  C   UNL     1      51.678   4.751  18.446  0.00  0.00    +0.000 C 
BRANCH  27  28
ATOM     28  O   UNL     1      51.708   3.411  18.935  0.00  0.00    +0.000 OA
ATOM     29  H   UNL     1      51.120   3.392  19.710  0.00  0.00    +0.000 HD
ENDBRANCH  27  28
ENDBRANCH  26  27
BRANCH  26  30
ATOM     30  C   UNL     1      49.309   4.681  19.472  0.00  0.00    +0.000 C 
BRANCH  30  31
ATOM     31  C   UNL     1      48.478   4.151  18.350  0.00  0.00    +0.000 A 
ATOM     32  C   UNL     1      47.213   4.464  17.902  0.00  0.00    +0.000 A 
ATOM     33  N   UNL     1      46.861   3.672  16.840  0.00  0.00    +0.000 NA
ATOM     34  C   UNL     1      47.896   2.892  16.628  0.00  0.00    +0.000 A 
ATOM     35  N   UNL     1      48.909   3.156  17.506  0.00  0.00    +0.000 N 
ATOM     36  H   UNL     1      49.801   2.681  17.547  0.00  0.00    +0.000 HD
ENDBRANCH  30  31
ENDBRANCH  26  30
ENDBRANCH  23  26
ENDBRANCH  19  20
ENDBRANCH   1  19
TORSDOF 11
ENDMDL
MODEL 7
REMARK VINA RESULT:    -6.030      2.439      3.308
REMARK INTER + INTRA:         -10.608
REMARK INTER:                  -9.052
REMARK INTRA:                  -1.556
REMARK UNBOUND:                -1.052
REMARK  Name = 
REMARK  11 active torsions:
REMARK  status: ('A' for Active; 'I' for Inactive)
REMARK    1  A    between atoms: N_1  and  C_2
REMARK    2  A    between atoms: C_2  and  C_3
REMARK    3  A    between atoms: C_3  and  N_4
REMARK    4  A    between atoms: C_3  and  C_21
REMARK    5  A    between atoms: N_4  and  C_5
REMARK    6  A    between atoms: C_5  and  C_6
REMARK    7  A    between atoms: C_9  and  C_10
REMARK    8  A    between atoms: C_10  and  C_11
REMARK    9  A    between atoms: C_10  and  C_13
REMARK   10  A    between atoms: C_11  and  O_12
REMARK   11  A    between atoms: C_13  and  C_14
REMARK                            x       y       z     vdW  Elec       q    Type
REMARK                         _______ _______ _______ _____ _____    ______ ____
ROOT
ATOM      1  N   UNL     1      49.323   7.848  16.340  0.00  0.00    +0.000 NA
ATOM      2  H   UNL     1      48.353   7.534  16.278  0.00  0.00    +0.000 HD
ENDROOT
BRANCH   1   3
ATOM      3  C   UNL     1      50.029   6.944  17.266  0.00  0.00    +0.000 C 
BRANCH   3   4
ATOM      4  C   UNL     1      49.423   5.562  17.062  0.00  0.00    +0.000 A 
ATOM      5  C   UNL     1      48.096   5.327  16.726  0.00  0.00    +0.000 A 
ATOM      6  S   UNL     1      47.715   3.668  16.593  0.00  0.00    +0.000 S 
ATOM      7  C   UNL     1      49.308   3.211  16.982  0.00  0.00    +0.000 A 
ATOM      8  N   UNL     1      49.669   1.900  17.045  0.00  0.00    +0.000 NA
ATOM      9  C   UNL     1      50.909   1.707  17.347  0.00  0.00    +0.000 A 
ATOM     10  N   UNL     1      51.823   2.701  17.593  0.00  0.00    +0.000 N 
ATOM     11  C   UNL     1      51.502   4.039  17.558  0.00  0.00    +0.000 A 
ATOM     12  O   UNL     1      52.343   4.901  17.800  0.00  0.00    +0.000 OA
ATOM     13  C   UNL     1      50.119   4.307  17.210  0.00  0.00    +0.000 A 
ATOM     14  H   UNL     1      52.779   2.479  17.826  0.00  0.00    +0.000 HD
ENDBRANCH   3   4
BRANCH   3  15
ATOM     15  C   UNL     1      49.963   7.379  18.764  0.00  0.00    +0.000 C 
BRANCH  15  16
ATOM     16  N   UNL     1      51.237   7.237  19.485  0.00  0.00    +0.000 NA
ATOM     17  H   UNL     1      51.183   7.749  20.364  0.00  0.00    +0.000 HD
ATOM     18  H   UNL     1      51.987   7.663  18.942  0.00  0.00    +0.000 HD
ENDBRANCH  15  16
ENDBRANCH   3  15
ENDBRANCH   1   3
BRANCH   1  19
ATOM     19  C   UNL     1      49.882   7.846  14.987  0.00  0.00    +0.000 C 
BRANCH  19  20
ATOM     20  C   UNL     1      48.790   7.676  13.954  0.00  0.00    +0.000 A 
ATOM     21  C   UNL     1      47.547   8.301  14.122  0.00  0.00    +0.000 A 
ATOM     22  C   UNL     1      46.518   8.106  13.197  0.00  0.00    +0.000 A 
ATOM     23  C   UNL     1      46.712   7.297  12.068  0.00  0.00    +0.000 A 
ATOM     24  C   UNL     1      47.980   6.735  11.866  0.00  0.00    +0.000 A 
ATOM     25  C   UNL     1      49.003   6.908  12.804  0.00  0.00    +0.000 A 
BRANCH  23  26
ATOM     26  C   UNL     1      45.541   7.016  11.128  0.00  0.00    +0.000 C 
BRANCH  26  27
ATOM     27  C   UNL     1      44.195   7.250  11.851  0.00  0.00    +0.000 C 
BRANCH  27  28
ATOM     28  O   UNL     1      43.172   7.733  10.980  0.00  0.00    +0.000 OA
ATOM     29  H   UNL     1      42.454   7.078  11.017  0.00  0.00    +0.000 HD
ENDBRANCH  27  28
ENDBRANCH  26  27
BRANCH  26  30
ATOM     30  C   UNL     1      45.652   5.624  10.469  0.00  0.00    +0.000 C 
BRANCH  30  31
ATOM     31  C   UNL     1      44.907   4.570  11.222  0.00  0.00    +0.000 A 
ATOM     32  C   UNL     1      45.120   3.976  12.447  0.00  0.00    +0.000 A 
ATOM     33  N   UNL     1      44.168   3.024  12.701  0.00  0.00    +0.000 NA
ATOM     34  C   UNL     1      43.373   3.038  11.656  0.00  0.00    +0.000 A 
ATOM     35  N   UNL     1      43.768   3.971  10.740  0.00  0.00    +0.000 N 
ATOM     36  H   UNL     1      43.321   4.161   9.852  0.00  0.00    +0.000 HD
ENDBRANCH  30  31
ENDBRANCH  26  30
ENDBRANCH  23  26
ENDBRANCH  19  20
ENDBRANCH   1  19
TORSDOF 11
ENDMDL
MODEL 8
REMARK VINA RESULT:    -5.986      3.897      4.964
REMARK INTER + INTRA:         -10.538
REMARK INTER:                  -9.417
REMARK INTRA:                  -1.121
REMARK UNBOUND:                -1.052
REMARK  Name = 
REMARK  11 active torsions:
REMARK  status: ('A' for Active; 'I' for Inactive)
REMARK    1  A    between atoms: N_1  and  C_2
REMARK    2  A    between atoms: C_2  and  C_3
REMARK    3  A    between atoms: C_3  and  N_4
REMARK    4  A    between atoms: C_3  and  C_21
REMARK    5  A    between atoms: N_4  and  C_5
REMARK    6  A    between atoms: C_5  and  C_6
REMARK    7  A    between atoms: C_9  and  C_10
REMARK    8  A    between atoms: C_10  and  C_11
REMARK    9  A    between atoms: C_10  and  C_13
REMARK   10  A    between atoms: C_11  and  O_12
REMARK   11  A    between atoms: C_13  and  C_14
REMARK                            x       y       z     vdW  Elec       q    Type
REMARK                         _______ _______ _______ _____ _____    ______ ____
ROOT
ATOM      1  N   UNL     1      49.555   6.686  14.027  0.00  0.00    +0.000 NA
ATOM      2  H   UNL     1      49.442   6.628  13.014  0.00  0.00    +0.000 HD
ENDROOT
BRANCH   1   3
ATOM      3  C   UNL     1      49.591   8.114  14.393  0.00  0.00    +0.000 C 
BRANCH   3   4
ATOM      4  C   UNL     1      51.039   8.561  14.238  0.00  0.00    +0.000 A 
ATOM      5  C   UNL     1      51.852   8.968  15.287  0.00  0.00    +0.000 A 
ATOM      6  S   UNL     1      53.417   9.434  14.787  0.00  0.00    +0.000 S 
ATOM      7  C   UNL     1      53.057   9.109  13.156  0.00  0.00    +0.000 A 
ATOM      8  N   UNL     1      53.984   9.302  12.178  0.00  0.00    +0.000 NA
ATOM      9  C   UNL     1      53.570   9.010  10.991  0.00  0.00    +0.000 A 
ATOM     10  N   UNL     1      52.315   8.543  10.689  0.00  0.00    +0.000 N 
ATOM     11  C   UNL     1      51.339   8.347  11.639  0.00  0.00    +0.000 A 
ATOM     12  O   UNL     1      50.221   7.944  11.329  0.00  0.00    +0.000 OA
ATOM     13  C   UNL     1      51.763   8.652  12.993  0.00  0.00    +0.000 A 
ATOM     14  H   UNL     1      52.056   8.335   9.737  0.00  0.00    +0.000 HD
ENDBRANCH   3   4
BRANCH   3  15
ATOM     15  C   UNL     1      49.048   8.424  15.823  0.00  0.00    +0.000 C 
BRANCH  15  16
ATOM     16  N   UNL     1      47.826   9.242  15.836  0.00  0.00    +0.000 NA
ATOM     17  H   UNL     1      48.080  10.223  15.936  0.00  0.00    +0.000 HD
ATOM     18  H   UNL     1      47.261   8.999  16.649  0.00  0.00    +0.000 HD
ENDBRANCH  15  16
ENDBRANCH   3  15
ENDBRANCH   1   3
BRANCH   1  19
ATOM     19  C   UNL     1      48.446   5.955  14.645  0.00  0.00    +0.000 C 
BRANCH  19  20
ATOM     20  C   UNL     1      47.286   5.825  13.684  0.00  0.00    +0.000 A 
ATOM     21  C   UNL     1      46.252   4.913  13.934  0.00  0.00    +0.000 A 
ATOM     22  C   UNL     1      45.204   4.752  13.024  0.00  0.00    +0.000 A 
ATOM     23  C   UNL     1      45.152   5.515  11.848  0.00  0.00    +0.000 A 
ATOM     24  C   UNL     1      46.148   6.478  11.638  0.00  0.00    +0.000 A 
ATOM     25  C   UNL     1      47.211   6.623  12.535  0.00  0.00    +0.000 A 
BRANCH  23  26
ATOM     26  C   UNL     1      44.054   5.247  10.820  0.00  0.00    +0.000 C 
BRANCH  26  27
ATOM     27  C   UNL     1      42.736   5.937  11.240  0.00  0.00    +0.000 C 
BRANCH  27  28
ATOM     28  O   UNL     1      41.910   5.109  12.058  0.00  0.00    +0.000 OA
ATOM     29  H   UNL     1      41.448   5.708  12.670  0.00  0.00    +0.000 HD
ENDBRANCH  27  28
ENDBRANCH  26  27
BRANCH  26  30
ATOM     30  C   UNL     1      43.892   3.740  10.528  0.00  0.00    +0.000 C 
BRANCH  30  31
ATOM     31  C   UNL     1      44.794   3.265   9.436  0.00  0.00    +0.000 A 
ATOM     32  C   UNL     1      45.287   3.877   8.304  0.00  0.00    +0.000 A 
ATOM     33  N   UNL     1      46.065   3.012   7.580  0.00  0.00    +0.000 NA
ATOM     34  C   UNL     1      46.064   1.889   8.260  0.00  0.00    +0.000 A 
ATOM     35  N   UNL     1      45.323   1.997   9.402  0.00  0.00    +0.000 N 
ATOM     36  H   UNL     1      45.165   1.264  10.082  0.00  0.00    +0.000 HD
ENDBRANCH  30  31
ENDBRANCH  26  30
ENDBRANCH  23  26
ENDBRANCH  19  20
ENDBRANCH   1  19
TORSDOF 11
ENDMDL
MODEL 9
REMARK VINA RESULT:    -5.835      3.076      9.114
REMARK INTER + INTRA:         -10.299
REMARK INTER:                  -9.166
REMARK INTRA:                  -1.133
REMARK UNBOUND:                -1.052
REMARK  Name = 
REMARK  11 active torsions:
REMARK  status: ('A' for Active; 'I' for Inactive)
REMARK    1  A    between atoms: N_1  and  C_2
REMARK    2  A    between atoms: C_2  and  C_3
REMARK    3  A    between atoms: C_3  and  N_4
REMARK    4  A    between atoms: C_3  and  C_21
REMARK    5  A    between atoms: N_4  and  C_5
REMARK    6  A    between atoms: C_5  and  C_6
REMARK    7  A    between atoms: C_9  and  C_10
REMARK    8  A    between atoms: C_10  and  C_11
REMARK    9  A    between atoms: C_10  and  C_13
REMARK   10  A    between atoms: C_11  and  O_12
REMARK   11  A    between atoms: C_13  and  C_14
REMARK                            x       y       z     vdW  Elec       q    Type
REMARK                         _______ _______ _______ _____ _____    ______ ____
ROOT
ATOM      1  N   UNL     1      46.813   6.002  13.591  0.00  0.00    +0.000 NA
ATOM      2  H   UNL     1      46.243   5.662  14.367  0.00  0.00    +0.000 HD
ENDROOT
BRANCH   1   3
ATOM      3  C   UNL     1      45.928   6.748  12.678  0.00  0.00    +0.000 C 
BRANCH   3   4
ATOM      4  C   UNL     1      45.552   5.784  11.561  0.00  0.00    +0.000 A 
ATOM      5  C   UNL     1      45.906   5.949  10.228  0.00  0.00    +0.000 A 
ATOM      6  S   UNL     1      45.311   4.712   9.213  0.00  0.00    +0.000 S 
ATOM      7  C   UNL     1      44.562   3.918  10.519  0.00  0.00    +0.000 A 
ATOM      8  N   UNL     1      43.862   2.765  10.335  0.00  0.00    +0.000 NA
ATOM      9  C   UNL     1      43.353   2.277  11.417  0.00  0.00    +0.000 A 
ATOM     10  N   UNL     1      43.478   2.833  12.665  0.00  0.00    +0.000 N 
ATOM     11  C   UNL     1      44.160   4.006  12.899  0.00  0.00    +0.000 A 
ATOM     12  O   UNL     1      44.236   4.483  14.028  0.00  0.00    +0.000 OA
ATOM     13  C   UNL     1      44.761   4.587  11.713  0.00  0.00    +0.000 A 
ATOM     14  H   UNL     1      43.052   2.399  13.469  0.00  0.00    +0.000 HD
ENDBRANCH   3   4
BRANCH   3  15
ATOM     15  C   UNL     1      46.550   8.063  12.112  0.00  0.00    +0.000 C 
BRANCH  15  16
ATOM     16  N   UNL     1      45.599   9.180  12.011  0.00  0.00    +0.000 NA
ATOM     17  H   UNL     1      46.096  10.058  12.156  0.00  0.00    +0.000 HD
ATOM     18  H   UNL     1      44.906   9.108  12.755  0.00  0.00    +0.000 HD
ENDBRANCH  15  16
ENDBRANCH   3  15
ENDBRANCH   1   3
BRANCH   1  19
ATOM     19  C   UNL     1      47.891   6.819  14.152  0.00  0.00    +0.000 C 
BRANCH  19  20
ATOM     20  C   UNL     1      48.488   6.157  15.374  0.00  0.00    +0.000 A 
ATOM     21  C   UNL     1      47.872   5.037  15.950  0.00  0.00    +0.000 A 
ATOM     22  C   UNL     1      48.390   4.454  17.109  0.00  0.00    +0.000 A 
ATOM     23  C   UNL     1      49.551   4.963  17.711  0.00  0.00    +0.000 A 
ATOM     24  C   UNL     1      50.205   6.036  17.089  0.00  0.00    +0.000 A 
ATOM     25  C   UNL     1      49.673   6.637  15.944  0.00  0.00    +0.000 A 
BRANCH  23  26
ATOM     26  C   UNL     1      50.038   4.373  19.033  0.00  0.00    +0.000 C 
BRANCH  26  27
ATOM     27  C   UNL     1      49.092   4.772  20.188  0.00  0.00    +0.000 C 
BRANCH  27  28
ATOM     28  O   UNL     1      48.311   3.680  20.672  0.00  0.00    +0.000 OA
ATOM     29  H   UNL     1      48.166   3.849  21.619  0.00  0.00    +0.000 HD
ENDBRANCH  27  28
ENDBRANCH  26  27
BRANCH  26  30
ATOM     30  C   UNL     1      51.519   4.714  19.306  0.00  0.00    +0.000 C 
BRANCH  30  31
ATOM     31  C   UNL     1      52.434   3.565  19.037  0.00  0.00    +0.000 A 
ATOM     32  C   UNL     1      53.690   3.246  19.507  0.00  0.00    +0.000 A 
ATOM     33  N   UNL     1      54.144   2.085  18.939  0.00  0.00    +0.000 NA
ATOM     34  C   UNL     1      53.180   1.687  18.141  0.00  0.00    +0.000 A 
ATOM     35  N   UNL     1      52.115   2.540  18.179  0.00  0.00    +0.000 N 
ATOM     36  H   UNL     1      51.259   2.450  17.646  0.00  0.00    +0.000 HD
ENDBRANCH  30  31
ENDBRANCH  26  30
ENDBRANCH  23  26
ENDBRANCH  19  20
ENDBRANCH   1  19
TORSDOF 11
ENDMDL
