MODEL 1
REMARK VINA RESULT:    -8.282      0.000      0.000
REMARK INTER + INTRA:         -13.692
REMARK INTER:                 -12.156
REMARK INTRA:                  -1.536
REMARK UNBOUND:                -1.536
REMARK  Name = 
REMARK  9 active torsions:
REMARK  status: ('A' for Active; 'I' for Inactive)
REMARK    1  A    between atoms: C_1  and  O_2
REMARK    2  A    between atoms: O_2  and  C_3
REMARK    3  A    between atoms: C_10  and  C_11
REMARK    4  A    between atoms: N_13  and  C_14
REMARK    5  A    between atoms: C_14  and  C_15
REMARK    6  A    between atoms: C_18  and  O_19
REMARK    7  A    between atoms: O_19  and  C_20
REMARK    8  A    between atoms: C_20  and  C_21
REMARK    9  A    between atoms: C_21  and  C_22
REMARK                            x       y       z     vdW  Elec       q    Type
REMARK                         _______ _______ _______ _____ _____    ______ ____
ROOT
ATOM      1  C   UNL     1      46.919   8.054  13.270  0.00  0.00    +0.000 C 
ENDROOT
BRANCH   1   2
ATOM      2  C   UNL     1      46.157   7.106  12.374  0.00  0.00    +0.000 A 
ATOM      3  C   UNL     1      46.659   6.768  11.111  0.00  0.00    +0.000 A 
ATOM      4  C   UNL     1      45.993   5.841  10.299  0.00  0.00    +0.000 A 
ATOM      5  C   UNL     1      44.810   5.241  10.731  0.00  0.00    +0.000 A 
ATOM      6  C   UNL     1      44.263   5.634  11.954  0.00  0.00    +0.000 A 
ATOM      7  C   UNL     1      44.931   6.556  12.772  0.00  0.00    +0.000 A 
BRANCH   5   8
ATOM      8  O   UNL     1      44.102   4.303  10.022  0.00  0.00    +0.000 OA
BRANCH   8   9
ATOM      9  C   UNL     1      44.441   2.939  10.311  0.00  0.00    +0.000 C 
BRANCH   9  10
ATOM     10  C   UNL     1      44.344   2.098   9.034  0.00  0.00    +0.000 C 
BRANCH  10  11
ATOM     11  C   UNL     1      45.605   2.176   8.216  0.00  0.00    +0.000 A 
ATOM     12  C   UNL     1      46.020   3.369   7.620  0.00  0.00    +0.000 A 
ATOM     13  C   UNL     1      47.172   3.390   6.838  0.00  0.00    +0.000 A 
ATOM     14  C   UNL     1      47.874   2.206   6.673  0.00  0.00    +0.000 A 
ATOM     15  N   UNL     1      47.504   1.033   7.228  0.00  0.00    +0.000 NA
ATOM     16  C   UNL     1      46.384   1.045   7.984  0.00  0.00    +0.000 A 
ENDBRANCH  10  11
ENDBRANCH   9  10
ENDBRANCH   8   9
ENDBRANCH   5   8
ENDBRANCH   1   2
BRANCH   1  19
ATOM     17  C   UNL     1      48.632   6.839  14.552  0.00  0.00    +0.000 C 
ATOM     18  O   UNL     1      49.414   6.874  13.602  0.00  0.00    +0.000 OA
ATOM     19  N   UNL     1      47.387   7.400  14.465  0.00  0.00    +0.000 N 
ATOM     20  H   UNL     1      46.751   7.347  15.248  0.00  0.00    +0.000 HD
BRANCH  17  28
ATOM     21  C   UNL     1      47.303   4.209  16.322  0.00  0.00    +0.000 A 
ATOM     22  N   UNL     1      47.015   3.208  17.176  0.00  0.00    +0.000 NA
ATOM     23  C   UNL     1      47.795   3.058  18.251  0.00  0.00    +0.000 A 
ATOM     24  N   UNL     1      48.845   3.802  18.589  0.00  0.00    +0.000 NA
ATOM     25  C   UNL     1      49.105   4.779  17.704  0.00  0.00    +0.000 A 
ATOM     26  S   UNL     1      50.407   5.833  17.975  0.00  0.00    +0.000 S 
ATOM     27  C   UNL     1      50.085   6.681  16.537  0.00  0.00    +0.000 A 
ATOM     28  C   UNL     1      48.998   6.187  15.823  0.00  0.00    +0.000 A 
ATOM     29  C   UNL     1      48.405   5.057  16.534  0.00  0.00    +0.000 A 
BRANCH  21  31
ATOM     30  C   UNL     1      47.003   3.685  14.059  0.00  0.00    +0.000 C 
ATOM     31  O   UNL     1      46.505   4.363  15.209  0.00  0.00    +0.000 OA
ENDBRANCH  21  31
ENDBRANCH  17  28
ENDBRANCH   1  19
TORSDOF 8
ENDMDL
MODEL 2
REMARK VINA RESULT:    -7.733      1.667      2.110
REMARK INTER + INTRA:         -12.886
REMARK INTER:                 -11.725
REMARK INTRA:                  -1.161
REMARK UNBOUND:                -1.536
REMARK  Name = 
REMARK  9 active torsions:
REMARK  status: ('A' for Active; 'I' for Inactive)
REMARK    1  A    between atoms: C_1  and  O_2
REMARK    2  A    between atoms: O_2  and  C_3
REMARK    3  A    between atoms: C_10  and  C_11
REMARK    4  A    between atoms: N_13  and  C_14
REMARK    5  A    between atoms: C_14  and  C_15
REMARK    6  A    between atoms: C_18  and  O_19
REMARK    7  A    between atoms: O_19  and  C_20
REMARK    8  A    between atoms: C_20  and  C_21
REMARK    9  A    between atoms: C_21  and  C_22
REMARK                            x       y       z     vdW  Elec       q    Type
REMARK                         _______ _______ _______ _____ _____    ______ ____
ROOT
ATOM      1  C   UNL     1      48.161   7.206  13.319  0.00  0.00    +0.000 C 
ENDROOT
BRANCH   1   2
ATOM      2  C   UNL     1      47.123   6.298  12.702  0.00  0.00    +0.000 A 
ATOM      3  C   UNL     1      46.642   5.189  13.408  0.00  0.00    +0.000 A 
ATOM      4  C   UNL     1      45.634   4.378  12.872  0.00  0.00    +0.000 A 
ATOM      5  C   UNL     1      45.093   4.657  11.617  0.00  0.00    +0.000 A 
ATOM      6  C   UNL     1      45.623   5.714  10.874  0.00  0.00    +0.000 A 
ATOM      7  C   UNL     1      46.628   6.531  11.412  0.00  0.00    +0.000 A 
BRANCH   5   8
ATOM      8  O   UNL     1      44.085   3.940  11.020  0.00  0.00    +0.000 OA
BRANCH   8   9
ATOM      9  C   UNL     1      44.224   3.759   9.604  0.00  0.00    +0.000 C 
BRANCH   9  10
ATOM     10  C   UNL     1      44.694   2.332   9.306  0.00  0.00    +0.000 C 
BRANCH  10  11
ATOM     11  C   UNL     1      45.778   2.307   8.261  0.00  0.00    +0.000 A 
ATOM     12  C   UNL     1      46.083   3.434   7.495  0.00  0.00    +0.000 A 
ATOM     13  C   UNL     1      47.065   3.357   6.510  0.00  0.00    +0.000 A 
ATOM     14  C   UNL     1      47.713   2.146   6.322  0.00  0.00    +0.000 A 
ATOM     15  N   UNL     1      47.444   1.035   7.039  0.00  0.00    +0.000 NA
ATOM     16  C   UNL     1      46.488   1.141   7.988  0.00  0.00    +0.000 A 
ENDBRANCH  10  11
ENDBRANCH   9  10
ENDBRANCH   8   9
ENDBRANCH   5   8
ENDBRANCH   1   2
BRANCH   1  19
ATOM     17  C   UNL     1      49.047   7.012  15.606  0.00  0.00    +0.000 C 
ATOM     18  O   UNL     1      50.154   6.679  15.184  0.00  0.00    +0.000 OA
ATOM     19  N   UNL     1      48.017   7.289  14.749  0.00  0.00    +0.000 N 
ATOM     20  H   UNL     1      47.110   7.545  15.113  0.00  0.00    +0.000 HD
BRANCH  17  28
ATOM     21  C   UNL     1      48.974   4.724  18.171  0.00  0.00    +0.000 A 
ATOM     22  N   UNL     1      48.920   4.058  19.340  0.00  0.00    +0.000 NA
ATOM     23  C   UNL     1      48.642   4.755  20.446  0.00  0.00    +0.000 A 
ATOM     24  N   UNL     1      48.399   6.061  20.530  0.00  0.00    +0.000 NA
ATOM     25  C   UNL     1      48.476   6.688  19.344  0.00  0.00    +0.000 A 
ATOM     26  S   UNL     1      48.190   8.359  19.257  0.00  0.00    +0.000 S 
ATOM     27  C   UNL     1      48.463   8.369  17.580  0.00  0.00    +0.000 A 
ATOM     28  C   UNL     1      48.779   7.121  17.052  0.00  0.00    +0.000 A 
ATOM     29  C   UNL     1      48.771   6.114  18.111  0.00  0.00    +0.000 A 
BRANCH  21  31
ATOM     30  C   UNL     1      49.873   2.747  17.293  0.00  0.00    +0.000 C 
ATOM     31  O   UNL     1      49.268   4.010  17.029  0.00  0.00    +0.000 OA
ENDBRANCH  21  31
ENDBRANCH  17  28
ENDBRANCH   1  19
TORSDOF 8
ENDMDL
MODEL 3
REMARK VINA RESULT:    -7.629      2.181      2.769
REMARK INTER + INTRA:         -12.732
REMARK INTER:                 -11.616
REMARK INTRA:                  -1.116
REMARK UNBOUND:                -1.536
REMARK  Name = 
REMARK  9 active torsions:
REMARK  status: ('A' for Active; 'I' for Inactive)
REMARK    1  A    between atoms: C_1  and  O_2
REMARK    2  A    between atoms: O_2  and  C_3
REMARK    3  A    between atoms: C_10  and  C_11
REMARK    4  A    between atoms: N_13  and  C_14
REMARK    5  A    between atoms: C_14  and  C_15
REMARK    6  A    between atoms: C_18  and  O_19
REMARK    7  A    between atoms: O_19  and  C_20
REMARK    8  A    between atoms: C_20  and  C_21
REMARK    9  A    between atoms: C_21  and  C_22
REMARK                            x       y       z     vdW  Elec       q    Type
REMARK                         _______ _______ _______ _____ _____    ______ ____
ROOT
ATOM      1  C   UNL     1      48.306   7.009  15.124  0.00  0.00    +0.000 C 
ENDROOT
BRANCH   1   2
ATOM      2  C   UNL     1      47.527   6.236  14.087  0.00  0.00    +0.000 A 
ATOM      3  C   UNL     1      47.020   4.965  14.383  0.00  0.00    +0.000 A 
ATOM      4  C   UNL     1      46.241   4.268  13.451  0.00  0.00    +0.000 A 
ATOM      5  C   UNL     1      45.962   4.824  12.203  0.00  0.00    +0.000 A 
ATOM      6  C   UNL     1      46.530   6.056  11.872  0.00  0.00    +0.000 A 
ATOM      7  C   UNL     1      47.304   6.760  12.806  0.00  0.00    +0.000 A 
BRANCH   5   8
ATOM      8  O   UNL     1      45.187   4.232  11.236  0.00  0.00    +0.000 OA
BRANCH   8   9
ATOM      9  C   UNL     1      45.078   4.969  10.010  0.00  0.00    +0.000 C 
BRANCH   9  10
ATOM     10  C   UNL     1      44.480   4.074   8.919  0.00  0.00    +0.000 C 
BRANCH  10  11
ATOM     11  C   UNL     1      45.513   3.154   8.323  0.00  0.00    +0.000 A 
ATOM     12  C   UNL     1      46.428   3.599   7.367  0.00  0.00    +0.000 A 
ATOM     13  C   UNL     1      47.340   2.706   6.811  0.00  0.00    +0.000 A 
ATOM     14  C   UNL     1      47.306   1.386   7.232  0.00  0.00    +0.000 A 
ATOM     15  N   UNL     1      46.436   0.917   8.151  0.00  0.00    +0.000 NA
ATOM     16  C   UNL     1      45.564   1.807   8.674  0.00  0.00    +0.000 A 
ENDBRANCH  10  11
ENDBRANCH   9  10
ENDBRANCH   8   9
ENDBRANCH   5   8
ENDBRANCH   1   2
BRANCH   1  19
ATOM     17  C   UNL     1      49.436   5.958  17.040  0.00  0.00    +0.000 C 
ATOM     18  O   UNL     1      48.589   6.391  17.819  0.00  0.00    +0.000 OA
ATOM     19  N   UNL     1      49.364   6.218  15.698  0.00  0.00    +0.000 N 
ATOM     20  H   UNL     1      50.078   5.870  15.075  0.00  0.00    +0.000 HD
BRANCH  17  28
ATOM     21  C   UNL     1      50.101   2.585  17.002  0.00  0.00    +0.000 A 
ATOM     22  N   UNL     1      50.618   1.344  17.078  0.00  0.00    +0.000 NA
ATOM     23  C   UNL     1      51.825   1.202  17.635  0.00  0.00    +0.000 A 
ATOM     24  N   UNL     1      52.593   2.164  18.140  0.00  0.00    +0.000 NA
ATOM     25  C   UNL     1      52.046   3.386  18.030  0.00  0.00    +0.000 A 
ATOM     26  S   UNL     1      52.882   4.737  18.628  0.00  0.00    +0.000 S 
ATOM     27  C   UNL     1      51.636   5.785  18.140  0.00  0.00    +0.000 A 
ATOM     28  C   UNL     1      50.571   5.145  17.515  0.00  0.00    +0.000 A 
ATOM     29  C   UNL     1      50.814   3.705  17.465  0.00  0.00    +0.000 A 
BRANCH  21  31
ATOM     30  C   UNL     1      47.797   2.793  17.368  0.00  0.00    +0.000 C 
ATOM     31  O   UNL     1      48.860   2.737  16.422  0.00  0.00    +0.000 OA
ENDBRANCH  21  31
ENDBRANCH  17  28
ENDBRANCH   1  19
TORSDOF 8
ENDMDL
MODEL 4
REMARK VINA RESULT:    -7.563      1.501      1.955
REMARK INTER + INTRA:         -12.636
REMARK INTER:                 -11.476
REMARK INTRA:                  -1.160
REMARK UNBOUND:                -1.536
REMARK  Name = 
REMARK  9 active torsions:
REMARK  status: ('A' for Active; 'I' for Inactive)
REMARK    1  A    between atoms: C_1  and  O_2
REMARK    2  A    between atoms: O_2  and  C_3
REMARK    3  A    between atoms: C_10  and  C_11
REMARK    4  A    between atoms: N_13  and  C_14
REMARK    5  A    between atoms: C_14  and  C_15
REMARK    6  A    between atoms: C_18  and  O_19
REMARK    7  A    between atoms: O_19  and  C_20
REMARK    8  A    between atoms: C_20  and  C_21
REMARK    9  A    between atoms: C_21  and  C_22
REMARK                            x       y       z     vdW  Elec       q    Type
REMARK                         _______ _______ _______ _____ _____    ______ ____
ROOT
ATOM      1  C   UNL     1      47.345   7.449  13.224  0.00  0.00    +0.000 C 
ENDROOT
BRANCH   1   2
ATOM      2  C   UNL     1      46.539   6.349  12.575  0.00  0.00    +0.000 A 
ATOM      3  C   UNL     1      46.277   5.159  13.265  0.00  0.00    +0.000 A 
ATOM      4  C   UNL     1      45.476   4.161  12.697  0.00  0.00    +0.000 A 
ATOM      5  C   UNL     1      44.930   4.329  11.424  0.00  0.00    +0.000 A 
ATOM      6  C   UNL     1      45.252   5.477  10.699  0.00  0.00    +0.000 A 
ATOM      7  C   UNL     1      46.047   6.482  11.269  0.00  0.00    +0.000 A 
BRANCH   5   8
ATOM      8  O   UNL     1      44.112   3.422  10.796  0.00  0.00    +0.000 OA
BRANCH   8   9
ATOM      9  C   UNL     1      44.365   3.245   9.395  0.00  0.00    +0.000 C 
BRANCH   9  10
ATOM     10  C   UNL     1      45.251   2.015   9.178  0.00  0.00    +0.000 C 
BRANCH  10  11
ATOM     11  C   UNL     1      46.132   2.167   7.966  0.00  0.00    +0.000 A 
ATOM     12  C   UNL     1      46.096   3.317   7.174  0.00  0.00    +0.000 A 
ATOM     13  C   UNL     1      46.897   3.402   6.038  0.00  0.00    +0.000 A 
ATOM     14  C   UNL     1      47.712   2.324   5.728  0.00  0.00    +0.000 A 
ATOM     15  N   UNL     1      47.772   1.196   6.465  0.00  0.00    +0.000 NA
ATOM     16  C   UNL     1      46.985   1.143   7.563  0.00  0.00    +0.000 A 
ENDBRANCH  10  11
ENDBRANCH   9  10
ENDBRANCH   8   9
ENDBRANCH   5   8
ENDBRANCH   1   2
BRANCH   1  19
ATOM     17  C   UNL     1      49.012   7.595  15.027  0.00  0.00    +0.000 C 
ATOM     18  O   UNL     1      48.569   8.682  15.394  0.00  0.00    +0.000 OA
ATOM     19  N   UNL     1      48.462   6.926  13.968  0.00  0.00    +0.000 N 
ATOM     20  H   UNL     1      48.849   6.042  13.670  0.00  0.00    +0.000 HD
BRANCH  17  28
ATOM     21  C   UNL     1      49.305   4.960  17.215  0.00  0.00    +0.000 A 
ATOM     22  N   UNL     1      49.698   3.964  18.032  0.00  0.00    +0.000 NA
ATOM     23  C   UNL     1      51.004   3.844  18.289  0.00  0.00    +0.000 A 
ATOM     24  N   UNL     1      51.986   4.614  17.827  0.00  0.00    +0.000 NA
ATOM     25  C   UNL     1      51.551   5.585  17.006  0.00  0.00    +0.000 A 
ATOM     26  S   UNL     1      52.665   6.670  16.325  0.00  0.00    +0.000 S 
ATOM     27  C   UNL     1      51.431   7.493  15.495  0.00  0.00    +0.000 A 
ATOM     28  C   UNL     1      50.161   6.967  15.707  0.00  0.00    +0.000 A 
ATOM     29  C   UNL     1      50.236   5.833  16.626  0.00  0.00    +0.000 A 
BRANCH  21  31
ATOM     30  C   UNL     1      47.330   3.843  16.633  0.00  0.00    +0.000 C 
ATOM     31  O   UNL     1      47.959   5.083  16.942  0.00  0.00    +0.000 OA
ENDBRANCH  21  31
ENDBRANCH  17  28
ENDBRANCH   1  19
TORSDOF 8
ENDMDL
MODEL 5
REMARK VINA RESULT:    -7.445      2.551      3.438
REMARK INTER + INTRA:         -12.462
REMARK INTER:                 -11.148
REMARK INTRA:                  -1.315
REMARK UNBOUND:                -1.536
REMARK  Name = 
REMARK  9 active torsions:
REMARK  status: ('A' for Active; 'I' for Inactive)
REMARK    1  A    between atoms: C_1  and  O_2
REMARK    2  A    between atoms: O_2  and  C_3
REMARK    3  A    between atoms: C_10  and  C_11
REMARK    4  A    between atoms: N_13  and  C_14
REMARK    5  A    between atoms: C_14  and  C_15
REMARK    6  A    between atoms: C_18  and  O_19
REMARK    7  A    between atoms: O_19  and  C_20
REMARK    8  A    between atoms: C_20  and  C_21
REMARK    9  A    between atoms: C_21  and  C_22
REMARK                            x       y       z     vdW  Elec       q    Type
REMARK                         _______ _______ _______ _____ _____    ______ ____
ROOT
ATOM      1  C   UNL     1      48.438   6.603  13.723  0.00  0.00    +0.000 C 
ENDROOT
BRANCH   1   2
ATOM      2  C   UNL     1      47.307   5.934  12.979  0.00  0.00    +0.000 A 
ATOM      3  C   UNL     1      46.747   4.745  13.462  0.00  0.00    +0.000 A 
ATOM      4  C   UNL     1      45.655   4.152  12.816  0.00  0.00    +0.000 A 
ATOM      5  C   UNL     1      45.109   4.731  11.670  0.00  0.00    +0.000 A 
ATOM      6  C   UNL     1      45.712   5.873  11.139  0.00  0.00    +0.000 A 
ATOM      7  C   UNL     1      46.801   6.473  11.788  0.00  0.00    +0.000 A 
BRANCH   5   8
ATOM      8  O   UNL     1      44.025   4.242  10.985  0.00  0.00    +0.000 OA
BRANCH   8   9
ATOM      9  C   UNL     1      44.264   3.945   9.601  0.00  0.00    +0.000 C 
BRANCH   9  10
ATOM     10  C   UNL     1      44.812   2.522   9.462  0.00  0.00    +0.000 C 
BRANCH  10  11
ATOM     11  C   UNL     1      45.763   2.400   8.301  0.00  0.00    +0.000 A 
ATOM     12  C   UNL     1      45.981   3.460   7.418  0.00  0.00    +0.000 A 
ATOM     13  C   UNL     1      46.838   3.293   6.333  0.00  0.00    +0.000 A 
ATOM     14  C   UNL     1      47.452   2.062   6.165  0.00  0.00    +0.000 A 
ATOM     15  N   UNL     1      47.265   1.014   6.993  0.00  0.00    +0.000 NA
ATOM     16  C   UNL     1      46.430   1.206   8.038  0.00  0.00    +0.000 A 
ENDBRANCH  10  11
ENDBRANCH   9  10
ENDBRANCH   8   9
ENDBRANCH   5   8
ENDBRANCH   1   2
BRANCH   1  19
ATOM     17  C   UNL     1      48.969   6.586  16.125  0.00  0.00    +0.000 C 
ATOM     18  O   UNL     1      50.088   6.124  15.908  0.00  0.00    +0.000 OA
ATOM     19  N   UNL     1      48.101   6.851  15.101  0.00  0.00    +0.000 N 
ATOM     20  H   UNL     1      47.179   7.214  15.298  0.00  0.00    +0.000 HD
BRANCH  17  28
ATOM     21  C   UNL     1      47.972   9.457  17.733  0.00  0.00    +0.000 A 
ATOM     22  N   UNL     1      47.509  10.404  18.571  0.00  0.00    +0.000 NA
ATOM     23  C   UNL     1      47.181  10.034  19.813  0.00  0.00    +0.000 A 
ATOM     24  N   UNL     1      47.263   8.812  20.333  0.00  0.00    +0.000 NA
ATOM     25  C   UNL     1      47.716   7.897  19.459  0.00  0.00    +0.000 A 
ATOM     26  S   UNL     1      47.894   6.282  19.951  0.00  0.00    +0.000 S 
ATOM     27  C   UNL     1      48.451   5.823  18.412  0.00  0.00    +0.000 A 
ATOM     28  C   UNL     1      48.510   6.870  17.498  0.00  0.00    +0.000 A 
ATOM     29  C   UNL     1      48.083   8.114  18.135  0.00  0.00    +0.000 A 
BRANCH  21  31
ATOM     30  C   UNL     1      49.623  10.362  16.339  0.00  0.00    +0.000 C 
ATOM     31  O   UNL     1      48.305   9.833  16.449  0.00  0.00    +0.000 OA
ENDBRANCH  21  31
ENDBRANCH  17  28
ENDBRANCH   1  19
TORSDOF 8
ENDMDL
MODEL 6
REMARK VINA RESULT:    -7.328      1.997      3.453
REMARK INTER + INTRA:         -12.291
REMARK INTER:                 -10.896
REMARK INTRA:                  -1.396
REMARK UNBOUND:                -1.536
REMARK  Name = 
REMARK  9 active torsions:
REMARK  status: ('A' for Active; 'I' for Inactive)
REMARK    1  A    between atoms: C_1  and  O_2
REMARK    2  A    between atoms: O_2  and  C_3
REMARK    3  A    between atoms: C_10  and  C_11
REMARK    4  A    between atoms: N_13  and  C_14
REMARK    5  A    between atoms: C_14  and  C_15
REMARK    6  A    between atoms: C_18  and  O_19
REMARK    7  A    between atoms: O_19  and  C_20
REMARK    8  A    between atoms: C_20  and  C_21
REMARK    9  A    between atoms: C_21  and  C_22
REMARK                            x       y       z     vdW  Elec       q    Type
REMARK                         _______ _______ _______ _____ _____    ______ ____
ROOT
ATOM      1  C   UNL     1      47.205   3.975  14.891  0.00  0.00    +0.000 C 
ENDROOT
BRANCH   1   2
ATOM      2  C   UNL     1      46.302   4.275  13.718  0.00  0.00    +0.000 A 
ATOM      3  C   UNL     1      45.963   5.597  13.404  0.00  0.00    +0.000 A 
ATOM      4  C   UNL     1      45.180   5.890  12.281  0.00  0.00    +0.000 A 
ATOM      5  C   UNL     1      44.713   4.866  11.456  0.00  0.00    +0.000 A 
ATOM      6  C   UNL     1      44.981   3.542  11.808  0.00  0.00    +0.000 A 
ATOM      7  C   UNL     1      45.771   3.246  12.928  0.00  0.00    +0.000 A 
BRANCH   5   8
ATOM      8  O   UNL     1      43.965   5.055  10.320  0.00  0.00    +0.000 OA
BRANCH   8   9
ATOM      9  C   UNL     1      44.134   4.052   9.308  0.00  0.00    +0.000 C 
BRANCH   9  10
ATOM     10  C   UNL     1      45.344   4.395   8.434  0.00  0.00    +0.000 C 
BRANCH  10  11
ATOM     11  C   UNL     1      46.031   3.158   7.919  0.00  0.00    +0.000 A 
ATOM     12  C   UNL     1      46.842   3.188   6.782  0.00  0.00    +0.000 A 
ATOM     13  C   UNL     1      47.426   2.014   6.316  0.00  0.00    +0.000 A 
ATOM     14  C   UNL     1      47.176   0.838   7.006  0.00  0.00    +0.000 A 
ATOM     15  N   UNL     1      46.396   0.767   8.105  0.00  0.00    +0.000 NA
ATOM     16  C   UNL     1      45.845   1.923   8.535  0.00  0.00    +0.000 A 
ENDBRANCH  10  11
ENDBRANCH   9  10
ENDBRANCH   8   9
ENDBRANCH   5   8
ENDBRANCH   1   2
BRANCH   1  19
ATOM     17  C   UNL     1      48.508   5.223  16.564  0.00  0.00    +0.000 C 
ATOM     18  O   UNL     1      49.279   4.277  16.717  0.00  0.00    +0.000 OA
ATOM     19  N   UNL     1      47.464   5.150  15.682  0.00  0.00    +0.000 N 
ATOM     20  H   UNL     1      46.829   5.930  15.582  0.00  0.00    +0.000 HD
BRANCH  17  28
ATOM     21  C   UNL     1      48.608   8.539  15.664  0.00  0.00    +0.000 A 
ATOM     22  N   UNL     1      48.641   9.884  15.591  0.00  0.00    +0.000 NA
ATOM     23  C   UNL     1      48.784  10.569  16.730  0.00  0.00    +0.000 A 
ATOM     24  N   UNL     1      48.905  10.068  17.957  0.00  0.00    +0.000 NA
ATOM     25  C   UNL     1      48.853   8.725  17.984  0.00  0.00    +0.000 A 
ATOM     26  S   UNL     1      48.998   7.910  19.466  0.00  0.00    +0.000 S 
ATOM     27  C   UNL     1      48.839   6.398  18.706  0.00  0.00    +0.000 A 
ATOM     28  C   UNL     1      48.668   6.474  17.328  0.00  0.00    +0.000 A 
ATOM     29  C   UNL     1      48.693   7.871  16.898  0.00  0.00    +0.000 A 
BRANCH  21  31
ATOM     30  C   UNL     1      49.688   7.528  13.848  0.00  0.00    +0.000 C 
ATOM     31  O   UNL     1      48.454   7.829  14.492  0.00  0.00    +0.000 OA
ENDBRANCH  21  31
ENDBRANCH  17  28
ENDBRANCH   1  19
TORSDOF 8
ENDMDL
MODEL 7
REMARK VINA RESULT:    -6.657      2.718      3.481
REMARK INTER + INTRA:         -11.306
REMARK INTER:                 -10.353
REMARK INTRA:                  -0.953
REMARK UNBOUND:                -1.536
REMARK  Name = 
REMARK  9 active torsions:
REMARK  status: ('A' for Active; 'I' for Inactive)
REMARK    1  A    between atoms: C_1  and  O_2
REMARK    2  A    between atoms: O_2  and  C_3
REMARK    3  A    between atoms: C_10  and  C_11
REMARK    4  A    between atoms: N_13  and  C_14
REMARK    5  A    between atoms: C_14  and  C_15
REMARK    6  A    between atoms: C_18  and  O_19
REMARK    7  A    between atoms: O_19  and  C_20
REMARK    8  A    between atoms: C_20  and  C_21
REMARK    9  A    between atoms: C_21  and  C_22
REMARK                            x       y       z     vdW  Elec       q    Type
REMARK                         _______ _______ _______ _____ _____    ______ ____
ROOT
ATOM      1  C   UNL     1      47.804   4.790  15.358  0.00  0.00    +0.000 C 
ENDROOT
BRANCH   1   2
ATOM      2  C   UNL     1      47.009   4.988  14.089  0.00  0.00    +0.000 A 
ATOM      3  C   UNL     1      47.026   6.222  13.428  0.00  0.00    +0.000 A 
ATOM      4  C   UNL     1      46.345   6.396  12.216  0.00  0.00    +0.000 A 
ATOM      5  C   UNL     1      45.628   5.343  11.649  0.00  0.00    +0.000 A 
ATOM      6  C   UNL     1      45.542   4.134  12.343  0.00  0.00    +0.000 A 
ATOM      7  C   UNL     1      46.229   3.955  13.552  0.00  0.00    +0.000 A 
BRANCH   5   8
ATOM      8  O   UNL     1      44.953   5.407  10.454  0.00  0.00    +0.000 OA
BRANCH   8   9
ATOM      9  C   UNL     1      44.373   4.170  10.016  0.00  0.00    +0.000 C 
BRANCH   9  10
ATOM     10  C   UNL     1      44.458   4.068   8.490  0.00  0.00    +0.000 C 
BRANCH  10  11
ATOM     11  C   UNL     1      45.514   3.088   8.053  0.00  0.00    +0.000 A 
ATOM     12  C   UNL     1      46.497   3.436   7.124  0.00  0.00    +0.000 A 
ATOM     13  C   UNL     1      47.431   2.488   6.715  0.00  0.00    +0.000 A 
ATOM     14  C   UNL     1      47.350   1.212   7.252  0.00  0.00    +0.000 A 
ATOM     15  N   UNL     1      46.414   0.837   8.148  0.00  0.00    +0.000 NA
ATOM     16  C   UNL     1      45.522   1.779   8.527  0.00  0.00    +0.000 A 
ENDBRANCH  10  11
ENDBRANCH   9  10
ENDBRANCH   8   9
ENDBRANCH   5   8
ENDBRANCH   1   2
BRANCH   1  19
ATOM     17  C   UNL     1      48.957   6.844  16.071  0.00  0.00    +0.000 C 
ATOM     18  O   UNL     1      49.912   6.602  15.335  0.00  0.00    +0.000 OA
ATOM     19  N   UNL     1      47.881   6.000  16.136  0.00  0.00    +0.000 N 
ATOM     20  H   UNL     1      47.113   6.205  16.759  0.00  0.00    +0.000 HD
BRANCH  17  28
ATOM     21  C   UNL     1      49.184   7.340  19.465  0.00  0.00    +0.000 A 
ATOM     22  N   UNL     1      49.286   7.809  20.724  0.00  0.00    +0.000 NA
ATOM     23  C   UNL     1      49.223   9.131  20.906  0.00  0.00    +0.000 A 
ATOM     24  N   UNL     1      49.061  10.063  19.970  0.00  0.00    +0.000 NA
ATOM     25  C   UNL     1      48.977   9.553  18.729  0.00  0.00    +0.000 A 
ATOM     26  S   UNL     1      48.763  10.594  17.406  0.00  0.00    +0.000 S 
ATOM     27  C   UNL     1      48.763   9.289  16.316  0.00  0.00    +0.000 A 
ATOM     28  C   UNL     1      48.930   8.048  16.922  0.00  0.00    +0.000 A 
ATOM     29  C   UNL     1      49.043   8.210  18.370  0.00  0.00    +0.000 A 
BRANCH  21  31
ATOM     30  C   UNL     1      48.119   5.275  19.765  0.00  0.00    +0.000 C 
ATOM     31  O   UNL     1      49.256   5.977  19.273  0.00  0.00    +0.000 OA
ENDBRANCH  21  31
ENDBRANCH  17  28
ENDBRANCH   1  19
TORSDOF 8
ENDMDL
MODEL 8
REMARK VINA RESULT:    -6.475      3.107      3.854
REMARK INTER + INTRA:         -11.040
REMARK INTER:                  -9.948
REMARK INTRA:                  -1.092
REMARK UNBOUND:                -1.536
REMARK  Name = 
REMARK  9 active torsions:
REMARK  status: ('A' for Active; 'I' for Inactive)
REMARK    1  A    between atoms: C_1  and  O_2
REMARK    2  A    between atoms: O_2  and  C_3
REMARK    3  A    between atoms: C_10  and  C_11
REMARK    4  A    between atoms: N_13  and  C_14
REMARK    5  A    between atoms: C_14  and  C_15
REMARK    6  A    between atoms: C_18  and  O_19
REMARK    7  A    between atoms: O_19  and  C_20
REMARK    8  A    between atoms: C_20  and  C_21
REMARK    9  A    between atoms: C_21  and  C_22
REMARK                            x       y       z     vdW  Elec       q    Type
REMARK                         _______ _______ _______ _____ _____    ______ ____
ROOT
ATOM      1  C   UNL     1      45.354   7.979  12.923  0.00  0.00    +0.000 C 
ENDROOT
BRANCH   1   2
ATOM      2  C   UNL     1      44.798   6.670  12.414  0.00  0.00    +0.000 A 
ATOM      3  C   UNL     1      43.777   6.658  11.457  0.00  0.00    +0.000 A 
ATOM      4  C   UNL     1      43.300   5.451  10.931  0.00  0.00    +0.000 A 
ATOM      5  C   UNL     1      43.829   4.233  11.359  0.00  0.00    +0.000 A 
ATOM      6  C   UNL     1      44.792   4.234  12.370  0.00  0.00    +0.000 A 
ATOM      7  C   UNL     1      45.276   5.442  12.893  0.00  0.00    +0.000 A 
BRANCH   5   8
ATOM      8  O   UNL     1      43.449   3.002  10.884  0.00  0.00    +0.000 OA
BRANCH   8   9
ATOM      9  C   UNL     1      44.395   2.368  10.011  0.00  0.00    +0.000 C 
BRANCH   9  10
ATOM     10  C   UNL     1      44.597   3.223   8.755  0.00  0.00    +0.000 C 
BRANCH  10  11
ATOM     11  C   UNL     1      45.731   2.711   7.908  0.00  0.00    +0.000 A 
ATOM     12  C   UNL     1      46.275   3.473   6.872  0.00  0.00    +0.000 A 
ATOM     13  C   UNL     1      47.296   2.947   6.085  0.00  0.00    +0.000 A 
ATOM     14  C   UNL     1      47.742   1.664   6.361  0.00  0.00    +0.000 A 
ATOM     15  N   UNL     1      47.241   0.895   7.350  0.00  0.00    +0.000 NA
ATOM     16  C   UNL     1      46.252   1.433   8.098  0.00  0.00    +0.000 A 
ENDBRANCH  10  11
ENDBRANCH   9  10
ENDBRANCH   8   9
ENDBRANCH   5   8
ENDBRANCH   1   2
BRANCH   1  19
ATOM     17  C   UNL     1      47.596   8.883  12.464  0.00  0.00    +0.000 C 
ATOM     18  O   UNL     1      47.122   9.814  11.814  0.00  0.00    +0.000 OA
ATOM     19  N   UNL     1      46.789   7.941  13.042  0.00  0.00    +0.000 N 
ATOM     20  H   UNL     1      47.195   7.173  13.557  0.00  0.00    +0.000 HD
BRANCH  17  28
ATOM     21  C   UNL     1      49.622   8.688  15.234  0.00  0.00    +0.000 A 
ATOM     22  N   UNL     1      50.618   8.551  16.130  0.00  0.00    +0.000 NA
ATOM     23  C   UNL     1      51.862   8.398  15.665  0.00  0.00    +0.000 A 
ATOM     24  N   UNL     1      52.243   8.370  14.390  0.00  0.00    +0.000 NA
ATOM     25  C   UNL     1      51.217   8.497  13.531  0.00  0.00    +0.000 A 
ATOM     26  S   UNL     1      51.515   8.490  11.860  0.00  0.00    +0.000 S 
ATOM     27  C   UNL     1      49.861   8.672  11.514  0.00  0.00    +0.000 A 
ATOM     28  C   UNL     1      49.052   8.736  12.644  0.00  0.00    +0.000 A 
ATOM     29  C   UNL     1      49.871   8.646  13.851  0.00  0.00    +0.000 A 
BRANCH  21  31
ATOM     30  C   UNL     1      48.262   8.881  17.132  0.00  0.00    +0.000 C 
ATOM     31  O   UNL     1      48.337   8.839  15.710  0.00  0.00    +0.000 OA
ENDBRANCH  21  31
ENDBRANCH  17  28
ENDBRANCH   1  19
TORSDOF 8
ENDMDL
MODEL 9
REMARK VINA RESULT:    -6.438      3.564      8.508
REMARK INTER + INTRA:         -10.985
REMARK INTER:                  -9.501
REMARK INTRA:                  -1.484
REMARK UNBOUND:                -1.536
REMARK  Name = 
REMARK  9 active torsions:
REMARK  status: ('A' for Active; 'I' for Inactive)
REMARK    1  A    between atoms: C_1  and  O_2
REMARK    2  A    between atoms: O_2  and  C_3
REMARK    3  A    between atoms: C_10  and  C_11
REMARK    4  A    between atoms: N_13  and  C_14
REMARK    5  A    between atoms: C_14  and  C_15
REMARK    6  A    between atoms: C_18  and  O_19
REMARK    7  A    between atoms: O_19  and  C_20
REMARK    8  A    between atoms: C_20  and  C_21
REMARK    9  A    between atoms: C_21  and  C_22
REMARK                            x       y       z     vdW  Elec       q    Type
REMARK                         _______ _______ _______ _____ _____    ______ ____
ROOT
ATOM      1  C   UNL     1      47.499   3.279  16.993  0.00  0.00    +0.000 C 
ENDROOT
BRANCH   1   2
ATOM      2  C   UNL     1      48.947   3.296  17.422  0.00  0.00    +0.000 A 
ATOM      3  C   UNL     1      49.809   2.258  17.049  0.00  0.00    +0.000 A 
ATOM      4  C   UNL     1      51.168   2.297  17.386  0.00  0.00    +0.000 A 
ATOM      5  C   UNL     1      51.688   3.370  18.110  0.00  0.00    +0.000 A 
ATOM      6  C   UNL     1      50.818   4.369  18.553  0.00  0.00    +0.000 A 
ATOM      7  C   UNL     1      49.459   4.336  18.210  0.00  0.00    +0.000 A 
BRANCH   5   8
ATOM      8  O   UNL     1      53.007   3.512  18.463  0.00  0.00    +0.000 OA
BRANCH   8   9
ATOM      9  C   UNL     1      53.520   4.849  18.369  0.00  0.00    +0.000 C 
BRANCH   9  10
ATOM     10  C   UNL     1      54.321   5.008  17.073  0.00  0.00    +0.000 C 
BRANCH  10  11
ATOM     11  C   UNL     1      53.770   6.110  16.208  0.00  0.00    +0.000 A 
ATOM     12  C   UNL     1      52.470   6.592  16.373  0.00  0.00    +0.000 A 
ATOM     13  C   UNL     1      51.984   7.584  15.526  0.00  0.00    +0.000 A 
ATOM     14  C   UNL     1      52.821   8.064  14.531  0.00  0.00    +0.000 A 
ATOM     15  N   UNL     1      54.082   7.623  14.336  0.00  0.00    +0.000 NA
ATOM     16  C   UNL     1      54.526   6.662  15.176  0.00  0.00    +0.000 A 
ENDBRANCH  10  11
ENDBRANCH   9  10
ENDBRANCH   8   9
ENDBRANCH   5   8
ENDBRANCH   1   2
BRANCH   1  19
ATOM     17  C   UNL     1      47.135   4.174  14.730  0.00  0.00    +0.000 C 
ATOM     18  O   UNL     1      47.336   3.070  14.226  0.00  0.00    +0.000 OA
ATOM     19  N   UNL     1      47.196   4.355  16.085  0.00  0.00    +0.000 N 
ATOM     20  H   UNL     1      47.046   5.272  16.481  0.00  0.00    +0.000 HD
BRANCH  17  28
ATOM     21  C   UNL     1      44.482   5.006  12.709  0.00  0.00    +0.000 A 
ATOM     22  N   UNL     1      43.571   5.585  11.903  0.00  0.00    +0.000 NA
ATOM     23  C   UNL     1      43.843   6.803  11.424  0.00  0.00    +0.000 A 
ATOM     24  N   UNL     1      44.937   7.527  11.649  0.00  0.00    +0.000 NA
ATOM     25  C   UNL     1      45.812   6.918  12.467  0.00  0.00    +0.000 A 
ATOM     26  S   UNL     1      47.271   7.691  12.861  0.00  0.00    +0.000 S 
ATOM     27  C   UNL     1      47.752   6.390  13.842  0.00  0.00    +0.000 A 
ATOM     28  C   UNL     1      46.827   5.353  13.899  0.00  0.00    +0.000 A 
ATOM     29  C   UNL     1      45.672   5.667  13.060  0.00  0.00    +0.000 A 
BRANCH  21  31
ATOM     30  C   UNL     1      43.563   2.897  12.269  0.00  0.00    +0.000 C 
ATOM     31  O   UNL     1      44.202   3.754  13.211  0.00  0.00    +0.000 OA
ENDBRANCH  21  31
ENDBRANCH  17  28
ENDBRANCH   1  19
TORSDOF 8
ENDMDL
