MODEL 1
REMARK VINA RESULT:    -8.515      0.000      0.000
REMARK INTER + INTRA:         -13.524
REMARK INTER:                 -12.746
REMARK INTRA:                  -0.777
REMARK UNBOUND:                -0.777
REMARK  Name = 
REMARK  9 active torsions:
REMARK  status: ('A' for Active; 'I' for Inactive)
REMARK    1  A    between atoms: C_2  and  C_22
REMARK    2  A    between atoms: N_3  and  C_4
REMARK    3  A    between atoms: C_4  and  C_5
REMARK    4  A    between atoms: C_9  and  C_10
REMARK    5  A    between atoms: C_10  and  N_11
REMARK    6  A    between atoms: N_11  and  CA_12
REMARK    7  A    between atoms: CA_12  and  C_13
REMARK    8  A    between atoms: CA_12  and  C_15
REMARK    9  A    between atoms: C_13  and  O_14
REMARK                            x       y       z     vdW  Elec       q    Type
REMARK                         _______ _______ _______ _____ _____    ______ ____
ROOT
ATOM      1  C   UNL     1      46.557   5.102  13.662  0.00  0.00    +0.000 A 
ATOM      2  C   UNL     1      47.548   6.028  13.308  0.00  0.00    +0.000 A 
ATOM      3  C   UNL     1      47.277   7.034  12.386  0.00  0.00    +0.000 A 
ATOM      4  C   UNL     1      46.013   7.121  11.804  0.00  0.00    +0.000 A 
ATOM      5  C   UNL     1      45.005   6.200  12.134  0.00  0.00    +0.000 A 
ATOM      6  C   UNL     1      45.282   5.207  13.084  0.00  0.00    +0.000 A 
ENDROOT
BRANCH   1   7
ATOM      7  C   UNL     1      46.860   4.026  14.668  0.00  0.00    +0.000 C 
BRANCH   7  10
ATOM      8  O   UNL     1      46.545   3.188  17.366  0.00  0.00    +0.000 OA
ATOM      9  C   UNL     1      47.256   4.155  17.102  0.00  0.00    +0.000 C 
ATOM     10  N   UNL     1      47.521   4.568  15.825  0.00  0.00    +0.000 N 
ATOM     11  H   UNL     1      48.093   5.387  15.673  0.00  0.00    +0.000 HD
BRANCH   9  12
ATOM     12  C   UNL     1      47.925   4.929  18.149  0.00  0.00    +0.000 A 
ATOM     13  C   UNL     1      47.213   5.803  18.956  0.00  0.00    +0.000 A 
ATOM     14  S   UNL     1      48.179   6.563  20.141  0.00  0.00    +0.000 S 
ATOM     15  C   UNL     1      49.585   5.782  19.582  0.00  0.00    +0.000 A 
ATOM     16  N   UNL     1      50.791   5.993  20.172  0.00  0.00    +0.000 NA
ATOM     17  C   UNL     1      51.772   5.356  19.624  0.00  0.00    +0.000 A 
ATOM     18  N   UNL     1      51.660   4.533  18.534  0.00  0.00    +0.000 N 
ATOM     19  C   UNL     1      50.461   4.281  17.911  0.00  0.00    +0.000 A 
ATOM     20  O   UNL     1      50.395   3.513  16.957  0.00  0.00    +0.000 OA
ATOM     21  C   UNL     1      49.323   4.959  18.502  0.00  0.00    +0.000 A 
ATOM     22  H   UNL     1      52.467   4.063  18.152  0.00  0.00    +0.000 HD
ENDBRANCH   9  12
ENDBRANCH   7  10
ENDBRANCH   1   7
BRANCH   5  23
ATOM     23  C   UNL     1      43.658   6.261  11.443  0.00  0.00    +0.000 C 
BRANCH  23  24
ATOM     24  N   UNL     1      43.604   5.243  10.396  0.00  0.00    +0.000 NA
ATOM     25  H   UNL     1      44.044   5.635   9.561  0.00  0.00    +0.000 HD
BRANCH  24  26
ATOM     26  CA  UNL     1      44.297   3.979  10.724  0.00  0.00    +0.000 C 
BRANCH  26  27
ATOM     27  C   UNL     1      45.090   3.459   9.516  0.00  0.00    +0.000 A 
ATOM     28  C   UNL     1      45.589   4.317   8.533  0.00  0.00    +0.000 A 
ATOM     29  C   UNL     1      46.286   3.781   7.454  0.00  0.00    +0.000 A 
ATOM     30  C   UNL     1      46.464   2.407   7.368  0.00  0.00    +0.000 A 
ATOM     31  C   UNL     1      45.921   1.618   8.368  0.00  0.00    +0.000 A 
ATOM     32  N   UNL     1      45.234   2.109   9.423  0.00  0.00    +0.000 NA
ENDBRANCH  26  27
BRANCH  26  33
ATOM     33  C   UNL     1      43.353   2.846  11.206  0.00  0.00    +0.000 C 
BRANCH  33  34
ATOM     34  O   UNL     1      43.815   2.196  12.395  0.00  0.00    +0.000 OA
ATOM     35  H   UNL     1      43.795   1.232  12.223  0.00  0.00    +0.000 HD
ENDBRANCH  33  34
ENDBRANCH  26  33
ENDBRANCH  24  26
ENDBRANCH  23  24
ENDBRANCH   5  23
TORSDOF 9
ENDMDL
MODEL 2
REMARK VINA RESULT:    -8.270      1.941      2.933
REMARK INTER + INTRA:         -13.156
REMARK INTER:                 -11.772
REMARK INTRA:                  -1.384
REMARK UNBOUND:                -0.777
REMARK  Name = 
REMARK  9 active torsions:
REMARK  status: ('A' for Active; 'I' for Inactive)
REMARK    1  A    between atoms: C_2  and  C_22
REMARK    2  A    between atoms: N_3  and  C_4
REMARK    3  A    between atoms: C_4  and  C_5
REMARK    4  A    between atoms: C_9  and  C_10
REMARK    5  A    between atoms: C_10  and  N_11
REMARK    6  A    between atoms: N_11  and  CA_12
REMARK    7  A    between atoms: CA_12  and  C_13
REMARK    8  A    between atoms: CA_12  and  C_15
REMARK    9  A    between atoms: C_13  and  O_14
REMARK                            x       y       z     vdW  Elec       q    Type
REMARK                         _______ _______ _______ _____ _____    ______ ____
ROOT
ATOM      1  C   UNL     1      47.262   7.788  12.202  0.00  0.00    +0.000 A 
ATOM      2  C   UNL     1      46.985   9.152  12.033  0.00  0.00    +0.000 A 
ATOM      3  C   UNL     1      45.685   9.582  11.787  0.00  0.00    +0.000 A 
ATOM      4  C   UNL     1      44.649   8.653  11.701  0.00  0.00    +0.000 A 
ATOM      5  C   UNL     1      44.902   7.280  11.856  0.00  0.00    +0.000 A 
ATOM      6  C   UNL     1      46.211   6.860  12.131  0.00  0.00    +0.000 A 
ENDROOT
BRANCH   1   7
ATOM      7  C   UNL     1      48.670   7.337  12.478  0.00  0.00    +0.000 C 
BRANCH   7  10
ATOM      8  O   UNL     1      48.602   8.552  15.047  0.00  0.00    +0.000 OA
ATOM      9  C   UNL     1      48.796   7.342  14.944  0.00  0.00    +0.000 C 
ATOM     10  N   UNL     1      48.762   6.674  13.752  0.00  0.00    +0.000 N 
ATOM     11  H   UNL     1      48.955   5.682  13.729  0.00  0.00    +0.000 HD
BRANCH   9  12
ATOM     12  C   UNL     1      49.037   6.498  16.115  0.00  0.00    +0.000 A 
ATOM     13  C   UNL     1      50.011   6.831  17.046  0.00  0.00    +0.000 A 
ATOM     14  S   UNL     1      50.090   5.738  18.355  0.00  0.00    +0.000 S 
ATOM     15  C   UNL     1      48.859   4.764  17.695  0.00  0.00    +0.000 A 
ATOM     16  N   UNL     1      48.431   3.641  18.331  0.00  0.00    +0.000 NA
ATOM     17  C   UNL     1      47.513   2.988  17.699  0.00  0.00    +0.000 A 
ATOM     18  N   UNL     1      46.988   3.350  16.486  0.00  0.00    +0.000 N 
ATOM     19  C   UNL     1      47.381   4.481  15.811  0.00  0.00    +0.000 A 
ATOM     20  O   UNL     1      46.865   4.789  14.742  0.00  0.00    +0.000 OA
ATOM     21  C   UNL     1      48.399   5.261  16.490  0.00  0.00    +0.000 A 
ATOM     22  H   UNL     1      46.270   2.795  16.043  0.00  0.00    +0.000 HD
ENDBRANCH   9  12
ENDBRANCH   7  10
ENDBRANCH   1   7
BRANCH   5  23
ATOM     23  C   UNL     1      43.781   6.274  11.690  0.00  0.00    +0.000 C 
BRANCH  23  24
ATOM     24  N   UNL     1      44.025   5.470  10.495  0.00  0.00    +0.000 NA
ATOM     25  H   UNL     1      44.718   5.962   9.927  0.00  0.00    +0.000 HD
BRANCH  24  26
ATOM     26  CA  UNL     1      44.537   4.108  10.757  0.00  0.00    +0.000 C 
BRANCH  26  27
ATOM     27  C   UNL     1      45.221   3.530   9.510  0.00  0.00    +0.000 A 
ATOM     28  C   UNL     1      45.700   4.346   8.483  0.00  0.00    +0.000 A 
ATOM     29  C   UNL     1      46.296   3.759   7.371  0.00  0.00    +0.000 A 
ATOM     30  C   UNL     1      46.396   2.376   7.297  0.00  0.00    +0.000 A 
ATOM     31  C   UNL     1      45.879   1.632   8.344  0.00  0.00    +0.000 A 
ATOM     32  N   UNL     1      45.288   2.173   9.432  0.00  0.00    +0.000 NA
ENDBRANCH  26  27
BRANCH  26  33
ATOM     33  C   UNL     1      43.451   3.102  11.223  0.00  0.00    +0.000 C 
BRANCH  33  34
ATOM     34  O   UNL     1      43.844   2.340  12.369  0.00  0.00    +0.000 OA
ATOM     35  H   UNL     1      43.068   1.808  12.642  0.00  0.00    +0.000 HD
ENDBRANCH  33  34
ENDBRANCH  26  33
ENDBRANCH  24  26
ENDBRANCH  23  24
ENDBRANCH   5  23
TORSDOF 9
ENDMDL
MODEL 3
REMARK VINA RESULT:    -8.244      1.584      1.982
REMARK INTER + INTRA:         -13.118
REMARK INTER:                 -12.398
REMARK INTRA:                  -0.720
REMARK UNBOUND:                -0.777
REMARK  Name = 
REMARK  9 active torsions:
REMARK  status: ('A' for Active; 'I' for Inactive)
REMARK    1  A    between atoms: C_2  and  C_22
REMARK    2  A    between atoms: N_3  and  C_4
REMARK    3  A    between atoms: C_4  and  C_5
REMARK    4  A    between atoms: C_9  and  C_10
REMARK    5  A    between atoms: C_10  and  N_11
REMARK    6  A    between atoms: N_11  and  CA_12
REMARK    7  A    between atoms: CA_12  and  C_13
REMARK    8  A    between atoms: CA_12  and  C_15
REMARK    9  A    between atoms: C_13  and  O_14
REMARK                            x       y       z     vdW  Elec       q    Type
REMARK                         _______ _______ _______ _____ _____    ______ ____
ROOT
ATOM      1  C   UNL     1      46.527   6.069  13.218  0.00  0.00    +0.000 A 
ATOM      2  C   UNL     1      46.972   7.365  12.925  0.00  0.00    +0.000 A 
ATOM      3  C   UNL     1      46.186   8.225  12.163  0.00  0.00    +0.000 A 
ATOM      4  C   UNL     1      44.950   7.796  11.682  0.00  0.00    +0.000 A 
ATOM      5  C   UNL     1      44.486   6.498  11.953  0.00  0.00    +0.000 A 
ATOM      6  C   UNL     1      45.273   5.650  12.744  0.00  0.00    +0.000 A 
ENDROOT
BRANCH   1   7
ATOM      7  C   UNL     1      47.380   5.153  14.051  0.00  0.00    +0.000 C 
BRANCH   7  10
ATOM      8  O   UNL     1      49.595   6.579  15.120  0.00  0.00    +0.000 OA
ATOM      9  C   UNL     1      48.656   6.266  15.849  0.00  0.00    +0.000 C 
ATOM     10  N   UNL     1      47.522   5.652  15.392  0.00  0.00    +0.000 N 
ATOM     11  H   UNL     1      46.795   5.396  16.046  0.00  0.00    +0.000 HD
BRANCH   9  12
ATOM     12  C   UNL     1      48.656   6.571  17.280  0.00  0.00    +0.000 A 
ATOM     13  C   UNL     1      48.688   7.882  17.730  0.00  0.00    +0.000 A 
ATOM     14  S   UNL     1      48.632   8.011  19.432  0.00  0.00    +0.000 S 
ATOM     15  C   UNL     1      48.608   6.319  19.619  0.00  0.00    +0.000 A 
ATOM     16  N   UNL     1      48.558   5.746  20.851  0.00  0.00    +0.000 NA
ATOM     17  C   UNL     1      48.574   4.454  20.839  0.00  0.00    +0.000 A 
ATOM     18  N   UNL     1      48.644   3.682  19.709  0.00  0.00    +0.000 N 
ATOM     19  C   UNL     1      48.686   4.215  18.443  0.00  0.00    +0.000 A 
ATOM     20  O   UNL     1      48.716   3.490  17.454  0.00  0.00    +0.000 OA
ATOM     21  C   UNL     1      48.650   5.665  18.402  0.00  0.00    +0.000 A 
ATOM     22  H   UNL     1      48.654   2.674  19.768  0.00  0.00    +0.000 HD
ENDBRANCH   9  12
ENDBRANCH   7  10
ENDBRANCH   1   7
BRANCH   5  23
ATOM     23  C   UNL     1      43.174   6.019  11.366  0.00  0.00    +0.000 C 
BRANCH  23  24
ATOM     24  N   UNL     1      43.445   5.112  10.252  0.00  0.00    +0.000 NA
ATOM     25  H   UNL     1      43.935   5.645   9.532  0.00  0.00    +0.000 HD
BRANCH  24  26
ATOM     26  CA  UNL     1      44.276   3.940  10.595  0.00  0.00    +0.000 C 
BRANCH  26  27
ATOM     27  C   UNL     1      45.077   3.460   9.376  0.00  0.00    +0.000 A 
ATOM     28  C   UNL     1      45.324   2.106   9.139  0.00  0.00    +0.000 A 
ATOM     29  C   UNL     1      46.071   1.737   8.024  0.00  0.00    +0.000 A 
ATOM     30  C   UNL     1      46.565   2.718   7.174  0.00  0.00    +0.000 A 
ATOM     31  C   UNL     1      46.297   4.040   7.486  0.00  0.00    +0.000 A 
ATOM     32  N   UNL     1      45.583   4.428   8.565  0.00  0.00    +0.000 NA
ENDBRANCH  26  27
BRANCH  26  33
ATOM     33  C   UNL     1      43.474   2.733  11.151  0.00  0.00    +0.000 C 
BRANCH  33  34
ATOM     34  O   UNL     1      43.785   2.430  12.515  0.00  0.00    +0.000 OA
ATOM     35  H   UNL     1      43.058   1.870  12.859  0.00  0.00    +0.000 HD
ENDBRANCH  33  34
ENDBRANCH  26  33
ENDBRANCH  24  26
ENDBRANCH  23  24
ENDBRANCH   5  23
TORSDOF 9
ENDMDL
MODEL 4
REMARK VINA RESULT:    -7.952      3.012      8.605
REMARK INTER + INTRA:         -12.681
REMARK INTER:                 -11.381
REMARK INTRA:                  -1.300
REMARK UNBOUND:                -0.777
REMARK  Name = 
REMARK  9 active torsions:
REMARK  status: ('A' for Active; 'I' for Inactive)
REMARK    1  A    between atoms: C_2  and  C_22
REMARK    2  A    between atoms: N_3  and  C_4
REMARK    3  A    between atoms: C_4  and  C_5
REMARK    4  A    between atoms: C_9  and  C_10
REMARK    5  A    between atoms: C_10  and  N_11
REMARK    6  A    between atoms: N_11  and  CA_12
REMARK    7  A    between atoms: CA_12  and  C_13
REMARK    8  A    between atoms: CA_12  and  C_15
REMARK    9  A    between atoms: C_13  and  O_14
REMARK                            x       y       z     vdW  Elec       q    Type
REMARK                         _______ _______ _______ _____ _____    ______ ____
ROOT
ATOM      1  C   UNL     1      48.798   7.730  13.020  0.00  0.00    +0.000 A 
ATOM      2  C   UNL     1      50.080   8.297  13.015  0.00  0.00    +0.000 A 
ATOM      3  C   UNL     1      50.916   8.161  14.119  0.00  0.00    +0.000 A 
ATOM      4  C   UNL     1      50.476   7.463  15.243  0.00  0.00    +0.000 A 
ATOM      5  C   UNL     1      49.192   6.894  15.278  0.00  0.00    +0.000 A 
ATOM      6  C   UNL     1      48.369   7.014  14.149  0.00  0.00    +0.000 A 
ENDROOT
BRANCH   1   7
ATOM      7  C   UNL     1      47.908   7.876  11.817  0.00  0.00    +0.000 C 
BRANCH   7  10
ATOM      8  O   UNL     1      45.067   7.796  11.801  0.00  0.00    +0.000 OA
ATOM      9  C   UNL     1      45.711   6.752  11.724  0.00  0.00    +0.000 C 
ATOM     10  N   UNL     1      47.076   6.715  11.644  0.00  0.00    +0.000 N 
ATOM     11  H   UNL     1      47.550   5.823  11.608  0.00  0.00    +0.000 HD
BRANCH   9  12
ATOM     12  C   UNL     1      45.056   5.445  11.664  0.00  0.00    +0.000 A 
ATOM     13  C   UNL     1      44.413   4.918  12.774  0.00  0.00    +0.000 A 
ATOM     14  S   UNL     1      43.676   3.408  12.470  0.00  0.00    +0.000 S 
ATOM     15  C   UNL     1      44.232   3.393  10.860  0.00  0.00    +0.000 A 
ATOM     16  N   UNL     1      43.945   2.360  10.024  0.00  0.00    +0.000 NA
ATOM     17  C   UNL     1      44.457   2.471   8.843  0.00  0.00    +0.000 A 
ATOM     18  N   UNL     1      45.237   3.517   8.423  0.00  0.00    +0.000 N 
ATOM     19  C   UNL     1      45.544   4.588   9.228  0.00  0.00    +0.000 A 
ATOM     20  O   UNL     1      46.219   5.521   8.806  0.00  0.00    +0.000 OA
ATOM     21  C   UNL     1      44.976   4.519  10.561  0.00  0.00    +0.000 A 
ATOM     22  H   UNL     1      45.608   3.545   7.485  0.00  0.00    +0.000 HD
ENDBRANCH   9  12
ENDBRANCH   7  10
ENDBRANCH   1   7
BRANCH   5  23
ATOM     23  C   UNL     1      48.698   6.199  16.530  0.00  0.00    +0.000 C 
BRANCH  23  24
ATOM     24  N   UNL     1      48.702   4.754  16.315  0.00  0.00    +0.000 NA
ATOM     25  H   UNL     1      49.504   4.532  15.722  0.00  0.00    +0.000 HD
BRANCH  24  26
ATOM     26  CA  UNL     1      48.811   3.944  17.547  0.00  0.00    +0.000 C 
BRANCH  26  27
ATOM     27  C   UNL     1      50.199   3.295  17.656  0.00  0.00    +0.000 A 
ATOM     28  C   UNL     1      51.329   4.024  18.030  0.00  0.00    +0.000 A 
ATOM     29  C   UNL     1      52.562   3.381  18.094  0.00  0.00    +0.000 A 
ATOM     30  C   UNL     1      52.648   2.032  17.777  0.00  0.00    +0.000 A 
ATOM     31  C   UNL     1      51.488   1.381  17.394  0.00  0.00    +0.000 A 
ATOM     32  N   UNL     1      50.280   1.981  17.315  0.00  0.00    +0.000 NA
ENDBRANCH  26  27
BRANCH  26  33
ATOM     33  C   UNL     1      47.743   2.824  17.666  0.00  0.00    +0.000 C 
BRANCH  33  34
ATOM     34  O   UNL     1      46.407   3.295  17.463  0.00  0.00    +0.000 OA
ATOM     35  H   UNL     1      46.084   3.629  18.325  0.00  0.00    +0.000 HD
ENDBRANCH  33  34
ENDBRANCH  26  33
ENDBRANCH  24  26
ENDBRANCH  23  24
ENDBRANCH   5  23
TORSDOF 9
ENDMDL
MODEL 5
REMARK VINA RESULT:    -7.687      2.959      8.899
REMARK INTER + INTRA:         -12.284
REMARK INTER:                 -10.945
REMARK INTRA:                  -1.339
REMARK UNBOUND:                -0.777
REMARK  Name = 
REMARK  9 active torsions:
REMARK  status: ('A' for Active; 'I' for Inactive)
REMARK    1  A    between atoms: C_2  and  C_22
REMARK    2  A    between atoms: N_3  and  C_4
REMARK    3  A    between atoms: C_4  and  C_5
REMARK    4  A    between atoms: C_9  and  C_10
REMARK    5  A    between atoms: C_10  and  N_11
REMARK    6  A    between atoms: N_11  and  CA_12
REMARK    7  A    between atoms: CA_12  and  C_13
REMARK    8  A    between atoms: CA_12  and  C_15
REMARK    9  A    between atoms: C_13  and  O_14
REMARK                            x       y       z     vdW  Elec       q    Type
REMARK                         _______ _______ _______ _____ _____    ______ ____
ROOT
ATOM      1  C   UNL     1      48.483   8.140  12.937  0.00  0.00    +0.000 A 
ATOM      2  C   UNL     1      49.697   8.570  12.384  0.00  0.00    +0.000 A 
ATOM      3  C   UNL     1      50.887   8.416  13.090  0.00  0.00    +0.000 A 
ATOM      4  C   UNL     1      50.873   7.836  14.358  0.00  0.00    +0.000 A 
ATOM      5  C   UNL     1      49.668   7.406  14.938  0.00  0.00    +0.000 A 
ATOM      6  C   UNL     1      48.480   7.542  14.207  0.00  0.00    +0.000 A 
ENDROOT
BRANCH   1   7
ATOM      7  C   UNL     1      47.205   8.303  12.160  0.00  0.00    +0.000 C 
BRANCH   7  10
ATOM      8  O   UNL     1      44.581   7.866  11.159  0.00  0.00    +0.000 OA
ATOM      9  C   UNL     1      45.261   6.914  11.538  0.00  0.00    +0.000 C 
ATOM     10  N   UNL     1      46.557   7.035  11.956  0.00  0.00    +0.000 N 
ATOM     11  H   UNL     1      47.056   6.218  12.281  0.00  0.00    +0.000 HD
BRANCH   9  12
ATOM     12  C   UNL     1      44.742   5.546  11.530  0.00  0.00    +0.000 A 
ATOM     13  C   UNL     1      44.089   5.024  12.637  0.00  0.00    +0.000 A 
ATOM     14  S   UNL     1      43.524   3.431  12.395  0.00  0.00    +0.000 S 
ATOM     15  C   UNL     1      44.174   3.375  10.822  0.00  0.00    +0.000 A 
ATOM     16  N   UNL     1      44.041   2.269  10.042  0.00  0.00    +0.000 NA
ATOM     17  C   UNL     1      44.609   2.360   8.886  0.00  0.00    +0.000 A 
ATOM     18  N   UNL     1      45.305   3.453   8.439  0.00  0.00    +0.000 N 
ATOM     19  C   UNL     1      45.457   4.597   9.186  0.00  0.00    +0.000 A 
ATOM     20  O   UNL     1      46.060   5.567   8.740  0.00  0.00    +0.000 OA
ATOM     21  C   UNL     1      44.820   4.551  10.489  0.00  0.00    +0.000 A 
ATOM     22  H   UNL     1      45.727   3.462   7.522  0.00  0.00    +0.000 HD
ENDBRANCH   9  12
ENDBRANCH   7  10
ENDBRANCH   1   7
BRANCH   5  23
ATOM     23  C   UNL     1      49.656   6.843  16.344  0.00  0.00    +0.000 C 
BRANCH  23  24
ATOM     24  N   UNL     1      49.318   5.422  16.294  0.00  0.00    +0.000 NA
ATOM     25  H   UNL     1      50.027   4.917  16.829  0.00  0.00    +0.000 HD
BRANCH  24  26
ATOM     26  CA  UNL     1      47.994   5.080  16.856  0.00  0.00    +0.000 C 
BRANCH  26  27
ATOM     27  C   UNL     1      47.999   5.209  18.387  0.00  0.00    +0.000 A 
ATOM     28  C   UNL     1      47.302   6.223  19.046  0.00  0.00    +0.000 A 
ATOM     29  C   UNL     1      47.360   6.295  20.435  0.00  0.00    +0.000 A 
ATOM     30  C   UNL     1      48.114   5.366  21.138  0.00  0.00    +0.000 A 
ATOM     31  C   UNL     1      48.796   4.402  20.414  0.00  0.00    +0.000 A 
ATOM     32  N   UNL     1      48.765   4.313  19.067  0.00  0.00    +0.000 NA
ENDBRANCH  26  27
BRANCH  26  33
ATOM     33  C   UNL     1      47.500   3.655  16.493  0.00  0.00    +0.000 C 
BRANCH  33  34
ATOM     34  O   UNL     1      46.617   3.098  17.472  0.00  0.00    +0.000 OA
ATOM     35  H   UNL     1      46.053   3.828  17.800  0.00  0.00    +0.000 HD
ENDBRANCH  33  34
ENDBRANCH  26  33
ENDBRANCH  24  26
ENDBRANCH  23  24
ENDBRANCH   5  23
TORSDOF 9
ENDMDL
MODEL 6
REMARK VINA RESULT:    -7.518      2.474      3.395
REMARK INTER + INTRA:         -12.031
REMARK INTER:                 -11.065
REMARK INTRA:                  -0.967
REMARK UNBOUND:                -0.777
REMARK  Name = 
REMARK  9 active torsions:
REMARK  status: ('A' for Active; 'I' for Inactive)
REMARK    1  A    between atoms: C_2  and  C_22
REMARK    2  A    between atoms: N_3  and  C_4
REMARK    3  A    between atoms: C_4  and  C_5
REMARK    4  A    between atoms: C_9  and  C_10
REMARK    5  A    between atoms: C_10  and  N_11
REMARK    6  A    between atoms: N_11  and  CA_12
REMARK    7  A    between atoms: CA_12  and  C_13
REMARK    8  A    between atoms: CA_12  and  C_15
REMARK    9  A    between atoms: C_13  and  O_14
REMARK                            x       y       z     vdW  Elec       q    Type
REMARK                         _______ _______ _______ _____ _____    ______ ____
ROOT
ATOM      1  C   UNL     1      49.048   7.231  14.670  0.00  0.00    +0.000 A 
ATOM      2  C   UNL     1      49.704   7.815  13.578  0.00  0.00    +0.000 A 
ATOM      3  C   UNL     1      49.261   7.580  12.280  0.00  0.00    +0.000 A 
ATOM      4  C   UNL     1      48.160   6.753  12.060  0.00  0.00    +0.000 A 
ATOM      5  C   UNL     1      47.491   6.147  13.136  0.00  0.00    +0.000 A 
ATOM      6  C   UNL     1      47.930   6.413  14.441  0.00  0.00    +0.000 A 
ENDROOT
BRANCH   1   7
ATOM      7  C   UNL     1      49.530   7.501  16.068  0.00  0.00    +0.000 C 
BRANCH   7  10
ATOM      8  O   UNL     1      49.029   5.394  17.910  0.00  0.00    +0.000 OA
ATOM      9  C   UNL     1      50.158   5.553  17.450  0.00  0.00    +0.000 C 
ATOM     10  N   UNL     1      50.458   6.491  16.501  0.00  0.00    +0.000 N 
ATOM     11  H   UNL     1      51.412   6.590  16.181  0.00  0.00    +0.000 HD
BRANCH   9  12
ATOM     12  C   UNL     1      51.282   4.707  17.856  0.00  0.00    +0.000 A 
ATOM     13  C   UNL     1      52.411   5.256  18.445  0.00  0.00    +0.000 A 
ATOM     14  S   UNL     1      53.576   4.086  18.883  0.00  0.00    +0.000 S 
ATOM     15  C   UNL     1      52.626   2.819  18.258  0.00  0.00    +0.000 A 
ATOM     16  N   UNL     1      53.047   1.527  18.315  0.00  0.00    +0.000 NA
ATOM     17  C   UNL     1      52.236   0.678  17.777  0.00  0.00    +0.000 A 
ATOM     18  N   UNL     1      51.046   1.001  17.179  0.00  0.00    +0.000 N 
ATOM     19  C   UNL     1      50.574   2.290  17.108  0.00  0.00    +0.000 A 
ATOM     20  O   UNL     1      49.488   2.536  16.593  0.00  0.00    +0.000 OA
ATOM     21  C   UNL     1      51.441   3.281  17.716  0.00  0.00    +0.000 A 
ATOM     22  H   UNL     1      50.456   0.288  16.776  0.00  0.00    +0.000 HD
ENDBRANCH   9  12
ENDBRANCH   7  10
ENDBRANCH   1   7
BRANCH   5  23
ATOM     23  C   UNL     1      46.341   5.195  12.881  0.00  0.00    +0.000 C 
BRANCH  23  24
ATOM     24  N   UNL     1      45.474   5.749  11.844  0.00  0.00    +0.000 NA
ATOM     25  H   UNL     1      46.064   5.993  11.046  0.00  0.00    +0.000 HD
BRANCH  24  26
ATOM     26  CA  UNL     1      44.417   4.834  11.365  0.00  0.00    +0.000 C 
BRANCH  26  27
ATOM     27  C   UNL     1      44.881   4.065  10.119  0.00  0.00    +0.000 A 
ATOM     28  C   UNL     1      44.724   2.682  10.002  0.00  0.00    +0.000 A 
ATOM     29  C   UNL     1      45.181   2.042   8.853  0.00  0.00    +0.000 A 
ATOM     30  C   UNL     1      45.790   2.785   7.851  0.00  0.00    +0.000 A 
ATOM     31  C   UNL     1      45.929   4.148   8.048  0.00  0.00    +0.000 A 
ATOM     32  N   UNL     1      45.504   4.795   9.155  0.00  0.00    +0.000 NA
ENDBRANCH  26  27
BRANCH  26  33
ATOM     33  C   UNL     1      43.075   5.536  11.028  0.00  0.00    +0.000 C 
BRANCH  33  34
ATOM     34  O   UNL     1      43.130   6.958  11.177  0.00  0.00    +0.000 OA
ATOM     35  H   UNL     1      43.951   7.165  11.669  0.00  0.00    +0.000 HD
ENDBRANCH  33  34
ENDBRANCH  26  33
ENDBRANCH  24  26
ENDBRANCH  23  24
ENDBRANCH   5  23
TORSDOF 9
ENDMDL
MODEL 7
REMARK VINA RESULT:    -7.487      3.305      7.866
REMARK INTER + INTRA:         -11.985
REMARK INTER:                 -10.382
REMARK INTRA:                  -1.602
REMARK UNBOUND:                -0.777
REMARK  Name = 
REMARK  9 active torsions:
REMARK  status: ('A' for Active; 'I' for Inactive)
REMARK    1  A    between atoms: C_2  and  C_22
REMARK    2  A    between atoms: N_3  and  C_4
REMARK    3  A    between atoms: C_4  and  C_5
REMARK    4  A    between atoms: C_9  and  C_10
REMARK    5  A    between atoms: C_10  and  N_11
REMARK    6  A    between atoms: N_11  and  CA_12
REMARK    7  A    between atoms: CA_12  and  C_13
REMARK    8  A    between atoms: CA_12  and  C_15
REMARK    9  A    between atoms: C_13  and  O_14
REMARK                            x       y       z     vdW  Elec       q    Type
REMARK                         _______ _______ _______ _____ _____    ______ ____
ROOT
ATOM      1  C   UNL     1      48.613   3.926  17.008  0.00  0.00    +0.000 A 
ATOM      2  C   UNL     1      49.596   2.970  17.296  0.00  0.00    +0.000 A 
ATOM      3  C   UNL     1      50.903   3.363  17.570  0.00  0.00    +0.000 A 
ATOM      4  C   UNL     1      51.241   4.715  17.552  0.00  0.00    +0.000 A 
ATOM      5  C   UNL     1      50.276   5.693  17.257  0.00  0.00    +0.000 A 
ATOM      6  C   UNL     1      48.957   5.287  17.009  0.00  0.00    +0.000 A 
ENDROOT
BRANCH   1   7
ATOM      7  C   UNL     1      47.202   3.489  16.724  0.00  0.00    +0.000 C 
BRANCH   7  10
ATOM      8  O   UNL     1      47.212   3.135  13.903  0.00  0.00    +0.000 OA
ATOM      9  C   UNL     1      46.698   4.138  14.395  0.00  0.00    +0.000 C 
ATOM     10  N   UNL     1      46.583   4.340  15.743  0.00  0.00    +0.000 N 
ATOM     11  H   UNL     1      46.174   5.198  16.086  0.00  0.00    +0.000 HD
BRANCH   9  12
ATOM     12  C   UNL     1      46.118   5.194  13.564  0.00  0.00    +0.000 A 
ATOM     13  C   UNL     1      46.786   6.393  13.365  0.00  0.00    +0.000 A 
ATOM     14  S   UNL     1      45.954   7.461  12.324  0.00  0.00    +0.000 S 
ATOM     15  C   UNL     1      44.658   6.371  12.144  0.00  0.00    +0.000 A 
ATOM     16  N   UNL     1      43.587   6.672  11.363  0.00  0.00    +0.000 NA
ATOM     17  C   UNL     1      42.668   5.764  11.344  0.00  0.00    +0.000 A 
ATOM     18  N   UNL     1      42.718   4.585  12.041  0.00  0.00    +0.000 N 
ATOM     19  C   UNL     1      43.784   4.233  12.834  0.00  0.00    +0.000 A 
ATOM     20  O   UNL     1      43.806   3.154  13.417  0.00  0.00    +0.000 OA
ATOM     21  C   UNL     1      44.853   5.213  12.873  0.00  0.00    +0.000 A 
ATOM     22  H   UNL     1      41.965   3.915  11.984  0.00  0.00    +0.000 HD
ENDBRANCH   9  12
ENDBRANCH   7  10
ENDBRANCH   1   7
BRANCH   5  23
ATOM     23  C   UNL     1      50.669   7.153  17.172  0.00  0.00    +0.000 C 
BRANCH  23  24
ATOM     24  N   UNL     1      50.800   7.538  15.769  0.00  0.00    +0.000 NA
ATOM     25  H   UNL     1      51.147   6.725  15.256  0.00  0.00    +0.000 HD
BRANCH  24  26
ATOM     26  CA  UNL     1      49.543   7.978  15.127  0.00  0.00    +0.000 C 
BRANCH  26  27
ATOM     27  C   UNL     1      49.817   8.574  13.738  0.00  0.00    +0.000 A 
ATOM     28  C   UNL     1      49.985   7.771  12.608  0.00  0.00    +0.000 A 
ATOM     29  C   UNL     1      50.247   8.372  11.380  0.00  0.00    +0.000 A 
ATOM     30  C   UNL     1      50.345   9.755  11.301  0.00  0.00    +0.000 A 
ATOM     31  C   UNL     1      50.188  10.483  12.468  0.00  0.00    +0.000 A 
ATOM     32  N   UNL     1      49.942   9.927  13.675  0.00  0.00    +0.000 NA
ENDBRANCH  26  27
BRANCH  26  33
ATOM     33  C   UNL     1      48.741   9.021  15.950  0.00  0.00    +0.000 C 
BRANCH  33  34
ATOM     34  O   UNL     1      47.400   9.197  15.483  0.00  0.00    +0.000 OA
ATOM     35  H   UNL     1      47.218   8.473  14.849  0.00  0.00    +0.000 HD
ENDBRANCH  33  34
ENDBRANCH  26  33
ENDBRANCH  24  26
ENDBRANCH  23  24
ENDBRANCH   5  23
TORSDOF 9
ENDMDL
MODEL 8
REMARK VINA RESULT:    -7.282      3.073      8.628
REMARK INTER + INTRA:         -11.677
REMARK INTER:                 -10.246
REMARK INTRA:                  -1.431
REMARK UNBOUND:                -0.777
REMARK  Name = 
REMARK  9 active torsions:
REMARK  status: ('A' for Active; 'I' for Inactive)
REMARK    1  A    between atoms: C_2  and  C_22
REMARK    2  A    between atoms: N_3  and  C_4
REMARK    3  A    between atoms: C_4  and  C_5
REMARK    4  A    between atoms: C_9  and  C_10
REMARK    5  A    between atoms: C_10  and  N_11
REMARK    6  A    between atoms: N_11  and  CA_12
REMARK    7  A    between atoms: CA_12  and  C_13
REMARK    8  A    between atoms: CA_12  and  C_15
REMARK    9  A    between atoms: C_13  and  O_14
REMARK                            x       y       z     vdW  Elec       q    Type
REMARK                         _______ _______ _______ _____ _____    ______ ____
ROOT
ATOM      1  C   UNL     1      47.848   7.965  12.887  0.00  0.00    +0.000 A 
ATOM      2  C   UNL     1      48.736   8.355  11.875  0.00  0.00    +0.000 A 
ATOM      3  C   UNL     1      50.108   8.373  12.109  0.00  0.00    +0.000 A 
ATOM      4  C   UNL     1      50.605   8.006  13.359  0.00  0.00    +0.000 A 
ATOM      5  C   UNL     1      49.736   7.621  14.393  0.00  0.00    +0.000 A 
ATOM      6  C   UNL     1      48.358   7.581  14.137  0.00  0.00    +0.000 A 
ENDROOT
BRANCH   1   7
ATOM      7  C   UNL     1      46.369   7.940  12.618  0.00  0.00    +0.000 C 
BRANCH   7  10
ATOM      8  O   UNL     1      43.948   7.312  11.267  0.00  0.00    +0.000 OA
ATOM      9  C   UNL     1      44.729   6.415  11.577  0.00  0.00    +0.000 C 
ATOM     10  N   UNL     1      45.947   6.645  12.155  0.00  0.00    +0.000 N 
ATOM     11  H   UNL     1      46.534   5.863  12.410  0.00  0.00    +0.000 HD
BRANCH   9  12
ATOM     12  C   UNL     1      44.433   5.007  11.307  0.00  0.00    +0.000 A 
ATOM     13  C   UNL     1      43.708   4.245  12.210  0.00  0.00    +0.000 A 
ATOM     14  S   UNL     1      43.435   2.646  11.675  0.00  0.00    +0.000 S 
ATOM     15  C   UNL     1      44.315   2.913  10.241  0.00  0.00    +0.000 A 
ATOM     16  N   UNL     1      44.471   1.929   9.316  0.00  0.00    +0.000 NA
ATOM     17  C   UNL     1      45.185   2.266   8.294  0.00  0.00    +0.000 A 
ATOM     18  N   UNL     1      45.766   3.495   8.115  0.00  0.00    +0.000 N 
ATOM     19  C   UNL     1      45.628   4.523   9.017  0.00  0.00    +0.000 A 
ATOM     20  O   UNL     1      46.136   5.619   8.806  0.00  0.00    +0.000 OA
ATOM     21  C   UNL     1      44.816   4.200  10.175  0.00  0.00    +0.000 A 
ATOM     22  H   UNL     1      46.314   3.696   7.292  0.00  0.00    +0.000 HD
ENDBRANCH   9  12
ENDBRANCH   7  10
ENDBRANCH   1   7
BRANCH   5  23
ATOM     23  C   UNL     1      50.282   7.293  15.767  0.00  0.00    +0.000 C 
BRANCH  23  24
ATOM     24  N   UNL     1      49.223   7.458  16.761  0.00  0.00    +0.000 NA
ATOM     25  H   UNL     1      48.331   7.282  16.295  0.00  0.00    +0.000 HD
BRANCH  24  26
ATOM     26  CA  UNL     1      49.316   6.548  17.922  0.00  0.00    +0.000 C 
BRANCH  26  27
ATOM     27  C   UNL     1      49.020   5.099  17.509  0.00  0.00    +0.000 A 
ATOM     28  C   UNL     1      49.931   4.065  17.732  0.00  0.00    +0.000 A 
ATOM     29  C   UNL     1      49.610   2.775  17.318  0.00  0.00    +0.000 A 
ATOM     30  C   UNL     1      48.397   2.541  16.685  0.00  0.00    +0.000 A 
ATOM     31  C   UNL     1      47.554   3.620  16.479  0.00  0.00    +0.000 A 
ATOM     32  N   UNL     1      47.843   4.884  16.862  0.00  0.00    +0.000 NA
ENDBRANCH  26  27
BRANCH  26  33
ATOM     33  C   UNL     1      48.370   6.918  19.096  0.00  0.00    +0.000 C 
BRANCH  33  34
ATOM     34  O   UNL     1      47.052   7.273  18.666  0.00  0.00    +0.000 OA
ATOM     35  H   UNL     1      46.765   8.034  19.212  0.00  0.00    +0.000 HD
ENDBRANCH  33  34
ENDBRANCH  26  33
ENDBRANCH  24  26
ENDBRANCH  23  24
ENDBRANCH   5  23
TORSDOF 9
ENDMDL
MODEL 9
REMARK VINA RESULT:    -7.076      2.813      4.668
REMARK INTER + INTRA:         -11.370
REMARK INTER:                 -10.076
REMARK INTRA:                  -1.294
REMARK UNBOUND:                -0.777
REMARK  Name = 
REMARK  9 active torsions:
REMARK  status: ('A' for Active; 'I' for Inactive)
REMARK    1  A    between atoms: C_2  and  C_22
REMARK    2  A    between atoms: N_3  and  C_4
REMARK    3  A    between atoms: C_4  and  C_5
REMARK    4  A    between atoms: C_9  and  C_10
REMARK    5  A    between atoms: C_10  and  N_11
REMARK    6  A    between atoms: N_11  and  CA_12
REMARK    7  A    between atoms: CA_12  and  C_13
REMARK    8  A    between atoms: CA_12  and  C_15
REMARK    9  A    between atoms: C_13  and  O_14
REMARK                            x       y       z     vdW  Elec       q    Type
REMARK                         _______ _______ _______ _____ _____    ______ ____
ROOT
ATOM      1  C   UNL     1      48.821   5.062  17.507  0.00  0.00    +0.000 A 
ATOM      2  C   UNL     1      48.234   3.935  18.098  0.00  0.00    +0.000 A 
ATOM      3  C   UNL     1      47.289   3.186  17.403  0.00  0.00    +0.000 A 
ATOM      4  C   UNL     1      46.917   3.560  16.112  0.00  0.00    +0.000 A 
ATOM      5  C   UNL     1      47.483   4.691  15.501  0.00  0.00    +0.000 A 
ATOM      6  C   UNL     1      48.454   5.423  16.201  0.00  0.00    +0.000 A 
ENDROOT
BRANCH   1   7
ATOM      7  C   UNL     1      49.848   5.858  18.265  0.00  0.00    +0.000 C 
BRANCH   7  10
ATOM      8  O   UNL     1      52.221   5.615  16.719  0.00  0.00    +0.000 OA
ATOM      9  C   UNL     1      52.077   4.937  17.734  0.00  0.00    +0.000 C 
ATOM     10  N   UNL     1      51.003   5.056  18.571  0.00  0.00    +0.000 N 
ATOM     11  H   UNL     1      50.928   4.451  19.378  0.00  0.00    +0.000 HD
BRANCH   9  12
ATOM     12  C   UNL     1      53.083   3.963  18.160  0.00  0.00    +0.000 A 
ATOM     13  C   UNL     1      54.324   4.375  18.621  0.00  0.00    +0.000 A 
ATOM     14  S   UNL     1      55.324   3.080  19.111  0.00  0.00    +0.000 S 
ATOM     15  C   UNL     1      54.146   1.929  18.679  0.00  0.00    +0.000 A 
ATOM     16  N   UNL     1      54.365   0.597  18.846  0.00  0.00    +0.000 NA
ATOM     17  C   UNL     1      53.395  -0.157  18.448  0.00  0.00    +0.000 A 
ATOM     18  N   UNL     1      52.228   0.296  17.890  0.00  0.00    +0.000 N 
ATOM     19  C   UNL     1      51.957   1.632  17.711  0.00  0.00    +0.000 A 
ATOM     20  O   UNL     1      50.887   2.000  17.238  0.00  0.00    +0.000 OA
ATOM     21  C   UNL     1      53.010   2.523  18.161  0.00  0.00    +0.000 A 
ATOM     22  H   UNL     1      51.507  -0.347  17.598  0.00  0.00    +0.000 HD
ENDBRANCH   9  12
ENDBRANCH   7  10
ENDBRANCH   1   7
BRANCH   5  23
ATOM     23  C   UNL     1      47.020   5.129  14.127  0.00  0.00    +0.000 C 
BRANCH  23  24
ATOM     24  N   UNL     1      46.359   4.010  13.460  0.00  0.00    +0.000 NA
ATOM     25  H   UNL     1      46.240   3.265  14.149  0.00  0.00    +0.000 HD
BRANCH  24  26
ATOM     26  CA  UNL     1      45.030   4.323  12.895  0.00  0.00    +0.000 C 
BRANCH  26  27
ATOM     27  C   UNL     1      45.006   4.074  11.379  0.00  0.00    +0.000 A 
ATOM     28  C   UNL     1      45.449   5.032  10.465  0.00  0.00    +0.000 A 
ATOM     29  C   UNL     1      45.386   4.752   9.103  0.00  0.00    +0.000 A 
ATOM     30  C   UNL     1      44.876   3.532   8.678  0.00  0.00    +0.000 A 
ATOM     31  C   UNL     1      44.436   2.642   9.642  0.00  0.00    +0.000 A 
ATOM     32  N   UNL     1      44.477   2.889  10.969  0.00  0.00    +0.000 NA
ENDBRANCH  26  27
BRANCH  26  33
ATOM     33  C   UNL     1      44.557   5.778  13.152  0.00  0.00    +0.000 C 
BRANCH  33  34
ATOM     34  O   UNL     1      43.134   5.902  13.237  0.00  0.00    +0.000 OA
ATOM     35  H   UNL     1      42.749   5.142  12.755  0.00  0.00    +0.000 HD
ENDBRANCH  33  34
ENDBRANCH  26  33
ENDBRANCH  24  26
ENDBRANCH  23  24
ENDBRANCH   5  23
TORSDOF 9
ENDMDL
