MODEL 1
REMARK VINA RESULT:    -9.216      0.000      0.000
REMARK INTER + INTRA:         -11.621
REMARK INTER:                 -12.448
REMARK INTRA:                   0.827
REMARK UNBOUND:                 0.827
REMARK  Name = 
REMARK  6 active torsions:
REMARK  status: ('A' for Active; 'I' for Inactive)
REMARK    1  A    between atoms: C_2  and  C_4
REMARK    2  A    between atoms: C_7  and  O_8
REMARK    3  A    between atoms: O_8  and  C_9
REMARK    4  A    between atoms: C_9  and  C_10
REMARK    5  A    between atoms: C_15  and  C_16
REMARK    6  A    between atoms: C_20  and  C_21
REMARK                            x       y       z     vdW  Elec       q    Type
REMARK                         _______ _______ _______ _____ _____    ______ ____
ROOT
ATOM      1  C   UNL     1      45.870   5.347  11.946  0.00  0.00    +0.000 A 
ATOM      2  C   UNL     1      46.329   6.303  11.042  0.00  0.00    +0.000 A 
ATOM      3  C   UNL     1      47.324   7.189  11.436  0.00  0.00    +0.000 A 
ATOM      4  C   UNL     1      47.877   7.071  12.704  0.00  0.00    +0.000 A 
ATOM      5  F   UNL     1      48.780   7.984  13.088  0.00  0.00    +0.000 F 
ATOM      6  C   UNL     1      47.458   6.048  13.548  0.00  0.00    +0.000 A 
ATOM      7  N   UNL     1      46.451   5.218  13.171  0.00  0.00    +0.000 NA
ENDROOT
BRANCH   6   8
ATOM      8  C   UNL     1      48.021   5.774  14.891  0.00  0.00    +0.000 A 
ATOM      9  C   UNL     1      49.092   6.501  15.431  0.00  0.00    +0.000 A 
ATOM     10  C   UNL     1      49.587   6.180  16.690  0.00  0.00    +0.000 A 
ATOM     11  N   UNL     1      49.102   5.185  17.455  0.00  0.00    +0.000 NA
ATOM     12  C   UNL     1      48.071   4.472  16.925  0.00  0.00    +0.000 A 
ATOM     13  C   UNL     1      47.511   4.728  15.680  0.00  0.00    +0.000 A 
BRANCH  12  14
ATOM     14  C   UNL     1      47.539   3.352  17.763  0.00  0.00    +0.000 C 
ATOM     15  N   UNL     1      48.276   3.051  18.878  0.00  0.00    +0.000 N 
ATOM     16  O   UNL     1      46.518   2.734  17.486  0.00  0.00    +0.000 OA
ATOM     17  H   UNL     1      49.119   3.579  19.071  0.00  0.00    +0.000 HD
ATOM     18  H   UNL     1      47.989   2.293  19.478  0.00  0.00    +0.000 HD
ENDBRANCH  12  14
ENDBRANCH   6   8
BRANCH   1  19
ATOM     19  C   UNL     1      44.605   4.549  11.652  0.00  0.00    +0.000 C 
ATOM     20  C   UNL     1      44.446   3.210  12.368  0.00  0.00    +0.000 C 
ATOM     21  C   UNL     1      43.602   4.369  12.784  0.00  0.00    +0.000 C 
BRANCH  19  22
ATOM     22  O   UNL     1      43.970   4.721  10.347  0.00  0.00    +0.000 OA
BRANCH  22  26
ATOM     23  C   UNL     1      46.096   2.282   7.965  0.00  0.00    +0.000 A 
ATOM     24  C   UNL     1      46.100   3.651   7.744  0.00  0.00    +0.000 A 
ATOM     25  N   UNL     1      45.301   4.493   8.438  0.00  0.00    +0.000 NA
ATOM     26  C   UNL     1      44.541   3.909   9.387  0.00  0.00    +0.000 A 
ATOM     27  C   UNL     1      44.465   2.532   9.552  0.00  0.00    +0.000 A 
ATOM     28  N   UNL     1      45.240   1.671   8.843  0.00  0.00    +0.000 NA
BRANCH  23  30
ATOM     29  N   UNL     1      48.226   2.125   6.827  0.00  0.00    +0.000 N 
ATOM     30  C   UNL     1      47.156   1.445   7.341  0.00  0.00    +0.000 C 
ATOM     31  O   UNL     1      47.064   0.229   7.251  0.00  0.00    +0.000 OA
ATOM     32  H   UNL     1      48.913   1.616   6.290  0.00  0.00    +0.000 HD
ATOM     33  H   UNL     1      48.250   3.138   6.864  0.00  0.00    +0.000 HD
ENDBRANCH  23  30
ENDBRANCH  22  26
ENDBRANCH  19  22
ENDBRANCH   1  19
TORSDOF 6
ENDMDL
MODEL 2
REMARK VINA RESULT:    -8.984      2.939      4.082
REMARK INTER + INTRA:         -11.308
REMARK INTER:                 -11.068
REMARK INTRA:                  -0.240
REMARK UNBOUND:                 0.827
REMARK  Name = 
REMARK  6 active torsions:
REMARK  status: ('A' for Active; 'I' for Inactive)
REMARK    1  A    between atoms: C_2  and  C_4
REMARK    2  A    between atoms: C_7  and  O_8
REMARK    3  A    between atoms: O_8  and  C_9
REMARK    4  A    between atoms: C_9  and  C_10
REMARK    5  A    between atoms: C_15  and  C_16
REMARK    6  A    between atoms: C_20  and  C_21
REMARK                            x       y       z     vdW  Elec       q    Type
REMARK                         _______ _______ _______ _____ _____    ______ ____
ROOT
ATOM      1  C   UNL     1      44.694   5.487  11.374  0.00  0.00    +0.000 A 
ATOM      2  C   UNL     1      43.772   6.500  11.119  0.00  0.00    +0.000 A 
ATOM      3  C   UNL     1      44.099   7.812  11.435  0.00  0.00    +0.000 A 
ATOM      4  C   UNL     1      45.358   8.095  11.948  0.00  0.00    +0.000 A 
ATOM      5  F   UNL     1      45.623   9.358  12.315  0.00  0.00    +0.000 F 
ATOM      6  C   UNL     1      46.286   7.071  12.104  0.00  0.00    +0.000 A 
ATOM      7  N   UNL     1      45.939   5.785  11.839  0.00  0.00    +0.000 NA
ENDROOT
BRANCH   6   8
ATOM      8  C   UNL     1      47.680   7.256  12.572  0.00  0.00    +0.000 A 
ATOM      9  C   UNL     1      48.062   7.099  13.913  0.00  0.00    +0.000 A 
ATOM     10  C   UNL     1      49.383   7.308  14.290  0.00  0.00    +0.000 A 
ATOM     11  N   UNL     1      50.359   7.668  13.436  0.00  0.00    +0.000 NA
ATOM     12  C   UNL     1      49.986   7.833  12.138  0.00  0.00    +0.000 A 
ATOM     13  C   UNL     1      48.691   7.640  11.673  0.00  0.00    +0.000 A 
BRANCH  12  14
ATOM     14  C   UNL     1      51.062   8.252  11.186  0.00  0.00    +0.000 C 
ATOM     15  N   UNL     1      51.879   7.245  10.744  0.00  0.00    +0.000 N 
ATOM     16  O   UNL     1      51.219   9.410  10.818  0.00  0.00    +0.000 OA
ATOM     17  H   UNL     1      51.724   6.300  11.075  0.00  0.00    +0.000 HD
ATOM     18  H   UNL     1      52.640   7.456  10.117  0.00  0.00    +0.000 HD
ENDBRANCH  12  14
ENDBRANCH   6   8
BRANCH   1  19
ATOM     19  C   UNL     1      44.275   4.023  11.303  0.00  0.00    +0.000 C 
ATOM     20  C   UNL     1      44.848   3.083  12.361  0.00  0.00    +0.000 C 
ATOM     21  C   UNL     1      43.411   3.478  12.433  0.00  0.00    +0.000 C 
BRANCH  19  22
ATOM     22  O   UNL     1      43.923   3.470   9.997  0.00  0.00    +0.000 OA
BRANCH  22  26
ATOM     23  C   UNL     1      46.780   2.727   7.272  0.00  0.00    +0.000 A 
ATOM     24  C   UNL     1      46.312   1.708   8.088  0.00  0.00    +0.000 A 
ATOM     25  N   UNL     1      45.447   1.939   9.101  0.00  0.00    +0.000 NA
ATOM     26  C   UNL     1      45.041   3.219   9.227  0.00  0.00    +0.000 A 
ATOM     27  C   UNL     1      45.574   4.258   8.474  0.00  0.00    +0.000 A 
ATOM     28  N   UNL     1      46.465   4.045   7.471  0.00  0.00    +0.000 NA
BRANCH  23  30
ATOM     29  N   UNL     1      47.306   3.173   4.952  0.00  0.00    +0.000 N 
ATOM     30  C   UNL     1      47.538   2.377   6.041  0.00  0.00    +0.000 C 
ATOM     31  O   UNL     1      48.292   1.416   5.984  0.00  0.00    +0.000 OA
ATOM     32  H   UNL     1      47.703   2.908   4.062  0.00  0.00    +0.000 HD
ATOM     33  H   UNL     1      46.632   3.929   5.010  0.00  0.00    +0.000 HD
ENDBRANCH  23  30
ENDBRANCH  22  26
ENDBRANCH  19  22
ENDBRANCH   1  19
TORSDOF 6
ENDMDL
MODEL 3
REMARK VINA RESULT:    -8.973      2.226      3.036
REMARK INTER + INTRA:         -11.294
REMARK INTER:                 -11.005
REMARK INTRA:                  -0.289
REMARK UNBOUND:                 0.827
REMARK  Name = 
REMARK  6 active torsions:
REMARK  status: ('A' for Active; 'I' for Inactive)
REMARK    1  A    between atoms: C_2  and  C_4
REMARK    2  A    between atoms: C_7  and  O_8
REMARK    3  A    between atoms: O_8  and  C_9
REMARK    4  A    between atoms: C_9  and  C_10
REMARK    5  A    between atoms: C_15  and  C_16
REMARK    6  A    between atoms: C_20  and  C_21
REMARK                            x       y       z     vdW  Elec       q    Type
REMARK                         _______ _______ _______ _____ _____    ______ ____
ROOT
ATOM      1  C   UNL     1      44.528   5.249  11.308  0.00  0.00    +0.000 A 
ATOM      2  C   UNL     1      43.568   6.218  11.022  0.00  0.00    +0.000 A 
ATOM      3  C   UNL     1      43.840   7.550  11.310  0.00  0.00    +0.000 A 
ATOM      4  C   UNL     1      45.082   7.894  11.828  0.00  0.00    +0.000 A 
ATOM      5  F   UNL     1      45.293   9.174  12.168  0.00  0.00    +0.000 F 
ATOM      6  C   UNL     1      46.049   6.912  12.014  0.00  0.00    +0.000 A 
ATOM      7  N   UNL     1      45.756   5.607  11.776  0.00  0.00    +0.000 NA
ENDROOT
BRANCH   6   8
ATOM      8  C   UNL     1      47.429   7.164  12.490  0.00  0.00    +0.000 A 
ATOM      9  C   UNL     1      48.454   7.625  11.649  0.00  0.00    +0.000 A 
ATOM     10  C   UNL     1      49.734   7.820  12.153  0.00  0.00    +0.000 A 
ATOM     11  N   UNL     1      50.080   7.587  13.433  0.00  0.00    +0.000 NA
ATOM     12  C   UNL     1      49.089   7.128  14.245  0.00  0.00    +0.000 A 
ATOM     13  C   UNL     1      47.783   6.910  13.827  0.00  0.00    +0.000 A 
BRANCH  12  14
ATOM     14  C   UNL     1      49.471   6.848  15.665  0.00  0.00    +0.000 C 
ATOM     15  N   UNL     1      48.530   6.183  16.406  0.00  0.00    +0.000 N 
ATOM     16  O   UNL     1      50.545   7.185  16.150  0.00  0.00    +0.000 OA
ATOM     17  H   UNL     1      47.650   5.927  15.974  0.00  0.00    +0.000 HD
ATOM     18  H   UNL     1      48.709   5.981  17.378  0.00  0.00    +0.000 HD
ENDBRANCH  12  14
ENDBRANCH   6   8
BRANCH   1  19
ATOM     19  C   UNL     1      44.168   3.769  11.266  0.00  0.00    +0.000 C 
ATOM     20  C   UNL     1      44.761   2.878  12.355  0.00  0.00    +0.000 C 
ATOM     21  C   UNL     1      43.308   3.216  12.396  0.00  0.00    +0.000 C 
BRANCH  19  22
ATOM     22  O   UNL     1      43.860   3.170   9.969  0.00  0.00    +0.000 OA
BRANCH  22  26
ATOM     23  C   UNL     1      46.751   2.679   7.222  0.00  0.00    +0.000 A 
ATOM     24  C   UNL     1      46.404   1.633   8.065  0.00  0.00    +0.000 A 
ATOM     25  N   UNL     1      45.531   1.793   9.084  0.00  0.00    +0.000 NA
ATOM     26  C   UNL     1      44.991   3.024   9.189  0.00  0.00    +0.000 A 
ATOM     27  C   UNL     1      45.400   4.097   8.407  0.00  0.00    +0.000 A 
ATOM     28  N   UNL     1      46.298   3.960   7.397  0.00  0.00    +0.000 NA
BRANCH  23  30
ATOM     29  N   UNL     1      47.295   3.216   4.926  0.00  0.00    +0.000 N 
ATOM     30  C   UNL     1      47.528   2.386   5.987  0.00  0.00    +0.000 C 
ATOM     31  O   UNL     1      48.299   1.439   5.906  0.00  0.00    +0.000 OA
ATOM     32  H   UNL     1      47.706   2.989   4.031  0.00  0.00    +0.000 HD
ATOM     33  H   UNL     1      46.608   3.958   5.002  0.00  0.00    +0.000 HD
ENDBRANCH  23  30
ENDBRANCH  22  26
ENDBRANCH  19  22
ENDBRANCH   1  19
TORSDOF 6
ENDMDL
MODEL 4
REMARK VINA RESULT:    -8.909      1.298      1.649
REMARK INTER + INTRA:         -11.206
REMARK INTER:                 -11.886
REMARK INTRA:                   0.680
REMARK UNBOUND:                 0.827
REMARK  Name = 
REMARK  6 active torsions:
REMARK  status: ('A' for Active; 'I' for Inactive)
REMARK    1  A    between atoms: C_2  and  C_4
REMARK    2  A    between atoms: C_7  and  O_8
REMARK    3  A    between atoms: O_8  and  C_9
REMARK    4  A    between atoms: C_9  and  C_10
REMARK    5  A    between atoms: C_15  and  C_16
REMARK    6  A    between atoms: C_20  and  C_21
REMARK                            x       y       z     vdW  Elec       q    Type
REMARK                         _______ _______ _______ _____ _____    ______ ____
ROOT
ATOM      1  C   UNL     1      45.599   4.978  12.104  0.00  0.00    +0.000 A 
ATOM      2  C   UNL     1      46.274   5.995  11.432  0.00  0.00    +0.000 A 
ATOM      3  C   UNL     1      47.339   6.632  12.056  0.00  0.00    +0.000 A 
ATOM      4  C   UNL     1      47.743   6.207  13.315  0.00  0.00    +0.000 A 
ATOM      5  F   UNL     1      48.724   6.886  13.928  0.00  0.00    +0.000 F 
ATOM      6  C   UNL     1      47.105   5.128  13.918  0.00  0.00    +0.000 A 
ATOM      7  N   UNL     1      46.034   4.545  13.320  0.00  0.00    +0.000 NA
ENDROOT
BRANCH   6   8
ATOM      8  C   UNL     1      47.490   4.537  15.221  0.00  0.00    +0.000 A 
ATOM      9  C   UNL     1      47.724   3.164  15.397  0.00  0.00    +0.000 A 
ATOM     10  C   UNL     1      48.061   2.671  16.652  0.00  0.00    +0.000 A 
ATOM     11  N   UNL     1      48.179   3.437  17.752  0.00  0.00    +0.000 NA
ATOM     12  C   UNL     1      47.939   4.765  17.584  0.00  0.00    +0.000 A 
ATOM     13  C   UNL     1      47.604   5.344  16.367  0.00  0.00    +0.000 A 
BRANCH  12  14
ATOM     14  C   UNL     1      48.050   5.620  18.807  0.00  0.00    +0.000 C 
ATOM     15  N   UNL     1      46.965   5.592  19.643  0.00  0.00    +0.000 N 
ATOM     16  O   UNL     1      49.034   6.306  19.059  0.00  0.00    +0.000 OA
ATOM     17  H   UNL     1      46.167   5.019  19.399  0.00  0.00    +0.000 HD
ATOM     18  H   UNL     1      46.961   6.161  20.476  0.00  0.00    +0.000 HD
ENDBRANCH  12  14
ENDBRANCH   6   8
BRANCH   1  19
ATOM     19  C   UNL     1      44.271   4.451  11.576  0.00  0.00    +0.000 C 
ATOM     20  C   UNL     1      43.750   3.148  12.178  0.00  0.00    +0.000 C 
ATOM     21  C   UNL     1      43.084   4.436  12.531  0.00  0.00    +0.000 C 
BRANCH  19  22
ATOM     22  O   UNL     1      43.895   4.782  10.203  0.00  0.00    +0.000 OA
BRANCH  22  26
ATOM     23  C   UNL     1      46.090   2.267   7.967  0.00  0.00    +0.000 A 
ATOM     24  C   UNL     1      46.088   3.626   7.691  0.00  0.00    +0.000 A 
ATOM     25  N   UNL     1      45.268   4.488   8.333  0.00  0.00    +0.000 NA
ATOM     26  C   UNL     1      44.492   3.937   9.289  0.00  0.00    +0.000 A 
ATOM     27  C   UNL     1      44.423   2.567   9.508  0.00  0.00    +0.000 A 
ATOM     28  N   UNL     1      45.220   1.685   8.851  0.00  0.00    +0.000 NA
BRANCH  23  30
ATOM     29  N   UNL     1      48.222   2.083   6.838  0.00  0.00    +0.000 N 
ATOM     30  C   UNL     1      47.169   1.415   7.400  0.00  0.00    +0.000 C 
ATOM     31  O   UNL     1      47.106   0.193   7.395  0.00  0.00    +0.000 OA
ATOM     32  H   UNL     1      48.921   1.554   6.336  0.00  0.00    +0.000 HD
ATOM     33  H   UNL     1      48.221   3.096   6.805  0.00  0.00    +0.000 HD
ENDBRANCH  23  30
ENDBRANCH  22  26
ENDBRANCH  19  22
ENDBRANCH   1  19
TORSDOF 6
ENDMDL
MODEL 5
REMARK VINA RESULT:    -8.728      2.299      7.743
REMARK INTER + INTRA:         -10.962
REMARK INTER:                 -10.632
REMARK INTRA:                  -0.330
REMARK UNBOUND:                 0.827
REMARK  Name = 
REMARK  6 active torsions:
REMARK  status: ('A' for Active; 'I' for Inactive)
REMARK    1  A    between atoms: C_2  and  C_4
REMARK    2  A    between atoms: C_7  and  O_8
REMARK    3  A    between atoms: O_8  and  C_9
REMARK    4  A    between atoms: C_9  and  C_10
REMARK    5  A    between atoms: C_15  and  C_16
REMARK    6  A    between atoms: C_20  and  C_21
REMARK                            x       y       z     vdW  Elec       q    Type
REMARK                         _______ _______ _______ _____ _____    ______ ____
ROOT
ATOM      1  C   UNL     1      47.171   7.834  12.470  0.00  0.00    +0.000 A 
ATOM      2  C   UNL     1      46.332   8.918  12.718  0.00  0.00    +0.000 A 
ATOM      3  C   UNL     1      45.039   8.908  12.210  0.00  0.00    +0.000 A 
ATOM      4  C   UNL     1      44.592   7.795  11.510  0.00  0.00    +0.000 A 
ATOM      5  F   UNL     1      43.368   7.839  10.965  0.00  0.00    +0.000 F 
ATOM      6  C   UNL     1      45.427   6.692  11.360  0.00  0.00    +0.000 A 
ATOM      7  N   UNL     1      46.705   6.733  11.819  0.00  0.00    +0.000 NA
ENDROOT
BRANCH   6   8
ATOM      8  C   UNL     1      45.042   5.423  10.700  0.00  0.00    +0.000 A 
ATOM      9  C   UNL     1      44.048   4.571  11.205  0.00  0.00    +0.000 A 
ATOM     10  C   UNL     1      43.749   3.382  10.548  0.00  0.00    +0.000 A 
ATOM     11  N   UNL     1      44.368   2.970   9.426  0.00  0.00    +0.000 NA
ATOM     12  C   UNL     1      45.340   3.791   8.944  0.00  0.00    +0.000 A 
ATOM     13  C   UNL     1      45.698   4.997   9.531  0.00  0.00    +0.000 A 
BRANCH  12  14
ATOM     14  C   UNL     1      46.044   3.329   7.706  0.00  0.00    +0.000 C 
ATOM     15  N   UNL     1      46.411   2.009   7.698  0.00  0.00    +0.000 N 
ATOM     16  O   UNL     1      46.287   4.066   6.758  0.00  0.00    +0.000 OA
ATOM     17  H   UNL     1      46.200   1.431   8.502  0.00  0.00    +0.000 HD
ATOM     18  H   UNL     1      46.909   1.633   6.905  0.00  0.00    +0.000 HD
ENDBRANCH  12  14
ENDBRANCH   6   8
BRANCH   1  19
ATOM     19  C   UNL     1      48.663   7.927  12.768  0.00  0.00    +0.000 C 
ATOM     20  C   UNL     1      49.495   8.843  11.875  0.00  0.00    +0.000 C 
ATOM     21  C   UNL     1      49.202   9.257  13.278  0.00  0.00    +0.000 C 
BRANCH  19  22
ATOM     22  O   UNL     1      49.315   6.772  13.382  0.00  0.00    +0.000 OA
BRANCH  22  26
ATOM     23  C   UNL     1      47.617   4.864  16.483  0.00  0.00    +0.000 A 
ATOM     24  C   UNL     1      47.275   4.525  15.183  0.00  0.00    +0.000 A 
ATOM     25  N   UNL     1      47.723   5.224  14.117  0.00  0.00    +0.000 NA
ATOM     26  C   UNL     1      48.560   6.241  14.409  0.00  0.00    +0.000 A 
ATOM     27  C   UNL     1      48.835   6.642  15.710  0.00  0.00    +0.000 A 
ATOM     28  N   UNL     1      48.368   5.967  16.792  0.00  0.00    +0.000 NA
BRANCH  23  30
ATOM     29  N   UNL     1      47.704   4.300  18.835  0.00  0.00    +0.000 N 
ATOM     30  C   UNL     1      47.285   3.924  17.588  0.00  0.00    +0.000 C 
ATOM     31  O   UNL     1      46.712   2.861  17.395  0.00  0.00    +0.000 OA
ATOM     32  H   UNL     1      47.609   3.643  19.597  0.00  0.00    +0.000 HD
ATOM     33  H   UNL     1      48.228   5.159  18.957  0.00  0.00    +0.000 HD
ENDBRANCH  23  30
ENDBRANCH  22  26
ENDBRANCH  19  22
ENDBRANCH   1  19
TORSDOF 6
ENDMDL
MODEL 6
REMARK VINA RESULT:    -8.200      3.320      7.422
REMARK INTER + INTRA:         -10.249
REMARK INTER:                  -8.987
REMARK INTRA:                  -1.262
REMARK UNBOUND:                 0.827
REMARK  Name = 
REMARK  6 active torsions:
REMARK  status: ('A' for Active; 'I' for Inactive)
REMARK    1  A    between atoms: C_2  and  C_4
REMARK    2  A    between atoms: C_7  and  O_8
REMARK    3  A    between atoms: O_8  and  C_9
REMARK    4  A    between atoms: C_9  and  C_10
REMARK    5  A    between atoms: C_15  and  C_16
REMARK    6  A    between atoms: C_20  and  C_21
REMARK                            x       y       z     vdW  Elec       q    Type
REMARK                         _______ _______ _______ _____ _____    ______ ____
ROOT
ATOM      1  C   UNL     1      49.286   8.747  15.210  0.00  0.00    +0.000 A 
ATOM      2  C   UNL     1      50.486   8.831  14.508  0.00  0.00    +0.000 A 
ATOM      3  C   UNL     1      50.571   8.272  13.239  0.00  0.00    +0.000 A 
ATOM      4  C   UNL     1      49.444   7.687  12.675  0.00  0.00    +0.000 A 
ATOM      5  F   UNL     1      49.571   7.088  11.482  0.00  0.00    +0.000 F 
ATOM      6  C   UNL     1      48.239   7.702  13.369  0.00  0.00    +0.000 A 
ATOM      7  N   UNL     1      48.179   8.208  14.628  0.00  0.00    +0.000 NA
ENDROOT
BRANCH   6   8
ATOM      8  C   UNL     1      46.955   7.177  12.847  0.00  0.00    +0.000 A 
ATOM      9  C   UNL     1      46.067   7.952  12.085  0.00  0.00    +0.000 A 
ATOM     10  C   UNL     1      44.868   7.405  11.643  0.00  0.00    +0.000 A 
ATOM     11  N   UNL     1      44.478   6.144  11.904  0.00  0.00    +0.000 NA
ATOM     12  C   UNL     1      45.333   5.397  12.654  0.00  0.00    +0.000 A 
ATOM     13  C   UNL     1      46.552   5.860  13.131  0.00  0.00    +0.000 A 
BRANCH  12  14
ATOM     14  C   UNL     1      44.897   4.000  12.964  0.00  0.00    +0.000 C 
ATOM     15  N   UNL     1      45.879   3.048  12.888  0.00  0.00    +0.000 N 
ATOM     16  O   UNL     1      43.745   3.708  13.264  0.00  0.00    +0.000 OA
ATOM     17  H   UNL     1      46.818   3.325  12.630  0.00  0.00    +0.000 HD
ATOM     18  H   UNL     1      45.653   2.080  13.063  0.00  0.00    +0.000 HD
ENDBRANCH  12  14
ENDBRANCH   6   8
BRANCH   1  19
ATOM     19  C   UNL     1      49.231   9.096  16.693  0.00  0.00    +0.000 C 
ATOM     20  C   UNL     1      48.993  10.560  17.054  0.00  0.00    +0.000 C 
ATOM     21  C   UNL     1      47.899   9.567  17.262  0.00  0.00    +0.000 C 
BRANCH  19  22
ATOM     22  O   UNL     1      49.988   8.263  17.625  0.00  0.00    +0.000 OA
BRANCH  22  26
ATOM     23  C   UNL     1      48.399   4.607  17.124  0.00  0.00    +0.000 A 
ATOM     24  C   UNL     1      47.763   5.540  17.930  0.00  0.00    +0.000 A 
ATOM     25  N   UNL     1      48.325   6.732  18.228  0.00  0.00    +0.000 NA
ATOM     26  C   UNL     1      49.521   6.964  17.648  0.00  0.00    +0.000 A 
ATOM     27  C   UNL     1      50.204   6.001  16.916  0.00  0.00    +0.000 A 
ATOM     28  N   UNL     1      49.665   4.787  16.631  0.00  0.00    +0.000 NA
BRANCH  23  30
ATOM     29  N   UNL     1      46.972   2.714  17.610  0.00  0.00    +0.000 N 
ATOM     30  C   UNL     1      47.635   3.423  16.646  0.00  0.00    +0.000 C 
ATOM     31  O   UNL     1      47.630   3.075  15.474  0.00  0.00    +0.000 OA
ATOM     32  H   UNL     1      46.538   1.838  17.356  0.00  0.00    +0.000 HD
ATOM     33  H   UNL     1      47.041   2.992  18.582  0.00  0.00    +0.000 HD
ENDBRANCH  23  30
ENDBRANCH  22  26
ENDBRANCH  19  22
ENDBRANCH   1  19
TORSDOF 6
ENDMDL
MODEL 7
REMARK VINA RESULT:    -8.164      3.072      4.820
REMARK INTER + INTRA:         -10.201
REMARK INTER:                  -9.629
REMARK INTRA:                  -0.572
REMARK UNBOUND:                 0.827
REMARK  Name = 
REMARK  6 active torsions:
REMARK  status: ('A' for Active; 'I' for Inactive)
REMARK    1  A    between atoms: C_2  and  C_4
REMARK    2  A    between atoms: C_7  and  O_8
REMARK    3  A    between atoms: O_8  and  C_9
REMARK    4  A    between atoms: C_9  and  C_10
REMARK    5  A    between atoms: C_15  and  C_16
REMARK    6  A    between atoms: C_20  and  C_21
REMARK                            x       y       z     vdW  Elec       q    Type
REMARK                         _______ _______ _______ _____ _____    ______ ____
ROOT
ATOM      1  C   UNL     1      48.598   7.881  14.981  0.00  0.00    +0.000 A 
ATOM      2  C   UNL     1      48.130   8.944  15.751  0.00  0.00    +0.000 A 
ATOM      3  C   UNL     1      48.307   8.915  17.129  0.00  0.00    +0.000 A 
ATOM      4  C   UNL     1      48.992   7.854  17.705  0.00  0.00    +0.000 A 
ATOM      5  F   UNL     1      49.084   7.811  19.042  0.00  0.00    +0.000 F 
ATOM      6  C   UNL     1      49.526   6.856  16.897  0.00  0.00    +0.000 A 
ATOM      7  N   UNL     1      49.305   6.868  15.556  0.00  0.00    +0.000 NA
ENDROOT
BRANCH   6   8
ATOM      8  C   UNL     1      50.336   5.715  17.384  0.00  0.00    +0.000 A 
ATOM      9  C   UNL     1      51.468   5.875  18.197  0.00  0.00    +0.000 A 
ATOM     10  C   UNL     1      52.197   4.763  18.603  0.00  0.00    +0.000 A 
ATOM     11  N   UNL     1      51.891   3.499  18.257  0.00  0.00    +0.000 NA
ATOM     12  C   UNL     1      50.801   3.345  17.458  0.00  0.00    +0.000 A 
ATOM     13  C   UNL     1      50.012   4.398  17.011  0.00  0.00    +0.000 A 
BRANCH  12  14
ATOM     14  C   UNL     1      50.466   1.943  17.054  0.00  0.00    +0.000 C 
ATOM     15  N   UNL     1      51.112   0.960  17.757  0.00  0.00    +0.000 N 
ATOM     16  O   UNL     1      49.675   1.674  16.159  0.00  0.00    +0.000 OA
ATOM     17  H   UNL     1      51.765   1.220  18.486  0.00  0.00    +0.000 HD
ATOM     18  H   UNL     1      50.952  -0.008  17.525  0.00  0.00    +0.000 HD
ENDBRANCH  12  14
ENDBRANCH   6   8
BRANCH   1  19
ATOM     19  C   UNL     1      48.185   7.742  13.521  0.00  0.00    +0.000 C 
ATOM     20  C   UNL     1      49.141   8.304  12.472  0.00  0.00    +0.000 C 
ATOM     21  C   UNL     1      49.017   6.825  12.633  0.00  0.00    +0.000 C 
BRANCH  19  22
ATOM     22  O   UNL     1      46.758   7.698  13.210  0.00  0.00    +0.000 OA
BRANCH  22  26
ATOM     23  C   UNL     1      45.068   4.314  11.857  0.00  0.00    +0.000 A 
ATOM     24  C   UNL     1      45.621   4.357  13.128  0.00  0.00    +0.000 A 
ATOM     25  N   UNL     1      46.311   5.431  13.574  0.00  0.00    +0.000 NA
ATOM     26  C   UNL     1      46.378   6.467  12.712  0.00  0.00    +0.000 A 
ATOM     27  C   UNL     1      45.905   6.396  11.408  0.00  0.00    +0.000 A 
ATOM     28  N   UNL     1      45.235   5.313  10.936  0.00  0.00    +0.000 NA
BRANCH  23  30
ATOM     29  N   UNL     1      43.743   2.412  12.556  0.00  0.00    +0.000 N 
ATOM     30  C   UNL     1      44.129   3.211  11.514  0.00  0.00    +0.000 C 
ATOM     31  O   UNL     1      43.755   2.999  10.369  0.00  0.00    +0.000 OA
ATOM     32  H   UNL     1      43.204   1.581  12.357  0.00  0.00    +0.000 HD
ATOM     33  H   UNL     1      44.114   2.575  13.485  0.00  0.00    +0.000 HD
ENDBRANCH  23  30
ENDBRANCH  22  26
ENDBRANCH  19  22
ENDBRANCH   1  19
TORSDOF 6
ENDMDL
MODEL 8
REMARK VINA RESULT:    -7.919      2.958      7.355
REMARK INTER + INTRA:          -9.869
REMARK INTER:                  -9.395
REMARK INTRA:                  -0.474
REMARK UNBOUND:                 0.827
REMARK  Name = 
REMARK  6 active torsions:
REMARK  status: ('A' for Active; 'I' for Inactive)
REMARK    1  A    between atoms: C_2  and  C_4
REMARK    2  A    between atoms: C_7  and  O_8
REMARK    3  A    between atoms: O_8  and  C_9
REMARK    4  A    between atoms: C_9  and  C_10
REMARK    5  A    between atoms: C_15  and  C_16
REMARK    6  A    between atoms: C_20  and  C_21
REMARK                            x       y       z     vdW  Elec       q    Type
REMARK                         _______ _______ _______ _____ _____    ______ ____
ROOT
ATOM      1  C   UNL     1      47.708   9.127  12.457  0.00  0.00    +0.000 A 
ATOM      2  C   UNL     1      46.678  10.005  12.123  0.00  0.00    +0.000 A 
ATOM      3  C   UNL     1      45.417   9.497  11.840  0.00  0.00    +0.000 A 
ATOM      4  C   UNL     1      45.193   8.131  11.946  0.00  0.00    +0.000 A 
ATOM      5  F   UNL     1      43.989   7.657  11.595  0.00  0.00    +0.000 F 
ATOM      6  C   UNL     1      46.220   7.294  12.371  0.00  0.00    +0.000 A 
ATOM      7  N   UNL     1      47.463   7.794  12.597  0.00  0.00    +0.000 NA
ENDROOT
BRANCH   6   8
ATOM      8  C   UNL     1      46.086   5.835  12.592  0.00  0.00    +0.000 A 
ATOM      9  C   UNL     1      46.833   5.138  13.554  0.00  0.00    +0.000 A 
ATOM     10  C   UNL     1      46.675   3.764  13.696  0.00  0.00    +0.000 A 
ATOM     11  N   UNL     1      45.834   3.024  12.951  0.00  0.00    +0.000 NA
ATOM     12  C   UNL     1      45.119   3.699  12.010  0.00  0.00    +0.000 A 
ATOM     13  C   UNL     1      45.209   5.069  11.803  0.00  0.00    +0.000 A 
BRANCH  12  14
ATOM     14  C   UNL     1      44.195   2.879  11.164  0.00  0.00    +0.000 C 
ATOM     15  N   UNL     1      44.740   2.383  10.010  0.00  0.00    +0.000 N 
ATOM     16  O   UNL     1      43.028   2.659  11.466  0.00  0.00    +0.000 OA
ATOM     17  H   UNL     1      45.707   2.591   9.789  0.00  0.00    +0.000 HD
ATOM     18  H   UNL     1      44.170   1.840   9.380  0.00  0.00    +0.000 HD
ENDBRANCH  12  14
ENDBRANCH   6   8
BRANCH   1  19
ATOM     19  C   UNL     1      49.152   9.610  12.502  0.00  0.00    +0.000 C 
ATOM     20  C   UNL     1      50.114   9.024  11.471  0.00  0.00    +0.000 C 
ATOM     21  C   UNL     1      49.659  10.438  11.328  0.00  0.00    +0.000 C 
BRANCH  19  22
ATOM     22  O   UNL     1      49.692  10.049  13.787  0.00  0.00    +0.000 OA
BRANCH  22  26
ATOM     23  C   UNL     1      49.164   6.836  16.140  0.00  0.00    +0.000 A 
ATOM     24  C   UNL     1      48.457   8.003  16.385  0.00  0.00    +0.000 A 
ATOM     25  N   UNL     1      48.696   9.144  15.701  0.00  0.00    +0.000 NA
ATOM     26  C   UNL     1      49.636   9.048  14.737  0.00  0.00    +0.000 A 
ATOM     27  C   UNL     1      50.410   7.910  14.548  0.00  0.00    +0.000 A 
ATOM     28  N   UNL     1      50.201   6.765  15.247  0.00  0.00    +0.000 NA
BRANCH  23  30
ATOM     29  N   UNL     1      47.543   5.644  17.486  0.00  0.00    +0.000 N 
ATOM     30  C   UNL     1      48.698   5.564  16.757  0.00  0.00    +0.000 C 
ATOM     31  O   UNL     1      49.324   4.518  16.657  0.00  0.00    +0.000 OA
ATOM     32  H   UNL     1      47.249   4.839  18.021  0.00  0.00    +0.000 HD
ATOM     33  H   UNL     1      47.075   6.537  17.599  0.00  0.00    +0.000 HD
ENDBRANCH  23  30
ENDBRANCH  22  26
ENDBRANCH  19  22
ENDBRANCH   1  19
TORSDOF 6
ENDMDL
MODEL 9
REMARK VINA RESULT:    -7.461      2.812      7.824
REMARK INTER + INTRA:          -9.250
REMARK INTER:                  -8.743
REMARK INTRA:                  -0.508
REMARK UNBOUND:                 0.827
REMARK  Name = 
REMARK  6 active torsions:
REMARK  status: ('A' for Active; 'I' for Inactive)
REMARK    1  A    between atoms: C_2  and  C_4
REMARK    2  A    between atoms: C_7  and  O_8
REMARK    3  A    between atoms: O_8  and  C_9
REMARK    4  A    between atoms: C_9  and  C_10
REMARK    5  A    between atoms: C_15  and  C_16
REMARK    6  A    between atoms: C_20  and  C_21
REMARK                            x       y       z     vdW  Elec       q    Type
REMARK                         _______ _______ _______ _____ _____    ______ ____
ROOT
ATOM      1  C   UNL     1      47.953   8.395  12.376  0.00  0.00    +0.000 A 
ATOM      2  C   UNL     1      47.176   9.515  12.666  0.00  0.00    +0.000 A 
ATOM      3  C   UNL     1      45.834   9.523  12.308  0.00  0.00    +0.000 A 
ATOM      4  C   UNL     1      45.281   8.395  11.715  0.00  0.00    +0.000 A 
ATOM      5  F   UNL     1      44.005   8.455  11.309  0.00  0.00    +0.000 F 
ATOM      6  C   UNL     1      46.064   7.262  11.523  0.00  0.00    +0.000 A 
ATOM      7  N   UNL     1      47.387   7.282  11.832  0.00  0.00    +0.000 NA
ENDROOT
BRANCH   6   8
ATOM      8  C   UNL     1      45.574   5.978  10.970  0.00  0.00    +0.000 A 
ATOM      9  C   UNL     1      45.799   5.584   9.642  0.00  0.00    +0.000 A 
ATOM     10  C   UNL     1      45.293   4.375   9.179  0.00  0.00    +0.000 A 
ATOM     11  N   UNL     1      44.572   3.525   9.934  0.00  0.00    +0.000 NA
ATOM     12  C   UNL     1      44.342   3.914  11.217  0.00  0.00    +0.000 A 
ATOM     13  C   UNL     1      44.815   5.100  11.764  0.00  0.00    +0.000 A 
BRANCH  12  14
ATOM     14  C   UNL     1      43.525   2.982  12.057  0.00  0.00    +0.000 C 
ATOM     15  N   UNL     1      43.464   3.295  13.389  0.00  0.00    +0.000 N 
ATOM     16  O   UNL     1      42.946   2.003  11.602  0.00  0.00    +0.000 OA
ATOM     17  H   UNL     1      43.961   4.108  13.731  0.00  0.00    +0.000 HD
ATOM     18  H   UNL     1      42.950   2.699  14.020  0.00  0.00    +0.000 HD
ENDBRANCH  12  14
ENDBRANCH   6   8
BRANCH   1  19
ATOM     19  C   UNL     1      49.471   8.453  12.500  0.00  0.00    +0.000 C 
ATOM     20  C   UNL     1      50.282   7.628  11.503  0.00  0.00    +0.000 C 
ATOM     21  C   UNL     1      50.249   9.114  11.369  0.00  0.00    +0.000 C 
BRANCH  19  22
ATOM     22  O   UNL     1      50.045   8.715  13.818  0.00  0.00    +0.000 OA
BRANCH  22  26
ATOM     23  C   UNL     1      48.587   6.841  17.058  0.00  0.00    +0.000 A 
ATOM     24  C   UNL     1      49.000   6.108  15.956  0.00  0.00    +0.000 A 
ATOM     25  N   UNL     1      49.376   6.701  14.800  0.00  0.00    +0.000 NA
ATOM     26  C   UNL     1      49.363   8.050  14.817  0.00  0.00    +0.000 A 
ATOM     27  C   UNL     1      48.865   8.787  15.884  0.00  0.00    +0.000 A 
ATOM     28  N   UNL     1      48.457   8.205  17.041  0.00  0.00    +0.000 NA
BRANCH  23  30
ATOM     29  N   UNL     1      49.008   4.921  18.471  0.00  0.00    +0.000 N 
ATOM     30  C   UNL     1      48.413   6.148  18.364  0.00  0.00    +0.000 C 
ATOM     31  O   UNL     1      47.746   6.621  19.274  0.00  0.00    +0.000 OA
ATOM     32  H   UNL     1      48.821   4.360  19.290  0.00  0.00    +0.000 HD
ATOM     33  H   UNL     1      49.506   4.528  17.680  0.00  0.00    +0.000 HD
ENDBRANCH  23  30
ENDBRANCH  22  26
ENDBRANCH  19  22
ENDBRANCH   1  19
TORSDOF 6
ENDMDL
