MODEL 1
REMARK VINA RESULT:    -8.157      0.000      0.000
REMARK INTER + INTRA:         -11.869
REMARK INTER:                 -11.019
REMARK INTRA:                  -0.850
REMARK UNBOUND:                -0.850
REMARK  Name = 
REMARK  7 active torsions:
REMARK  status: ('A' for Active; 'I' for Inactive)
REMARK    1  A    between atoms: C_1  and  C_2
REMARK    2  A    between atoms: C_2  and  C_3
REMARK    3  A    between atoms: C_2  and  C_14
REMARK    4  A    between atoms: C_3  and  N_4
REMARK    5  A    between atoms: N_4  and  C_5
REMARK    6  A    between atoms: C_8  and  C_9
REMARK    7  A    between atoms: C_18  and  C_19
REMARK                            x       y       z     vdW  Elec       q    Type
REMARK                         _______ _______ _______ _____ _____    ______ ____
ROOT
ATOM      1  C   UNL     1      44.419   5.779  10.848  0.00  0.00    +0.000 C 
ENDROOT
BRANCH   1   3
ATOM      2  C   UNL     1      43.404   4.425  12.791  0.00  0.00    +0.000 C 
ATOM      3  C   UNL     1      44.597   5.066  12.154  0.00  0.00    +0.000 C 
BRANCH   3   4
ATOM      4  C   UNL     1      45.756   5.405  12.983  0.00  0.00    +0.000 A 
ATOM      5  C   UNL     1      46.500   6.550  12.697  0.00  0.00    +0.000 A 
ATOM      6  C   UNL     1      47.633   6.869  13.447  0.00  0.00    +0.000 A 
ATOM      7  C   UNL     1      48.015   6.056  14.510  0.00  0.00    +0.000 A 
ATOM      8  C   UNL     1      47.267   4.916  14.836  0.00  0.00    +0.000 A 
ATOM      9  C   UNL     1      46.145   4.589  14.054  0.00  0.00    +0.000 A 
BRANCH   8  10
ATOM     10  C   UNL     1      47.633   4.055  16.018  0.00  0.00    +0.000 C 
ATOM     11  F   UNL     1      47.848   2.749  15.698  0.00  0.00    +0.000 F 
ATOM     12  F   UNL     1      48.774   4.480  16.633  0.00  0.00    +0.000 F 
ATOM     13  F   UNL     1      46.671   4.051  16.980  0.00  0.00    +0.000 F 
ENDBRANCH   8  10
ENDBRANCH   3   4
ENDBRANCH   1   3
BRANCH   1  14
ATOM     14  N   UNL     1      43.787   4.842   9.921  0.00  0.00    +0.000 N 
ATOM     15  H   UNL     1      43.210   5.334   9.239  0.00  0.00    +0.000 HD
BRANCH  14  16
ATOM     16  C   UNL     1      44.622   3.905   9.299  0.00  0.00    +0.000 A 
ATOM     17  C   UNL     1      45.536   4.328   8.329  0.00  0.00    +0.000 A 
ATOM     18  C   UNL     1      46.359   3.405   7.682  0.00  0.00    +0.000 A 
ATOM     19  C   UNL     1      46.216   2.064   8.003  0.00  0.00    +0.000 A 
ATOM     20  N   UNL     1      45.302   1.591   8.891  0.00  0.00    +0.000 NA
ATOM     21  C   UNL     1      44.526   2.522   9.491  0.00  0.00    +0.000 A 
BRANCH  19  22
ATOM     22  C   UNL     1      47.107   1.043   7.363  0.00  0.00    +0.000 C 
ATOM     23  N   UNL     1      46.797  -0.261   7.647  0.00  0.00    +0.000 N 
ATOM     24  O   UNL     1      48.050   1.342   6.643  0.00  0.00    +0.000 OA
ATOM     25  H   UNL     1      46.013  -0.465   8.257  0.00  0.00    +0.000 HD
ATOM     26  H   UNL     1      47.365  -1.003   7.268  0.00  0.00    +0.000 HD
ENDBRANCH  19  22
ENDBRANCH  14  16
ENDBRANCH   1  14
TORSDOF 6
ENDMDL
MODEL 2
REMARK VINA RESULT:    -7.956      2.483      3.122
REMARK INTER + INTRA:         -11.597
REMARK INTER:                 -10.700
REMARK INTRA:                  -0.898
REMARK UNBOUND:                -0.850
REMARK  Name = 
REMARK  7 active torsions:
REMARK  status: ('A' for Active; 'I' for Inactive)
REMARK    1  A    between atoms: C_1  and  C_2
REMARK    2  A    between atoms: C_2  and  C_3
REMARK    3  A    between atoms: C_2  and  C_14
REMARK    4  A    between atoms: C_3  and  N_4
REMARK    5  A    between atoms: N_4  and  C_5
REMARK    6  A    between atoms: C_8  and  C_9
REMARK    7  A    between atoms: C_18  and  C_19
REMARK                            x       y       z     vdW  Elec       q    Type
REMARK                         _______ _______ _______ _____ _____    ______ ____
ROOT
ATOM      1  C   UNL     1      43.678   4.708  11.318  0.00  0.00    +0.000 C 
ENDROOT
BRANCH   1   3
ATOM      2  C   UNL     1      45.606   3.719  12.712  0.00  0.00    +0.000 C 
ATOM      3  C   UNL     1      45.058   4.840  11.887  0.00  0.00    +0.000 C 
BRANCH   3   4
ATOM      4  C   UNL     1      45.628   6.182  12.033  0.00  0.00    +0.000 A 
ATOM      5  C   UNL     1      44.782   7.281  12.179  0.00  0.00    +0.000 A 
ATOM      6  C   UNL     1      45.301   8.573  12.277  0.00  0.00    +0.000 A 
ATOM      7  C   UNL     1      46.678   8.772  12.257  0.00  0.00    +0.000 A 
ATOM      8  C   UNL     1      47.552   7.680  12.140  0.00  0.00    +0.000 A 
ATOM      9  C   UNL     1      47.015   6.387  12.012  0.00  0.00    +0.000 A 
BRANCH   8  10
ATOM     10  C   UNL     1      49.046   7.872  12.174  0.00  0.00    +0.000 C 
ATOM     11  F   UNL     1      49.661   7.576  10.995  0.00  0.00    +0.000 F 
ATOM     12  F   UNL     1      49.396   9.157  12.463  0.00  0.00    +0.000 F 
ATOM     13  F   UNL     1      49.652   7.099  13.116  0.00  0.00    +0.000 F 
ENDBRANCH   8  10
ENDBRANCH   3   4
ENDBRANCH   1   3
BRANCH   1  14
ATOM     14  N   UNL     1      43.787   4.853   9.868  0.00  0.00    +0.000 N 
ATOM     15  H   UNL     1      43.963   5.824   9.608  0.00  0.00    +0.000 HD
BRANCH  14  16
ATOM     16  C   UNL     1      44.664   3.983   9.208  0.00  0.00    +0.000 A 
ATOM     17  C   UNL     1      45.592   4.495   8.295  0.00  0.00    +0.000 A 
ATOM     18  C   UNL     1      46.456   3.640   7.611  0.00  0.00    +0.000 A 
ATOM     19  C   UNL     1      46.342   2.277   7.836  0.00  0.00    +0.000 A 
ATOM     20  N   UNL     1      45.419   1.721   8.664  0.00  0.00    +0.000 NA
ATOM     21  C   UNL     1      44.601   2.588   9.304  0.00  0.00    +0.000 A 
BRANCH  19  22
ATOM     22  C   UNL     1      47.278   1.325   7.155  0.00  0.00    +0.000 C 
ATOM     23  N   UNL     1      48.390   1.900   6.597  0.00  0.00    +0.000 N 
ATOM     24  O   UNL     1      47.070   0.121   7.090  0.00  0.00    +0.000 OA
ATOM     25  H   UNL     1      48.519   2.903   6.665  0.00  0.00    +0.000 HD
ATOM     26  H   UNL     1      49.055   1.323   6.104  0.00  0.00    +0.000 HD
ENDBRANCH  19  22
ENDBRANCH  14  16
ENDBRANCH   1  14
TORSDOF 6
ENDMDL
MODEL 3
REMARK VINA RESULT:    -7.830      2.475      3.112
REMARK INTER + INTRA:         -11.426
REMARK INTER:                 -10.449
REMARK INTRA:                  -0.977
REMARK UNBOUND:                -0.850
REMARK  Name = 
REMARK  7 active torsions:
REMARK  status: ('A' for Active; 'I' for Inactive)
REMARK    1  A    between atoms: C_1  and  C_2
REMARK    2  A    between atoms: C_2  and  C_3
REMARK    3  A    between atoms: C_2  and  C_14
REMARK    4  A    between atoms: C_3  and  N_4
REMARK    5  A    between atoms: N_4  and  C_5
REMARK    6  A    between atoms: C_8  and  C_9
REMARK    7  A    between atoms: C_18  and  C_19
REMARK                            x       y       z     vdW  Elec       q    Type
REMARK                         _______ _______ _______ _____ _____    ______ ____
ROOT
ATOM      1  C   UNL     1      44.274   5.667  10.937  0.00  0.00    +0.000 C 
ENDROOT
BRANCH   1   3
ATOM      2  C   UNL     1      43.792   3.993  12.836  0.00  0.00    +0.000 C 
ATOM      3  C   UNL     1      44.759   4.880  12.116  0.00  0.00    +0.000 C 
BRANCH   3   4
ATOM      4  C   UNL     1      45.968   5.332  12.809  0.00  0.00    +0.000 A 
ATOM      5  C   UNL     1      46.309   4.773  14.040  0.00  0.00    +0.000 A 
ATOM      6  C   UNL     1      47.432   5.218  14.739  0.00  0.00    +0.000 A 
ATOM      7  C   UNL     1      48.240   6.212  14.195  0.00  0.00    +0.000 A 
ATOM      8  C   UNL     1      47.935   6.771  12.945  0.00  0.00    +0.000 A 
ATOM      9  C   UNL     1      46.784   6.334  12.266  0.00  0.00    +0.000 A 
BRANCH   8  10
ATOM     10  C   UNL     1      48.830   7.807  12.315  0.00  0.00    +0.000 C 
ATOM     11  F   UNL     1      48.176   8.655  11.474  0.00  0.00    +0.000 F 
ATOM     12  F   UNL     1      49.436   8.600  13.244  0.00  0.00    +0.000 F 
ATOM     13  F   UNL     1      49.835   7.255  11.583  0.00  0.00    +0.000 F 
ENDBRANCH   8  10
ENDBRANCH   3   4
ENDBRANCH   1   3
BRANCH   1  14
ATOM     14  N   UNL     1      43.715   4.716   9.978  0.00  0.00    +0.000 N 
ATOM     15  H   UNL     1      43.001   5.157   9.397  0.00  0.00    +0.000 HD
BRANCH  14  16
ATOM     16  C   UNL     1      44.627   3.992   9.199  0.00  0.00    +0.000 A 
ATOM     17  C   UNL     1      44.707   2.603   9.340  0.00  0.00    +0.000 A 
ATOM     18  C   UNL     1      45.627   1.868   8.591  0.00  0.00    +0.000 A 
ATOM     19  C   UNL     1      46.475   2.558   7.738  0.00  0.00    +0.000 A 
ATOM     20  N   UNL     1      46.483   3.911   7.608  0.00  0.00    +0.000 NA
ATOM     21  C   UNL     1      45.576   4.580   8.356  0.00  0.00    +0.000 A 
BRANCH  19  22
ATOM     22  C   UNL     1      47.450   1.806   6.883  0.00  0.00    +0.000 C 
ATOM     23  N   UNL     1      48.526   2.533   6.448  0.00  0.00    +0.000 N 
ATOM     24  O   UNL     1      47.301   0.628   6.585  0.00  0.00    +0.000 OA
ATOM     25  H   UNL     1      48.606   3.509   6.710  0.00  0.00    +0.000 HD
ATOM     26  H   UNL     1      49.214   2.099   5.851  0.00  0.00    +0.000 HD
ENDBRANCH  19  22
ENDBRANCH  14  16
ENDBRANCH   1  14
TORSDOF 6
ENDMDL
MODEL 4
REMARK VINA RESULT:    -7.518      1.673      2.142
REMARK INTER + INTRA:         -11.005
REMARK INTER:                 -10.072
REMARK INTRA:                  -0.933
REMARK UNBOUND:                -0.850
REMARK  Name = 
REMARK  7 active torsions:
REMARK  status: ('A' for Active; 'I' for Inactive)
REMARK    1  A    between atoms: C_1  and  C_2
REMARK    2  A    between atoms: C_2  and  C_3
REMARK    3  A    between atoms: C_2  and  C_14
REMARK    4  A    between atoms: C_3  and  N_4
REMARK    5  A    between atoms: N_4  and  C_5
REMARK    6  A    between atoms: C_8  and  C_9
REMARK    7  A    between atoms: C_18  and  C_19
REMARK                            x       y       z     vdW  Elec       q    Type
REMARK                         _______ _______ _______ _____ _____    ______ ____
ROOT
ATOM      1  C   UNL     1      44.171   5.407  11.010  0.00  0.00    +0.000 C 
ENDROOT
BRANCH   1   3
ATOM      2  C   UNL     1      44.730   3.920  13.039  0.00  0.00    +0.000 C 
ATOM      3  C   UNL     1      45.162   4.939  12.032  0.00  0.00    +0.000 C 
BRANCH   3   4
ATOM      4  C   UNL     1      46.320   5.789  12.324  0.00  0.00    +0.000 A 
ATOM      5  C   UNL     1      46.842   6.611  11.327  0.00  0.00    +0.000 A 
ATOM      6  C   UNL     1      47.970   7.397  11.570  0.00  0.00    +0.000 A 
ATOM      7  C   UNL     1      48.568   7.385  12.827  0.00  0.00    +0.000 A 
ATOM      8  C   UNL     1      48.044   6.588  13.855  0.00  0.00    +0.000 A 
ATOM      9  C   UNL     1      46.926   5.779  13.588  0.00  0.00    +0.000 A 
BRANCH   8  10
ATOM     10  C   UNL     1      48.645   6.605  15.237  0.00  0.00    +0.000 C 
ATOM     11  F   UNL     1      48.281   5.540  16.004  0.00  0.00    +0.000 F 
ATOM     12  F   UNL     1      50.007   6.595  15.209  0.00  0.00    +0.000 F 
ATOM     13  F   UNL     1      48.295   7.713  15.946  0.00  0.00    +0.000 F 
ENDBRANCH   8  10
ENDBRANCH   3   4
ENDBRANCH   1   3
BRANCH   1  14
ATOM     14  N   UNL     1      43.757   4.239  10.235  0.00  0.00    +0.000 N 
ATOM     15  H   UNL     1      42.847   4.390   9.800  0.00  0.00    +0.000 HD
BRANCH  14  16
ATOM     16  C   UNL     1      44.682   3.729   9.315  0.00  0.00    +0.000 A 
ATOM     17  C   UNL     1      44.973   2.361   9.311  0.00  0.00    +0.000 A 
ATOM     18  C   UNL     1      45.910   1.839   8.419  0.00  0.00    +0.000 A 
ATOM     19  C   UNL     1      46.564   2.719   7.570  0.00  0.00    +0.000 A 
ATOM     20  N   UNL     1      46.367   4.063   7.574  0.00  0.00    +0.000 NA
ATOM     21  C   UNL     1      45.452   4.523   8.458  0.00  0.00    +0.000 A 
BRANCH  19  22
ATOM     22  C   UNL     1      47.547   2.197   6.566  0.00  0.00    +0.000 C 
ATOM     23  N   UNL     1      47.825   3.046   5.527  0.00  0.00    +0.000 N 
ATOM     24  O   UNL     1      48.066   1.092   6.656  0.00  0.00    +0.000 OA
ATOM     25  H   UNL     1      47.366   3.949   5.485  0.00  0.00    +0.000 HD
ATOM     26  H   UNL     1      48.464   2.754   4.802  0.00  0.00    +0.000 HD
ENDBRANCH  19  22
ENDBRANCH  14  16
ENDBRANCH   1  14
TORSDOF 6
ENDMDL
MODEL 5
REMARK VINA RESULT:    -7.325      3.415      4.029
REMARK INTER + INTRA:         -10.744
REMARK INTER:                 -10.210
REMARK INTRA:                  -0.533
REMARK UNBOUND:                -0.850
REMARK  Name = 
REMARK  7 active torsions:
REMARK  status: ('A' for Active; 'I' for Inactive)
REMARK    1  A    between atoms: C_1  and  C_2
REMARK    2  A    between atoms: C_2  and  C_3
REMARK    3  A    between atoms: C_2  and  C_14
REMARK    4  A    between atoms: C_3  and  N_4
REMARK    5  A    between atoms: N_4  and  C_5
REMARK    6  A    between atoms: C_8  and  C_9
REMARK    7  A    between atoms: C_18  and  C_19
REMARK                            x       y       z     vdW  Elec       q    Type
REMARK                         _______ _______ _______ _____ _____    ______ ____
ROOT
ATOM      1  C   UNL     1      43.370   4.048  10.971  0.00  0.00    +0.000 C 
ENDROOT
BRANCH   1   3
ATOM      2  C   UNL     1      43.127   4.438  13.507  0.00  0.00    +0.000 C 
ATOM      3  C   UNL     1      43.922   4.601  12.249  0.00  0.00    +0.000 C 
BRANCH   3   4
ATOM      4  C   UNL     1      44.933   5.659  12.174  0.00  0.00    +0.000 A 
ATOM      5  C   UNL     1      46.281   5.339  12.329  0.00  0.00    +0.000 A 
ATOM      6  C   UNL     1      47.258   6.335  12.304  0.00  0.00    +0.000 A 
ATOM      7  C   UNL     1      46.893   7.662  12.097  0.00  0.00    +0.000 A 
ATOM      8  C   UNL     1      45.546   8.007  11.910  0.00  0.00    +0.000 A 
ATOM      9  C   UNL     1      44.569   6.997  11.967  0.00  0.00    +0.000 A 
BRANCH   8  10
ATOM     10  C   UNL     1      45.138   9.430  11.628  0.00  0.00    +0.000 C 
ATOM     11  F   UNL     1      44.320   9.560  10.547  0.00  0.00    +0.000 F 
ATOM     12  F   UNL     1      44.465   9.991  12.673  0.00  0.00    +0.000 F 
ATOM     13  F   UNL     1      46.203  10.243  11.391  0.00  0.00    +0.000 F 
ENDBRANCH   8  10
ENDBRANCH   3   4
ENDBRANCH   1   3
BRANCH   1  14
ATOM     14  N   UNL     1      43.925   4.839   9.876  0.00  0.00    +0.000 N 
ATOM     15  H   UNL     1      44.294   5.728  10.214  0.00  0.00    +0.000 HD
BRANCH  14  16
ATOM     16  C   UNL     1      44.841   4.197   9.031  0.00  0.00    +0.000 A 
ATOM     17  C   UNL     1      44.883   2.800   8.989  0.00  0.00    +0.000 A 
ATOM     18  C   UNL     1      45.805   2.145   8.173  0.00  0.00    +0.000 A 
ATOM     19  C   UNL     1      46.694   2.916   7.441  0.00  0.00    +0.000 A 
ATOM     20  N   UNL     1      46.740   4.273   7.491  0.00  0.00    +0.000 NA
ATOM     21  C   UNL     1      45.829   4.864   8.298  0.00  0.00    +0.000 A 
BRANCH  19  22
ATOM     22  C   UNL     1      47.674   2.256   6.519  0.00  0.00    +0.000 C 
ATOM     23  N   UNL     1      47.858   2.884   5.316  0.00  0.00    +0.000 N 
ATOM     24  O   UNL     1      48.268   1.225   6.809  0.00  0.00    +0.000 OA
ATOM     25  H   UNL     1      47.339   3.730   5.112  0.00  0.00    +0.000 HD
ATOM     26  H   UNL     1      48.489   2.486   4.635  0.00  0.00    +0.000 HD
ENDBRANCH  19  22
ENDBRANCH  14  16
ENDBRANCH   1  14
TORSDOF 6
ENDMDL
MODEL 6
REMARK VINA RESULT:    -7.168      4.642      7.077
REMARK INTER + INTRA:         -10.532
REMARK INTER:                 -10.204
REMARK INTRA:                  -0.328
REMARK UNBOUND:                -0.850
REMARK  Name = 
REMARK  7 active torsions:
REMARK  status: ('A' for Active; 'I' for Inactive)
REMARK    1  A    between atoms: C_1  and  C_2
REMARK    2  A    between atoms: C_2  and  C_3
REMARK    3  A    between atoms: C_2  and  C_14
REMARK    4  A    between atoms: C_3  and  N_4
REMARK    5  A    between atoms: N_4  and  C_5
REMARK    6  A    between atoms: C_8  and  C_9
REMARK    7  A    between atoms: C_18  and  C_19
REMARK                            x       y       z     vdW  Elec       q    Type
REMARK                         _______ _______ _______ _____ _____    ______ ____
ROOT
ATOM      1  C   UNL     1      44.958   6.643  11.312  0.00  0.00    +0.000 C 
ENDROOT
BRANCH   1   3
ATOM      2  C   UNL     1      42.601   5.660  11.663  0.00  0.00    +0.000 C 
ATOM      3  C   UNL     1      43.906   5.647  10.929  0.00  0.00    +0.000 C 
BRANCH   3   4
ATOM      4  C   UNL     1      44.318   4.431  10.223  0.00  0.00    +0.000 A 
ATOM      5  C   UNL     1      43.813   3.194  10.625  0.00  0.00    +0.000 A 
ATOM      6  C   UNL     1      44.224   2.018   9.996  0.00  0.00    +0.000 A 
ATOM      7  C   UNL     1      45.126   2.075   8.937  0.00  0.00    +0.000 A 
ATOM      8  C   UNL     1      45.625   3.308   8.495  0.00  0.00    +0.000 A 
ATOM      9  C   UNL     1      45.226   4.483   9.157  0.00  0.00    +0.000 A 
BRANCH   8  10
ATOM     10  C   UNL     1      46.558   3.393   7.314  0.00  0.00    +0.000 C 
ATOM     11  F   UNL     1      45.937   3.225   6.114  0.00  0.00    +0.000 F 
ATOM     12  F   UNL     1      47.189   4.599   7.240  0.00  0.00    +0.000 F 
ATOM     13  F   UNL     1      47.546   2.458   7.359  0.00  0.00    +0.000 F 
ENDBRANCH   8  10
ENDBRANCH   3   4
ENDBRANCH   1   3
BRANCH   1  14
ATOM     14  N   UNL     1      46.210   5.910  11.489  0.00  0.00    +0.000 N 
ATOM     15  H   UNL     1      46.983   6.387  11.026  0.00  0.00    +0.000 HD
BRANCH  14  16
ATOM     16  C   UNL     1      46.549   5.543  12.798  0.00  0.00    +0.000 A 
ATOM     17  C   UNL     1      47.517   6.273  13.493  0.00  0.00    +0.000 A 
ATOM     18  C   UNL     1      47.886   5.906  14.788  0.00  0.00    +0.000 A 
ATOM     19  C   UNL     1      47.293   4.783  15.343  0.00  0.00    +0.000 A 
ATOM     20  N   UNL     1      46.394   4.000  14.690  0.00  0.00    +0.000 NA
ATOM     21  C   UNL     1      46.069   4.394  13.437  0.00  0.00    +0.000 A 
BRANCH  19  22
ATOM     22  C   UNL     1      47.627   4.377  16.746  0.00  0.00    +0.000 C 
ATOM     23  N   UNL     1      47.045   3.211  17.170  0.00  0.00    +0.000 N 
ATOM     24  O   UNL     1      48.361   5.035  17.471  0.00  0.00    +0.000 OA
ATOM     25  H   UNL     1      46.436   2.701  16.540  0.00  0.00    +0.000 HD
ATOM     26  H   UNL     1      47.209   2.885  18.111  0.00  0.00    +0.000 HD
ENDBRANCH  19  22
ENDBRANCH  14  16
ENDBRANCH   1  14
TORSDOF 6
ENDMDL
MODEL 7
REMARK VINA RESULT:    -7.049      4.543      6.857
REMARK INTER + INTRA:         -10.372
REMARK INTER:                  -9.268
REMARK INTRA:                  -1.104
REMARK UNBOUND:                -0.850
REMARK  Name = 
REMARK  7 active torsions:
REMARK  status: ('A' for Active; 'I' for Inactive)
REMARK    1  A    between atoms: C_1  and  C_2
REMARK    2  A    between atoms: C_2  and  C_3
REMARK    3  A    between atoms: C_2  and  C_14
REMARK    4  A    between atoms: C_3  and  N_4
REMARK    5  A    between atoms: N_4  and  C_5
REMARK    6  A    between atoms: C_8  and  C_9
REMARK    7  A    between atoms: C_18  and  C_19
REMARK                            x       y       z     vdW  Elec       q    Type
REMARK                         _______ _______ _______ _____ _____    ______ ____
ROOT
ATOM      1  C   UNL     1      45.976   7.699  12.856  0.00  0.00    +0.000 C 
ENDROOT
BRANCH   1   3
ATOM      2  C   UNL     1      44.379   8.773  11.143  0.00  0.00    +0.000 C 
ATOM      3  C   UNL     1      45.125   7.570  11.630  0.00  0.00    +0.000 C 
BRANCH   3   4
ATOM      4  C   UNL     1      44.669   6.235  11.231  0.00  0.00    +0.000 A 
ATOM      5  C   UNL     1      43.660   5.604  11.958  0.00  0.00    +0.000 A 
ATOM      6  C   UNL     1      43.240   4.316  11.623  0.00  0.00    +0.000 A 
ATOM      7  C   UNL     1      43.812   3.659  10.537  0.00  0.00    +0.000 A 
ATOM      8  C   UNL     1      44.808   4.284   9.773  0.00  0.00    +0.000 A 
ATOM      9  C   UNL     1      45.243   5.569  10.139  0.00  0.00    +0.000 A 
BRANCH   8  10
ATOM     10  C   UNL     1      45.397   3.610   8.560  0.00  0.00    +0.000 C 
ATOM     11  F   UNL     1      45.903   2.371   8.815  0.00  0.00    +0.000 F 
ATOM     12  F   UNL     1      44.479   3.440   7.567  0.00  0.00    +0.000 F 
ATOM     13  F   UNL     1      46.416   4.324   8.008  0.00  0.00    +0.000 F 
ENDBRANCH   8  10
ENDBRANCH   3   4
ENDBRANCH   1   3
BRANCH   1  14
ATOM     14  N   UNL     1      47.149   6.848  12.666  0.00  0.00    +0.000 N 
ATOM     15  H   UNL     1      47.984   7.407  12.494  0.00  0.00    +0.000 HD
BRANCH  14  16
ATOM     16  C   UNL     1      47.384   5.868  13.638  0.00  0.00    +0.000 A 
ATOM     17  C   UNL     1      46.828   4.593  13.487  0.00  0.00    +0.000 A 
ATOM     18  C   UNL     1      47.032   3.613  14.458  0.00  0.00    +0.000 A 
ATOM     19  C   UNL     1      47.766   3.950  15.584  0.00  0.00    +0.000 A 
ATOM     20  N   UNL     1      48.276   5.189  15.813  0.00  0.00    +0.000 NA
ATOM     21  C   UNL     1      48.051   6.107  14.845  0.00  0.00    +0.000 A 
BRANCH  19  22
ATOM     22  C   UNL     1      48.046   2.917  16.633  0.00  0.00    +0.000 C 
ATOM     23  N   UNL     1      47.069   2.770  17.582  0.00  0.00    +0.000 N 
ATOM     24  O   UNL     1      49.072   2.250  16.652  0.00  0.00    +0.000 OA
ATOM     25  H   UNL     1      46.238   3.349  17.535  0.00  0.00    +0.000 HD
ATOM     26  H   UNL     1      47.196   2.106  18.332  0.00  0.00    +0.000 HD
ENDBRANCH  19  22
ENDBRANCH  14  16
ENDBRANCH   1  14
TORSDOF 6
ENDMDL
MODEL 8
REMARK VINA RESULT:    -6.916      4.756      7.182
REMARK INTER + INTRA:         -10.192
REMARK INTER:                  -9.345
REMARK INTRA:                  -0.846
REMARK UNBOUND:                -0.850
REMARK  Name = 
REMARK  7 active torsions:
REMARK  status: ('A' for Active; 'I' for Inactive)
REMARK    1  A    between atoms: C_1  and  C_2
REMARK    2  A    between atoms: C_2  and  C_3
REMARK    3  A    between atoms: C_2  and  C_14
REMARK    4  A    between atoms: C_3  and  N_4
REMARK    5  A    between atoms: N_4  and  C_5
REMARK    6  A    between atoms: C_8  and  C_9
REMARK    7  A    between atoms: C_18  and  C_19
REMARK                            x       y       z     vdW  Elec       q    Type
REMARK                         _______ _______ _______ _____ _____    ______ ____
ROOT
ATOM      1  C   UNL     1      44.878   6.514  11.287  0.00  0.00    +0.000 C 
ENDROOT
BRANCH   1   3
ATOM      2  C   UNL     1      42.597   5.388  11.701  0.00  0.00    +0.000 C 
ATOM      3  C   UNL     1      43.873   5.466  10.921  0.00  0.00    +0.000 C 
BRANCH   3   4
ATOM      4  C   UNL     1      44.329   4.289  10.175  0.00  0.00    +0.000 A 
ATOM      5  C   UNL     1      43.844   3.026  10.514  0.00  0.00    +0.000 A 
ATOM      6  C   UNL     1      44.296   1.887   9.847  0.00  0.00    +0.000 A 
ATOM      7  C   UNL     1      45.221   2.007   8.814  0.00  0.00    +0.000 A 
ATOM      8  C   UNL     1      45.702   3.269   8.435  0.00  0.00    +0.000 A 
ATOM      9  C   UNL     1      45.261   4.406   9.135  0.00  0.00    +0.000 A 
BRANCH   8  10
ATOM     10  C   UNL     1      46.661   3.424   7.282  0.00  0.00    +0.000 C 
ATOM     11  F   UNL     1      46.080   3.249   6.062  0.00  0.00    +0.000 F 
ATOM     12  F   UNL     1      47.233   4.661   7.248  0.00  0.00    +0.000 F 
ATOM     13  F   UNL     1      47.692   2.537   7.336  0.00  0.00    +0.000 F 
ENDBRANCH   8  10
ENDBRANCH   3   4
ENDBRANCH   1   3
BRANCH   1  14
ATOM     14  N   UNL     1      45.564   6.060  12.495  0.00  0.00    +0.000 N 
ATOM     15  H   UNL     1      45.546   5.042  12.566  0.00  0.00    +0.000 HD
BRANCH  14  16
ATOM     16  C   UNL     1      46.852   6.563  12.719  0.00  0.00    +0.000 A 
ATOM     17  C   UNL     1      47.427   7.434  11.789  0.00  0.00    +0.000 A 
ATOM     18  C   UNL     1      48.719   7.924  11.984  0.00  0.00    +0.000 A 
ATOM     19  C   UNL     1      49.419   7.496  13.100  0.00  0.00    +0.000 A 
ATOM     20  N   UNL     1      48.934   6.603  14.003  0.00  0.00    +0.000 NA
ATOM     21  C   UNL     1      47.679   6.153  13.771  0.00  0.00    +0.000 A 
BRANCH  19  22
ATOM     22  C   UNL     1      50.793   8.029  13.371  0.00  0.00    +0.000 C 
ATOM     23  N   UNL     1      51.333   7.666  14.577  0.00  0.00    +0.000 N 
ATOM     24  O   UNL     1      51.396   8.744  12.582  0.00  0.00    +0.000 OA
ATOM     25  H   UNL     1      50.795   7.080  15.207  0.00  0.00    +0.000 HD
ATOM     26  H   UNL     1      52.247   8.004  14.838  0.00  0.00    +0.000 HD
ENDBRANCH  19  22
ENDBRANCH  14  16
ENDBRANCH   1  14
TORSDOF 6
ENDMDL
MODEL 9
REMARK VINA RESULT:    -6.471      2.785      4.616
REMARK INTER + INTRA:          -9.591
REMARK INTER:                  -8.784
REMARK INTRA:                  -0.807
REMARK UNBOUND:                -0.850
REMARK  Name = 
REMARK  7 active torsions:
REMARK  status: ('A' for Active; 'I' for Inactive)
REMARK    1  A    between atoms: C_1  and  C_2
REMARK    2  A    between atoms: C_2  and  C_3
REMARK    3  A    between atoms: C_2  and  C_14
REMARK    4  A    between atoms: C_3  and  N_4
REMARK    5  A    between atoms: N_4  and  C_5
REMARK    6  A    between atoms: C_8  and  C_9
REMARK    7  A    between atoms: C_18  and  C_19
REMARK                            x       y       z     vdW  Elec       q    Type
REMARK                         _______ _______ _______ _____ _____    ______ ____
ROOT
ATOM      1  C   UNL     1      48.210   7.149  13.729  0.00  0.00    +0.000 C 
ENDROOT
BRANCH   1   3
ATOM      2  C   UNL     1      48.845   8.948  15.462  0.00  0.00    +0.000 C 
ATOM      3  C   UNL     1      48.592   7.510  15.133  0.00  0.00    +0.000 C 
BRANCH   3   4
ATOM      4  C   UNL     1      49.158   6.468  15.994  0.00  0.00    +0.000 A 
ATOM      5  C   UNL     1      50.461   6.598  16.471  0.00  0.00    +0.000 A 
ATOM      6  C   UNL     1      51.036   5.599  17.258  0.00  0.00    +0.000 A 
ATOM      7  C   UNL     1      50.297   4.468  17.594  0.00  0.00    +0.000 A 
ATOM      8  C   UNL     1      48.974   4.327  17.150  0.00  0.00    +0.000 A 
ATOM      9  C   UNL     1      48.417   5.327  16.335  0.00  0.00    +0.000 A 
BRANCH   8  10
ATOM     10  C   UNL     1      48.141   3.137  17.553  0.00  0.00    +0.000 C 
ATOM     11  F   UNL     1      48.449   1.999  16.871  0.00  0.00    +0.000 F 
ATOM     12  F   UNL     1      48.282   2.830  18.873  0.00  0.00    +0.000 F 
ATOM     13  F   UNL     1      46.809   3.341  17.357  0.00  0.00    +0.000 F 
ENDBRANCH   8  10
ENDBRANCH   3   4
ENDBRANCH   1   3
BRANCH   1  14
ATOM     14  N   UNL     1      46.754   7.233  13.637  0.00  0.00    +0.000 N 
ATOM     15  H   UNL     1      46.463   8.128  13.243  0.00  0.00    +0.000 HD
BRANCH  14  16
ATOM     16  C   UNL     1      46.096   6.165  13.014  0.00  0.00    +0.000 A 
ATOM     17  C   UNL     1      45.545   6.338  11.740  0.00  0.00    +0.000 A 
ATOM     18  C   UNL     1      44.864   5.292  11.116  0.00  0.00    +0.000 A 
ATOM     19  C   UNL     1      44.723   4.099  11.808  0.00  0.00    +0.000 A 
ATOM     20  N   UNL     1      45.184   3.896  13.070  0.00  0.00    +0.000 NA
ATOM     21  C   UNL     1      45.834   4.939  13.635  0.00  0.00    +0.000 A 
BRANCH  19  22
ATOM     22  C   UNL     1      44.036   2.936  11.159  0.00  0.00    +0.000 C 
ATOM     23  N   UNL     1      44.730   2.346  10.135  0.00  0.00    +0.000 N 
ATOM     24  O   UNL     1      42.933   2.538  11.507  0.00  0.00    +0.000 OA
ATOM     25  H   UNL     1      45.637   2.713   9.872  0.00  0.00    +0.000 HD
ATOM     26  H   UNL     1      44.321   1.569   9.638  0.00  0.00    +0.000 HD
ENDBRANCH  19  22
ENDBRANCH  14  16
ENDBRANCH   1  14
TORSDOF 6
ENDMDL
