MODEL 1
REMARK VINA RESULT:    -9.867      0.000      0.000
REMARK INTER + INTRA:         -14.274
REMARK INTER:                 -13.328
REMARK INTRA:                  -0.946
REMARK UNBOUND:                -0.946
REMARK  Name = 
REMARK  6 active torsions:
REMARK  status: ('A' for Active; 'I' for Inactive)
REMARK    1  A    between atoms: C_2  and  C_4
REMARK    2  A    between atoms: N_8  and  C_9
REMARK    3  A    between atoms: C_9  and  C_10
REMARK    4  A    between atoms: C_10  and  C_13
REMARK    5  A    between atoms: C_18  and  O_19
REMARK    6  A    between atoms: O_19  and  C_20
REMARK                            x       y       z     vdW  Elec       q    Type
REMARK                         _______ _______ _______ _____ _____    ______ ____
ROOT
ATOM      1  C   UNL     1      43.413   5.528  12.217  0.00  0.00    +0.000 C 
ATOM      2  F   UNL     1      42.897   6.647  11.623  0.00  0.00    +0.000 F 
ATOM      3  F   UNL     1      42.594   5.272  13.279  0.00  0.00    +0.000 F 
ENDROOT
BRANCH   1   4
ATOM      4  C   UNL     1      44.853   5.732  12.659  0.00  0.00    +0.000 A 
ATOM      5  C   UNL     1      45.554   6.897  12.317  0.00  0.00    +0.000 A 
ATOM      6  C   UNL     1      46.881   7.066  12.720  0.00  0.00    +0.000 A 
ATOM      7  C   UNL     1      47.520   6.069  13.456  0.00  0.00    +0.000 A 
ATOM      8  F   UNL     1      48.792   6.277  13.824  0.00  0.00    +0.000 F 
ATOM      9  C   UNL     1      46.847   4.900  13.803  0.00  0.00    +0.000 A 
ATOM     10  C   UNL     1      45.511   4.743  13.414  0.00  0.00    +0.000 A 
BRANCH   9  11
ATOM     11  O   UNL     1      47.359   3.857  14.533  0.00  0.00    +0.000 OA
BRANCH  11  12
ATOM     12  C   UNL     1      47.593   4.036  15.943  0.00  0.00    +0.000 C 
ATOM     13  C   UNL     1      48.407   2.948  16.664  0.00  0.00    +0.000 C 
ATOM     14  C   UNL     1      47.247   2.927  17.650  0.00  0.00    +0.000 C 
ATOM     15  O   UNL     1      46.420   3.695  16.745  0.00  0.00    +0.000 OA
ENDBRANCH  11  12
ENDBRANCH   9  11
ENDBRANCH   1   4
BRANCH   1  16
ATOM     16  C   UNL     1      43.310   4.353  11.205  0.00  0.00    +0.000 C 
BRANCH  16  21
ATOM     17  C   UNL     1      46.509   2.529   7.666  0.00  0.00    +0.000 A 
ATOM     18  C   UNL     1      45.667   1.843   8.534  0.00  0.00    +0.000 A 
ATOM     19  C   UNL     1      44.744   2.561   9.297  0.00  0.00    +0.000 A 
ATOM     20  C   UNL     1      44.690   3.948   9.194  0.00  0.00    +0.000 A 
ATOM     21  N   UNL     1      43.748   4.718   9.851  0.00  0.00    +0.000 N 
ATOM     22  N   UNL     1      45.521   4.625   8.378  0.00  0.00    +0.000 NA
ATOM     23  C   UNL     1      46.412   3.912   7.638  0.00  0.00    +0.000 A 
ATOM     24  H   UNL     1      43.985   5.700   9.715  0.00  0.00    +0.000 HD
BRANCH  17  26
ATOM     25  N   UNL     1      48.569   2.579   6.379  0.00  0.00    +0.000 N 
ATOM     26  C   UNL     1      47.488   1.850   6.792  0.00  0.00    +0.000 C 
ATOM     27  O   UNL     1      47.358   0.675   6.476  0.00  0.00    +0.000 OA
ATOM     28  H   UNL     1      49.283   2.069   5.873  0.00  0.00    +0.000 HD
ATOM     29  H   UNL     1      48.839   3.448   6.814  0.00  0.00    +0.000 HD
ENDBRANCH  17  26
ENDBRANCH  16  21
ENDBRANCH   1  16
TORSDOF 6
ENDMDL
MODEL 2
REMARK VINA RESULT:    -8.752      2.117      3.464
REMARK INTER + INTRA:         -12.767
REMARK INTER:                 -11.795
REMARK INTRA:                  -0.972
REMARK UNBOUND:                -0.946
REMARK  Name = 
REMARK  6 active torsions:
REMARK  status: ('A' for Active; 'I' for Inactive)
REMARK    1  A    between atoms: C_2  and  C_4
REMARK    2  A    between atoms: N_8  and  C_9
REMARK    3  A    between atoms: C_9  and  C_10
REMARK    4  A    between atoms: C_10  and  C_13
REMARK    5  A    between atoms: C_18  and  O_19
REMARK    6  A    between atoms: O_19  and  C_20
REMARK                            x       y       z     vdW  Elec       q    Type
REMARK                         _______ _______ _______ _____ _____    ______ ____
ROOT
ATOM      1  C   UNL     1      43.336   5.604  12.046  0.00  0.00    +0.000 C 
ATOM      2  F   UNL     1      42.837   6.700  11.397  0.00  0.00    +0.000 F 
ATOM      3  F   UNL     1      42.526   5.426  13.130  0.00  0.00    +0.000 F 
ENDROOT
BRANCH   1   4
ATOM      4  C   UNL     1      44.786   5.801  12.460  0.00  0.00    +0.000 A 
ATOM      5  C   UNL     1      45.406   4.917  13.355  0.00  0.00    +0.000 A 
ATOM      6  C   UNL     1      46.736   5.117  13.736  0.00  0.00    +0.000 A 
ATOM      7  C   UNL     1      47.450   6.206  13.237  0.00  0.00    +0.000 A 
ATOM      8  F   UNL     1      48.723   6.354  13.628  0.00  0.00    +0.000 F 
ATOM      9  C   UNL     1      46.853   7.101  12.352  0.00  0.00    +0.000 A 
ATOM     10  C   UNL     1      45.527   6.886  11.957  0.00  0.00    +0.000 A 
BRANCH   9  11
ATOM     11  O   UNL     1      47.453   8.197  11.783  0.00  0.00    +0.000 OA
BRANCH  11  12
ATOM     12  C   UNL     1      47.393   9.463  12.468  0.00  0.00    +0.000 C 
ATOM     13  C   UNL     1      47.999  10.680  11.748  0.00  0.00    +0.000 C 
ATOM     14  C   UNL     1      48.763  10.895  13.047  0.00  0.00    +0.000 C 
ATOM     15  O   UNL     1      48.405   9.573  13.515  0.00  0.00    +0.000 OA
ENDBRANCH  11  12
ENDBRANCH   9  11
ENDBRANCH   1   4
BRANCH   1  16
ATOM     16  C   UNL     1      43.196   4.378  11.103  0.00  0.00    +0.000 C 
BRANCH  16  21
ATOM     17  C   UNL     1      46.460   2.452   7.678  0.00  0.00    +0.000 A 
ATOM     18  C   UNL     1      45.657   1.792   8.602  0.00  0.00    +0.000 A 
ATOM     19  C   UNL     1      44.704   2.520   9.319  0.00  0.00    +0.000 A 
ATOM     20  C   UNL     1      44.584   3.892   9.115  0.00  0.00    +0.000 A 
ATOM     21  N   UNL     1      43.609   4.662   9.722  0.00  0.00    +0.000 N 
ATOM     22  N   UNL     1      45.377   4.545   8.244  0.00  0.00    +0.000 NA
ATOM     23  C   UNL     1      46.297   3.822   7.550  0.00  0.00    +0.000 A 
ATOM     24  H   UNL     1      43.798   5.642   9.512  0.00  0.00    +0.000 HD
BRANCH  17  26
ATOM     25  N   UNL     1      48.540   2.489   6.424  0.00  0.00    +0.000 N 
ATOM     26  C   UNL     1      47.466   1.757   6.848  0.00  0.00    +0.000 C 
ATOM     27  O   UNL     1      47.362   0.568   6.578  0.00  0.00    +0.000 OA
ATOM     28  H   UNL     1      49.271   1.973   5.950  0.00  0.00    +0.000 HD
ATOM     29  H   UNL     1      48.787   3.380   6.828  0.00  0.00    +0.000 HD
ENDBRANCH  17  26
ENDBRANCH  16  21
ENDBRANCH   1  16
TORSDOF 6
ENDMDL
MODEL 3
REMARK VINA RESULT:    -8.103      3.424      7.706
REMARK INTER + INTRA:         -11.891
REMARK INTER:                 -11.009
REMARK INTRA:                  -0.882
REMARK UNBOUND:                -0.946
REMARK  Name = 
REMARK  6 active torsions:
REMARK  status: ('A' for Active; 'I' for Inactive)
REMARK    1  A    between atoms: C_2  and  C_4
REMARK    2  A    between atoms: N_8  and  C_9
REMARK    3  A    between atoms: C_9  and  C_10
REMARK    4  A    between atoms: C_10  and  C_13
REMARK    5  A    between atoms: C_18  and  O_19
REMARK    6  A    between atoms: O_19  and  C_20
REMARK                            x       y       z     vdW  Elec       q    Type
REMARK                         _______ _______ _______ _____ _____    ______ ____
ROOT
ATOM      1  C   UNL     1      45.935   6.611  11.575  0.00  0.00    +0.000 C 
ATOM      2  F   UNL     1      45.168   7.698  11.252  0.00  0.00    +0.000 F 
ATOM      3  F   UNL     1      47.202   6.933  11.179  0.00  0.00    +0.000 F 
ENDROOT
BRANCH   1   4
ATOM      4  C   UNL     1      45.442   5.345  10.893  0.00  0.00    +0.000 A 
ATOM      5  C   UNL     1      44.804   4.334  11.627  0.00  0.00    +0.000 A 
ATOM      6  C   UNL     1      44.366   3.170  10.990  0.00  0.00    +0.000 A 
ATOM      7  C   UNL     1      44.573   3.002   9.621  0.00  0.00    +0.000 A 
ATOM      8  F   UNL     1      44.133   1.871   9.053  0.00  0.00    +0.000 F 
ATOM      9  C   UNL     1      45.210   3.989   8.873  0.00  0.00    +0.000 A 
ATOM     10  C   UNL     1      45.629   5.163   9.511  0.00  0.00    +0.000 A 
BRANCH   9  11
ATOM     11  O   UNL     1      45.458   3.949   7.523  0.00  0.00    +0.000 OA
BRANCH  11  12
ATOM     12  C   UNL     1      46.761   3.542   7.062  0.00  0.00    +0.000 C 
ATOM     13  C   UNL     1      46.849   2.946   5.647  0.00  0.00    +0.000 C 
ATOM     14  C   UNL     1      47.590   1.801   6.325  0.00  0.00    +0.000 C 
ATOM     15  O   UNL     1      47.174   2.263   7.631  0.00  0.00    +0.000 OA
ENDBRANCH  11  12
ENDBRANCH   9  11
ENDBRANCH   1   4
BRANCH   1  16
ATOM     16  C   UNL     1      45.915   6.447  13.120  0.00  0.00    +0.000 C 
BRANCH  16  21
ATOM     17  C   UNL     1      48.401   3.930  16.803  0.00  0.00    +0.000 A 
ATOM     18  C   UNL     1      47.479   3.456  15.877  0.00  0.00    +0.000 A 
ATOM     19  C   UNL     1      47.061   4.296  14.841  0.00  0.00    +0.000 A 
ATOM     20  C   UNL     1      47.556   5.594  14.760  0.00  0.00    +0.000 A 
ATOM     21  N   UNL     1      47.256   6.453  13.719  0.00  0.00    +0.000 N 
ATOM     22  N   UNL     1      48.427   6.073  15.670  0.00  0.00    +0.000 NA
ATOM     23  C   UNL     1      48.828   5.242  16.670  0.00  0.00    +0.000 A 
ATOM     24  H   UNL     1      47.635   7.373  13.942  0.00  0.00    +0.000 HD
BRANCH  17  26
ATOM     25  N   UNL     1      48.247   3.131  19.092  0.00  0.00    +0.000 N 
ATOM     26  C   UNL     1      48.929   3.101  17.907  0.00  0.00    +0.000 C 
ATOM     27  O   UNL     1      49.913   2.390  17.760  0.00  0.00    +0.000 OA
ATOM     28  H   UNL     1      48.557   2.477  19.800  0.00  0.00    +0.000 HD
ATOM     29  H   UNL     1      47.310   3.495  19.174  0.00  0.00    +0.000 HD
ENDBRANCH  17  26
ENDBRANCH  16  21
ENDBRANCH   1  16
TORSDOF 6
ENDMDL
MODEL 4
REMARK VINA RESULT:    -7.874      2.557      3.261
REMARK INTER + INTRA:         -11.582
REMARK INTER:                 -10.489
REMARK INTRA:                  -1.092
REMARK UNBOUND:                -0.946
REMARK  Name = 
REMARK  6 active torsions:
REMARK  status: ('A' for Active; 'I' for Inactive)
REMARK    1  A    between atoms: C_2  and  C_4
REMARK    2  A    between atoms: N_8  and  C_9
REMARK    3  A    between atoms: C_9  and  C_10
REMARK    4  A    between atoms: C_10  and  C_13
REMARK    5  A    between atoms: C_18  and  O_19
REMARK    6  A    between atoms: O_19  and  C_20
REMARK                            x       y       z     vdW  Elec       q    Type
REMARK                         _______ _______ _______ _____ _____    ______ ____
ROOT
ATOM      1  C   UNL     1      43.639   4.569  12.612  0.00  0.00    +0.000 C 
ATOM      2  F   UNL     1      42.424   4.823  13.187  0.00  0.00    +0.000 F 
ATOM      3  F   UNL     1      44.259   3.688  13.450  0.00  0.00    +0.000 F 
ENDROOT
BRANCH   1   4
ATOM      4  C   UNL     1      44.458   5.838  12.431  0.00  0.00    +0.000 A 
ATOM      5  C   UNL     1      44.070   6.820  11.507  0.00  0.00    +0.000 A 
ATOM      6  C   UNL     1      44.839   7.975  11.343  0.00  0.00    +0.000 A 
ATOM      7  C   UNL     1      46.004   8.152  12.089  0.00  0.00    +0.000 A 
ATOM      8  F   UNL     1      46.706   9.278  11.900  0.00  0.00    +0.000 F 
ATOM      9  C   UNL     1      46.412   7.188  13.007  0.00  0.00    +0.000 A 
ATOM     10  C   UNL     1      45.629   6.041  13.183  0.00  0.00    +0.000 A 
BRANCH   9  11
ATOM     11  O   UNL     1      47.526   7.252  13.807  0.00  0.00    +0.000 OA
BRANCH  11  12
ATOM     12  C   UNL     1      48.827   7.086  13.213  0.00  0.00    +0.000 C 
ATOM     13  C   UNL     1      49.645   8.361  12.947  0.00  0.00    +0.000 C 
ATOM     14  C   UNL     1      49.788   7.810  11.535  0.00  0.00    +0.000 C 
ATOM     15  O   UNL     1      48.750   6.832  11.776  0.00  0.00    +0.000 OA
ENDBRANCH  11  12
ENDBRANCH   9  11
ENDBRANCH   1   4
BRANCH   1  16
ATOM     16  C   UNL     1      43.391   3.877  11.243  0.00  0.00    +0.000 C 
BRANCH  16  21
ATOM     17  C   UNL     1      46.547   2.875   7.354  0.00  0.00    +0.000 A 
ATOM     18  C   UNL     1      46.166   4.100   7.891  0.00  0.00    +0.000 A 
ATOM     19  C   UNL     1      45.427   4.125   9.076  0.00  0.00    +0.000 A 
ATOM     20  C   UNL     1      45.067   2.930   9.692  0.00  0.00    +0.000 A 
ATOM     21  N   UNL     1      44.412   2.876  10.909  0.00  0.00    +0.000 N 
ATOM     22  N   UNL     1      45.405   1.737   9.165  0.00  0.00    +0.000 NA
ATOM     23  C   UNL     1      46.129   1.729   8.013  0.00  0.00    +0.000 A 
ATOM     24  H   UNL     1      44.155   1.906  11.092  0.00  0.00    +0.000 HD
BRANCH  17  26
ATOM     25  N   UNL     1      48.688   2.457   6.285  0.00  0.00    +0.000 N 
ATOM     26  C   UNL     1      47.362   2.754   6.128  0.00  0.00    +0.000 C 
ATOM     27  O   UNL     1      46.868   2.879   5.016  0.00  0.00    +0.000 OA
ATOM     28  H   UNL     1      49.206   2.270   5.436  0.00  0.00    +0.000 HD
ATOM     29  H   UNL     1      49.068   2.101   7.149  0.00  0.00    +0.000 HD
ENDBRANCH  17  26
ENDBRANCH  16  21
ENDBRANCH   1  16
TORSDOF 6
ENDMDL
MODEL 5
REMARK VINA RESULT:    -6.925      3.235      7.060
REMARK INTER + INTRA:         -10.300
REMARK INTER:                  -9.700
REMARK INTRA:                  -0.600
REMARK UNBOUND:                -0.946
REMARK  Name = 
REMARK  6 active torsions:
REMARK  status: ('A' for Active; 'I' for Inactive)
REMARK    1  A    between atoms: C_2  and  C_4
REMARK    2  A    between atoms: N_8  and  C_9
REMARK    3  A    between atoms: C_9  and  C_10
REMARK    4  A    between atoms: C_10  and  C_13
REMARK    5  A    between atoms: C_18  and  O_19
REMARK    6  A    between atoms: O_19  and  C_20
REMARK                            x       y       z     vdW  Elec       q    Type
REMARK                         _______ _______ _______ _____ _____    ______ ____
ROOT
ATOM      1  C   UNL     1      46.048   7.554  12.146  0.00  0.00    +0.000 C 
ATOM      2  F   UNL     1      46.032   7.985  13.445  0.00  0.00    +0.000 F 
ATOM      3  F   UNL     1      45.661   8.632  11.403  0.00  0.00    +0.000 F 
ENDROOT
BRANCH   1   4
ATOM      4  C   UNL     1      45.122   6.367  11.930  0.00  0.00    +0.000 A 
ATOM      5  C   UNL     1      44.227   5.960  12.930  0.00  0.00    +0.000 A 
ATOM      6  C   UNL     1      43.391   4.860  12.722  0.00  0.00    +0.000 A 
ATOM      7  C   UNL     1      43.452   4.153  11.521  0.00  0.00    +0.000 A 
ATOM      8  F   UNL     1      42.628   3.107  11.366  0.00  0.00    +0.000 F 
ATOM      9  C   UNL     1      44.337   4.534  10.517  0.00  0.00    +0.000 A 
ATOM     10  C   UNL     1      45.160   5.649  10.721  0.00  0.00    +0.000 A 
BRANCH   9  11
ATOM     11  O   UNL     1      44.480   3.931   9.292  0.00  0.00    +0.000 OA
BRANCH  11  12
ATOM     12  C   UNL     1      45.724   3.276   8.973  0.00  0.00    +0.000 C 
ATOM     13  C   UNL     1      46.034   3.045   7.485  0.00  0.00    +0.000 C 
ATOM     14  C   UNL     1      46.279   1.602   7.901  0.00  0.00    +0.000 C 
ATOM     15  O   UNL     1      45.660   1.833   9.188  0.00  0.00    +0.000 OA
ENDBRANCH  11  12
ENDBRANCH   9  11
ENDBRANCH   1   4
BRANCH   1  16
ATOM     16  C   UNL     1      47.511   7.184  11.777  0.00  0.00    +0.000 C 
BRANCH  16  21
ATOM     17  C   UNL     1      47.598   4.517  16.133  0.00  0.00    +0.000 A 
ATOM     18  C   UNL     1      47.190   4.123  14.863  0.00  0.00    +0.000 A 
ATOM     19  C   UNL     1      47.425   4.972  13.778  0.00  0.00    +0.000 A 
ATOM     20  C   UNL     1      48.044   6.202  13.983  0.00  0.00    +0.000 A 
ATOM     21  N   UNL     1      48.386   7.055  12.950  0.00  0.00    +0.000 N 
ATOM     22  N   UNL     1      48.416   6.606  15.213  0.00  0.00    +0.000 NA
ATOM     23  C   UNL     1      48.184   5.767  16.258  0.00  0.00    +0.000 A 
ATOM     24  H   UNL     1      48.714   7.932  13.354  0.00  0.00    +0.000 HD
BRANCH  17  26
ATOM     25  N   UNL     1      48.365   3.786  18.319  0.00  0.00    +0.000 N 
ATOM     26  C   UNL     1      47.426   3.669  17.330  0.00  0.00    +0.000 C 
ATOM     27  O   UNL     1      46.469   2.917  17.451  0.00  0.00    +0.000 OA
ATOM     28  H   UNL     1      48.174   3.281  19.175  0.00  0.00    +0.000 HD
ATOM     29  H   UNL     1      49.010   4.560  18.369  0.00  0.00    +0.000 HD
ENDBRANCH  17  26
ENDBRANCH  16  21
ENDBRANCH   1  16
TORSDOF 6
ENDMDL
