MODEL 1
REMARK VINA RESULT:    -7.473      0.000      0.000
REMARK INTER + INTRA:          -9.024
REMARK INTER:                  -8.784
REMARK INTRA:                  -0.240
REMARK UNBOUND:                -0.240
REMARK  Name = 
REMARK  3 active torsions:
REMARK  status: ('A' for Active; 'I' for Inactive)
REMARK    1  A    between atoms: C_2  and  C_4
REMARK    2  A    between atoms: N_8  and  C_9
REMARK    3  A    between atoms: C_9  and  C_10
REMARK                            x       y       z     vdW  Elec       q    Type
REMARK                         _______ _______ _______ _____ _____    ______ ____
ROOT
ATOM      1  C   UNL     1      46.575   2.604   7.413  0.00  0.00    +0.000 A 
ATOM      2  C   UNL     1      45.998   1.620   8.212  0.00  0.00    +0.000 A 
ATOM      3  C   UNL     1      45.071   1.995   9.187  0.00  0.00    +0.000 A 
ATOM      4  C   UNL     1      44.769   3.343   9.377  0.00  0.00    +0.000 A 
ATOM      5  N   UNL     1      43.861   3.665  10.389  0.00  0.00    +0.000 N 
ATOM      6  N   UNL     1      45.338   4.305   8.626  0.00  0.00    +0.000 NA
ATOM      7  C   UNL     1      46.219   3.921   7.663  0.00  0.00    +0.000 A 
ATOM      8  H   UNL     1      42.933   3.314  10.158  0.00  0.00    +0.000 HD
ENDROOT
BRANCH   1  10
ATOM      9  N   UNL     1      47.532   3.101   5.231  0.00  0.00    +0.000 N 
ATOM     10  C   UNL     1      47.559   2.312   6.351  0.00  0.00    +0.000 C 
ATOM     11  O   UNL     1      48.394   1.426   6.476  0.00  0.00    +0.000 OA
ATOM     12  H   UNL     1      48.264   2.949   4.555  0.00  0.00    +0.000 HD
ATOM     13  H   UNL     1      47.025   3.971   5.185  0.00  0.00    +0.000 HD
ENDBRANCH   1  10
BRANCH   5  14
ATOM     14  C   UNL     1      43.788   5.087  10.744  0.00  0.00    +0.000 C 
BRANCH  14  15
ATOM     15  C   UNL     1      44.916   5.470  11.696  0.00  0.00    +0.000 A 
ATOM     16  N   UNL     1      45.051   4.765  12.841  0.00  0.00    +0.000 NA
ATOM     17  C   UNL     1      46.071   5.115  13.647  0.00  0.00    +0.000 A 
ATOM     18  C   UNL     1      46.959   6.123  13.355  0.00  0.00    +0.000 A 
ATOM     19  C   UNL     1      46.746   6.776  12.165  0.00  0.00    +0.000 A 
ATOM     20  N   UNL     1      45.744   6.475  11.317  0.00  0.00    +0.000 NA
ENDBRANCH  14  15
ENDBRANCH   5  14
TORSDOF 3
ENDMDL
MODEL 2
REMARK VINA RESULT:    -7.434      2.657      6.229
REMARK INTER + INTRA:          -8.978
REMARK INTER:                  -8.691
REMARK INTRA:                  -0.287
REMARK UNBOUND:                -0.240
REMARK  Name = 
REMARK  3 active torsions:
REMARK  status: ('A' for Active; 'I' for Inactive)
REMARK    1  A    between atoms: C_2  and  C_4
REMARK    2  A    between atoms: N_8  and  C_9
REMARK    3  A    between atoms: C_9  and  C_10
REMARK                            x       y       z     vdW  Elec       q    Type
REMARK                         _______ _______ _______ _____ _____    ______ ____
ROOT
ATOM      1  C   UNL     1      46.621   4.719  13.600  0.00  0.00    +0.000 A 
ATOM      2  C   UNL     1      46.839   5.907  12.905  0.00  0.00    +0.000 A 
ATOM      3  C   UNL     1      46.207   6.098  11.674  0.00  0.00    +0.000 A 
ATOM      4  C   UNL     1      45.406   5.090  11.139  0.00  0.00    +0.000 A 
ATOM      5  N   UNL     1      44.826   5.320   9.890  0.00  0.00    +0.000 N 
ATOM      6  N   UNL     1      45.206   3.929  11.792  0.00  0.00    +0.000 NA
ATOM      7  C   UNL     1      45.807   3.768  13.002  0.00  0.00    +0.000 A 
ATOM      8  H   UNL     1      44.138   6.069   9.950  0.00  0.00    +0.000 HD
ENDROOT
BRANCH   1  10
ATOM      9  N   UNL     1      47.487   5.481  15.743  0.00  0.00    +0.000 N 
ATOM     10  C   UNL     1      47.235   4.423  14.910  0.00  0.00    +0.000 C 
ATOM     11  O   UNL     1      47.476   3.275  15.260  0.00  0.00    +0.000 OA
ATOM     12  H   UNL     1      47.822   5.257  16.667  0.00  0.00    +0.000 HD
ATOM     13  H   UNL     1      47.101   6.400  15.595  0.00  0.00    +0.000 HD
ENDBRANCH   1  10
BRANCH   5  14
ATOM     14  C   UNL     1      44.234   4.144   9.241  0.00  0.00    +0.000 C 
BRANCH  14  15
ATOM     15  C   UNL     1      45.283   3.376   8.444  0.00  0.00    +0.000 A 
ATOM     16  N   UNL     1      46.019   4.055   7.536  0.00  0.00    +0.000 NA
ATOM     17  C   UNL     1      46.951   3.351   6.868  0.00  0.00    +0.000 A 
ATOM     18  C   UNL     1      47.185   2.012   7.074  0.00  0.00    +0.000 A 
ATOM     19  C   UNL     1      46.394   1.410   8.022  0.00  0.00    +0.000 A 
ATOM     20  N   UNL     1      45.444   2.059   8.723  0.00  0.00    +0.000 NA
ENDBRANCH  14  15
ENDBRANCH   5  14
TORSDOF 3
ENDMDL
MODEL 3
REMARK VINA RESULT:    -7.030      2.846      6.276
REMARK INTER + INTRA:          -8.503
REMARK INTER:                  -8.248
REMARK INTRA:                  -0.255
REMARK UNBOUND:                -0.240
REMARK  Name = 
REMARK  3 active torsions:
REMARK  status: ('A' for Active; 'I' for Inactive)
REMARK    1  A    between atoms: C_2  and  C_4
REMARK    2  A    between atoms: N_8  and  C_9
REMARK    3  A    between atoms: C_9  and  C_10
REMARK                            x       y       z     vdW  Elec       q    Type
REMARK                         _______ _______ _______ _____ _____    ______ ____
ROOT
ATOM      1  C   UNL     1      45.783   6.672  12.596  0.00  0.00    +0.000 A 
ATOM      2  C   UNL     1      45.883   5.544  13.408  0.00  0.00    +0.000 A 
ATOM      3  C   UNL     1      45.624   4.288  12.857  0.00  0.00    +0.000 A 
ATOM      4  C   UNL     1      45.229   4.180  11.524  0.00  0.00    +0.000 A 
ATOM      5  N   UNL     1      44.948   2.903  11.035  0.00  0.00    +0.000 N 
ATOM      6  N   UNL     1      45.106   5.266  10.737  0.00  0.00    +0.000 NA
ATOM      7  C   UNL     1      45.389   6.480  11.281  0.00  0.00    +0.000 A 
ATOM      8  H   UNL     1      45.796   2.339  11.006  0.00  0.00    +0.000 HD
ENDROOT
BRANCH   1  10
ATOM      9  N   UNL     1      45.056   8.975  12.898  0.00  0.00    +0.000 N 
ATOM     10  C   UNL     1      46.044   8.044  13.079  0.00  0.00    +0.000 C 
ATOM     11  O   UNL     1      47.085   8.335  13.653  0.00  0.00    +0.000 OA
ATOM     12  H   UNL     1      45.209   9.882  13.310  0.00  0.00    +0.000 HD
ATOM     13  H   UNL     1      44.111   8.731  12.643  0.00  0.00    +0.000 HD
ENDBRANCH   1  10
BRANCH   5  14
ATOM     14  C   UNL     1      44.270   2.858   9.734  0.00  0.00    +0.000 C 
BRANCH  14  15
ATOM     15  C   UNL     1      45.264   2.583   8.610  0.00  0.00    +0.000 A 
ATOM     16  N   UNL     1      45.492   3.562   7.707  0.00  0.00    +0.000 NA
ATOM     17  C   UNL     1      46.392   3.294   6.743  0.00  0.00    +0.000 A 
ATOM     18  C   UNL     1      47.075   2.104   6.650  0.00  0.00    +0.000 A 
ATOM     19  C   UNL     1      46.783   1.175   7.618  0.00  0.00    +0.000 A 
ATOM     20  N   UNL     1      45.892   1.382   8.607  0.00  0.00    +0.000 NA
ENDBRANCH  14  15
ENDBRANCH   5  14
TORSDOF 3
ENDMDL
MODEL 4
REMARK VINA RESULT:    -6.688      2.726      6.133
REMARK INTER + INTRA:          -8.101
REMARK INTER:                  -7.872
REMARK INTRA:                  -0.230
REMARK UNBOUND:                -0.240
REMARK  Name = 
REMARK  3 active torsions:
REMARK  status: ('A' for Active; 'I' for Inactive)
REMARK    1  A    between atoms: C_2  and  C_4
REMARK    2  A    between atoms: N_8  and  C_9
REMARK    3  A    between atoms: C_9  and  C_10
REMARK                            x       y       z     vdW  Elec       q    Type
REMARK                         _______ _______ _______ _____ _____    ______ ____
ROOT
ATOM      1  C   UNL     1      46.682   6.361  12.970  0.00  0.00    +0.000 A 
ATOM      2  C   UNL     1      46.427   5.211  13.714  0.00  0.00    +0.000 A 
ATOM      3  C   UNL     1      45.852   4.107  13.081  0.00  0.00    +0.000 A 
ATOM      4  C   UNL     1      45.502   4.182  11.733  0.00  0.00    +0.000 A 
ATOM      5  N   UNL     1      44.898   3.061  11.159  0.00  0.00    +0.000 N 
ATOM      6  N   UNL     1      45.723   5.297  11.010  0.00  0.00    +0.000 NA
ATOM      7  C   UNL     1      46.309   6.354  11.634  0.00  0.00    +0.000 A 
ATOM      8  H   UNL     1      45.556   2.284  11.121  0.00  0.00    +0.000 HD
ENDROOT
BRANCH   1  10
ATOM      9  N   UNL     1      46.478   8.660  13.741  0.00  0.00    +0.000 N 
ATOM     10  C   UNL     1      47.294   7.578  13.542  0.00  0.00    +0.000 C 
ATOM     11  O   UNL     1      48.474   7.612  13.863  0.00  0.00    +0.000 OA
ATOM     12  H   UNL     1      46.886   9.451  14.213  0.00  0.00    +0.000 HD
ATOM     13  H   UNL     1      45.472   8.603  13.708  0.00  0.00    +0.000 HD
ENDBRANCH   1  10
BRANCH   5  14
ATOM     14  C   UNL     1      44.293   3.275   9.839  0.00  0.00    +0.000 C 
BRANCH  14  15
ATOM     15  C   UNL     1      45.261   2.883   8.727  0.00  0.00    +0.000 A 
ATOM     16  N   UNL     1      45.809   1.648   8.764  0.00  0.00    +0.000 NA
ATOM     17  C   UNL     1      46.640   1.328   7.755  0.00  0.00    +0.000 A 
ATOM     18  C   UNL     1      46.934   2.177   6.714  0.00  0.00    +0.000 A 
ATOM     19  C   UNL     1      46.322   3.406   6.759  0.00  0.00    +0.000 A 
ATOM     20  N   UNL     1      45.483   3.786   7.741  0.00  0.00    +0.000 NA
ENDBRANCH  14  15
ENDBRANCH   5  14
TORSDOF 3
ENDMDL
MODEL 5
REMARK VINA RESULT:    -6.403      4.038      5.966
REMARK INTER + INTRA:          -7.766
REMARK INTER:                  -7.517
REMARK INTRA:                  -0.249
REMARK UNBOUND:                -0.240
REMARK  Name = 
REMARK  3 active torsions:
REMARK  status: ('A' for Active; 'I' for Inactive)
REMARK    1  A    between atoms: C_2  and  C_4
REMARK    2  A    between atoms: N_8  and  C_9
REMARK    3  A    between atoms: C_9  and  C_10
REMARK                            x       y       z     vdW  Elec       q    Type
REMARK                         _______ _______ _______ _____ _____    ______ ____
ROOT
ATOM      1  C   UNL     1      45.200   4.470  11.549  0.00  0.00    +0.000 A 
ATOM      2  C   UNL     1      45.642   5.749  11.880  0.00  0.00    +0.000 A 
ATOM      3  C   UNL     1      46.344   5.937  13.072  0.00  0.00    +0.000 A 
ATOM      4  C   UNL     1      46.557   4.860  13.931  0.00  0.00    +0.000 A 
ATOM      5  N   UNL     1      47.235   5.110  15.126  0.00  0.00    +0.000 N 
ATOM      6  N   UNL     1      46.115   3.623  13.632  0.00  0.00    +0.000 NA
ATOM      7  C   UNL     1      45.456   3.451  12.455  0.00  0.00    +0.000 A 
ATOM      8  H   UNL     1      48.202   5.371  14.937  0.00  0.00    +0.000 HD
ENDROOT
BRANCH   1  10
ATOM      9  N   UNL     1      44.847   4.806   9.165  0.00  0.00    +0.000 N 
ATOM     10  C   UNL     1      44.456   4.164  10.310  0.00  0.00    +0.000 C 
ATOM     11  O   UNL     1      43.550   3.341  10.293  0.00  0.00    +0.000 OA
ATOM     12  H   UNL     1      44.391   4.523   8.311  0.00  0.00    +0.000 HD
ATOM     13  H   UNL     1      45.718   5.307   9.086  0.00  0.00    +0.000 HD
ENDBRANCH   1  10
BRANCH   5  14
ATOM     14  C   UNL     1      47.189   4.030  16.118  0.00  0.00    +0.000 C 
BRANCH  14  15
ATOM     15  C   UNL     1      48.589   3.692  16.622  0.00  0.00    +0.000 A 
ATOM     16  N   UNL     1      49.354   4.697  17.102  0.00  0.00    +0.000 NA
ATOM     17  C   UNL     1      50.574   4.360  17.558  0.00  0.00    +0.000 A 
ATOM     18  C   UNL     1      51.054   3.072  17.566  0.00  0.00    +0.000 A 
ATOM     19  C   UNL     1      50.200   2.118  17.066  0.00  0.00    +0.000 A 
ATOM     20  N   UNL     1      48.969   2.391  16.594  0.00  0.00    +0.000 NA
ENDBRANCH  14  15
ENDBRANCH   5  14
TORSDOF 3
ENDMDL
MODEL 6
REMARK VINA RESULT:    -5.553      3.435      5.203
REMARK INTER + INTRA:          -6.767
REMARK INTER:                  -6.527
REMARK INTRA:                  -0.240
REMARK UNBOUND:                -0.240
REMARK  Name = 
REMARK  3 active torsions:
REMARK  status: ('A' for Active; 'I' for Inactive)
REMARK    1  A    between atoms: C_2  and  C_4
REMARK    2  A    between atoms: N_8  and  C_9
REMARK    3  A    between atoms: C_9  and  C_10
REMARK                            x       y       z     vdW  Elec       q    Type
REMARK                         _______ _______ _______ _____ _____    ______ ____
ROOT
ATOM      1  C   UNL     1      45.019   4.204  11.071  0.00  0.00    +0.000 A 
ATOM      2  C   UNL     1      45.214   3.517  12.268  0.00  0.00    +0.000 A 
ATOM      3  C   UNL     1      45.921   4.139  13.299  0.00  0.00    +0.000 A 
ATOM      4  C   UNL     1      46.456   5.412  13.106  0.00  0.00    +0.000 A 
ATOM      5  N   UNL     1      47.183   5.973  14.158  0.00  0.00    +0.000 N 
ATOM      6  N   UNL     1      46.293   6.076  11.946  0.00  0.00    +0.000 NA
ATOM      7  C   UNL     1      45.579   5.468  10.961  0.00  0.00    +0.000 A 
ATOM      8  H   UNL     1      46.572   6.164  14.951  0.00  0.00    +0.000 HD
ENDROOT
BRANCH   1  10
ATOM      9  N   UNL     1      44.050   4.463   8.854  0.00  0.00    +0.000 N 
ATOM     10  C   UNL     1      44.280   3.639   9.923  0.00  0.00    +0.000 C 
ATOM     11  O   UNL     1      43.918   2.470   9.906  0.00  0.00    +0.000 OA
ATOM     12  H   UNL     1      43.625   4.042   8.043  0.00  0.00    +0.000 HD
ATOM     13  H   UNL     1      44.520   5.346   8.730  0.00  0.00    +0.000 HD
ENDBRANCH   1  10
BRANCH   5  14
ATOM     14  C   UNL     1      47.961   7.171  13.822  0.00  0.00    +0.000 C 
BRANCH  14  15
ATOM     15  C   UNL     1      49.292   7.183  14.566  0.00  0.00    +0.000 A 
ATOM     16  N   UNL     1      50.272   7.994  14.108  0.00  0.00    +0.000 NA
ATOM     17  C   UNL     1      51.425   7.997  14.801  0.00  0.00    +0.000 A 
ATOM     18  C   UNL     1      51.636   7.239  15.929  0.00  0.00    +0.000 A 
ATOM     19  C   UNL     1      50.579   6.454  16.322  0.00  0.00    +0.000 A 
ATOM     20  N   UNL     1      49.401   6.406  15.671  0.00  0.00    +0.000 NA
ENDBRANCH  14  15
ENDBRANCH   5  14
TORSDOF 3
ENDMDL
MODEL 7
REMARK VINA RESULT:    -5.400      3.308      6.335
REMARK INTER + INTRA:          -6.587
REMARK INTER:                  -6.306
REMARK INTRA:                  -0.281
REMARK UNBOUND:                -0.240
REMARK  Name = 
REMARK  3 active torsions:
REMARK  status: ('A' for Active; 'I' for Inactive)
REMARK    1  A    between atoms: C_2  and  C_4
REMARK    2  A    between atoms: N_8  and  C_9
REMARK    3  A    between atoms: C_9  and  C_10
REMARK                            x       y       z     vdW  Elec       q    Type
REMARK                         _______ _______ _______ _____ _____    ______ ____
ROOT
ATOM      1  C   UNL     1      48.791   7.492  13.082  0.00  0.00    +0.000 A 
ATOM      2  C   UNL     1      48.247   6.651  14.051  0.00  0.00    +0.000 A 
ATOM      3  C   UNL     1      47.154   5.849  13.716  0.00  0.00    +0.000 A 
ATOM      4  C   UNL     1      46.596   5.929  12.441  0.00  0.00    +0.000 A 
ATOM      5  N   UNL     1      45.483   5.130  12.171  0.00  0.00    +0.000 N 
ATOM      6  N   UNL     1      47.100   6.756  11.503  0.00  0.00    +0.000 NA
ATOM      7  C   UNL     1      48.181   7.511  11.836  0.00  0.00    +0.000 A 
ATOM      8  H   UNL     1      45.742   4.145  12.181  0.00  0.00    +0.000 HD
ENDROOT
BRANCH   1  10
ATOM      9  N   UNL     1      51.186   7.787  13.394  0.00  0.00    +0.000 N 
ATOM     10  C   UNL     1      49.950   8.373  13.332  0.00  0.00    +0.000 C 
ATOM     11  O   UNL     1      49.822   9.585  13.441  0.00  0.00    +0.000 OA
ATOM     12  H   UNL     1      51.976   8.408  13.475  0.00  0.00    +0.000 HD
ATOM     13  H   UNL     1      51.363   6.843  13.086  0.00  0.00    +0.000 HD
ENDBRANCH   1  10
BRANCH   5  14
ATOM     14  C   UNL     1      44.761   5.448  10.933  0.00  0.00    +0.000 C 
BRANCH  14  15
ATOM     15  C   UNL     1      45.079   4.433   9.840  0.00  0.00    +0.000 A 
ATOM     16  N   UNL     1      44.683   3.154  10.022  0.00  0.00    +0.000 NA
ATOM     17  C   UNL     1      44.960   2.291   9.028  0.00  0.00    +0.000 A 
ATOM     18  C   UNL     1      45.600   2.649   7.866  0.00  0.00    +0.000 A 
ATOM     19  C   UNL     1      45.956   3.973   7.768  0.00  0.00    +0.000 A 
ATOM     20  N   UNL     1      45.709   4.885   8.728  0.00  0.00    +0.000 NA
ENDBRANCH  14  15
ENDBRANCH   5  14
TORSDOF 3
ENDMDL
MODEL 8
REMARK VINA RESULT:    -5.332      2.937      4.345
REMARK INTER + INTRA:          -6.508
REMARK INTER:                  -6.369
REMARK INTRA:                  -0.139
REMARK UNBOUND:                -0.240
REMARK  Name = 
REMARK  3 active torsions:
REMARK  status: ('A' for Active; 'I' for Inactive)
REMARK    1  A    between atoms: C_2  and  C_4
REMARK    2  A    between atoms: N_8  and  C_9
REMARK    3  A    between atoms: C_9  and  C_10
REMARK                            x       y       z     vdW  Elec       q    Type
REMARK                         _______ _______ _______ _____ _____    ______ ____
ROOT
ATOM      1  C   UNL     1      44.726   3.914   9.765  0.00  0.00    +0.000 A 
ATOM      2  C   UNL     1      43.791   3.846  10.795  0.00  0.00    +0.000 A 
ATOM      3  C   UNL     1      43.719   4.893  11.717  0.00  0.00    +0.000 A 
ATOM      4  C   UNL     1      44.605   5.966  11.621  0.00  0.00    +0.000 A 
ATOM      5  N   UNL     1      44.512   6.968  12.589  0.00  0.00    +0.000 N 
ATOM      6  N   UNL     1      45.528   6.031  10.643  0.00  0.00    +0.000 NA
ATOM      7  C   UNL     1      45.568   5.016   9.737  0.00  0.00    +0.000 A 
ATOM      8  H   UNL     1      43.630   7.469  12.498  0.00  0.00    +0.000 HD
ENDROOT
BRANCH   1  10
ATOM      9  N   UNL     1      44.778   1.562   9.146  0.00  0.00    +0.000 N 
ATOM     10  C   UNL     1      44.877   2.865   8.736  0.00  0.00    +0.000 C 
ATOM     11  O   UNL     1      45.045   3.143   7.557  0.00  0.00    +0.000 OA
ATOM     12  H   UNL     1      44.794   0.859   8.423  0.00  0.00    +0.000 HD
ATOM     13  H   UNL     1      44.418   1.295  10.049  0.00  0.00    +0.000 HD
ENDBRANCH   1  10
BRANCH   5  14
ATOM     14  C   UNL     1      45.630   7.919  12.624  0.00  0.00    +0.000 C 
BRANCH  14  15
ATOM     15  C   UNL     1      45.258   9.222  11.923  0.00  0.00    +0.000 A 
ATOM     16  N   UNL     1      46.078  10.285  12.076  0.00  0.00    +0.000 NA
ATOM     17  C   UNL     1      45.732  11.411  11.425  0.00  0.00    +0.000 A 
ATOM     18  C   UNL     1      44.618  11.516  10.626  0.00  0.00    +0.000 A 
ATOM     19  C   UNL     1      43.851  10.381  10.525  0.00  0.00    +0.000 A 
ATOM     20  N   UNL     1      44.143   9.225  11.152  0.00  0.00    +0.000 NA
ENDBRANCH  14  15
ENDBRANCH   5  14
TORSDOF 3
ENDMDL
MODEL 9
REMARK VINA RESULT:    -5.295      3.427      5.212
REMARK INTER + INTRA:          -6.465
REMARK INTER:                  -6.217
REMARK INTRA:                  -0.248
REMARK UNBOUND:                -0.240
REMARK  Name = 
REMARK  3 active torsions:
REMARK  status: ('A' for Active; 'I' for Inactive)
REMARK    1  A    between atoms: C_2  and  C_4
REMARK    2  A    between atoms: N_8  and  C_9
REMARK    3  A    between atoms: C_9  and  C_10
REMARK                            x       y       z     vdW  Elec       q    Type
REMARK                         _______ _______ _______ _____ _____    ______ ____
ROOT
ATOM      1  C   UNL     1      44.738   3.895  11.759  0.00  0.00    +0.000 A 
ATOM      2  C   UNL     1      45.618   3.640  12.808  0.00  0.00    +0.000 A 
ATOM      3  C   UNL     1      46.276   4.711  13.416  0.00  0.00    +0.000 A 
ATOM      4  C   UNL     1      46.081   6.008  12.941  0.00  0.00    +0.000 A 
ATOM      5  N   UNL     1      46.790   7.037  13.563  0.00  0.00    +0.000 N 
ATOM      6  N   UNL     1      45.250   6.263  11.912  0.00  0.00    +0.000 NA
ATOM      7  C   UNL     1      44.595   5.212  11.349  0.00  0.00    +0.000 A 
ATOM      8  H   UNL     1      46.473   7.158  14.524  0.00  0.00    +0.000 HD
ENDROOT
BRANCH   1  10
ATOM      9  N   UNL     1      44.542   2.321   9.913  0.00  0.00    +0.000 N 
ATOM     10  C   UNL     1      43.987   2.835  11.055  0.00  0.00    +0.000 C 
ATOM     11  O   UNL     1      42.929   2.401  11.490  0.00  0.00    +0.000 OA
ATOM     12  H   UNL     1      44.066   1.539   9.492  0.00  0.00    +0.000 HD
ATOM     13  H   UNL     1      45.502   2.481   9.648  0.00  0.00    +0.000 HD
ENDBRANCH   1  10
BRANCH   5  14
ATOM     14  C   UNL     1      46.779   8.327  12.863  0.00  0.00    +0.000 C 
BRANCH  14  15
ATOM     15  C   UNL     1      48.142   8.624  12.246  0.00  0.00    +0.000 A 
ATOM     16  N   UNL     1      48.442   9.908  11.951  0.00  0.00    +0.000 NA
ATOM     17  C   UNL     1      49.662  10.137  11.430  0.00  0.00    +0.000 A 
ATOM     18  C   UNL     1      50.590   9.149  11.203  0.00  0.00    +0.000 A 
ATOM     19  C   UNL     1      50.197   7.877  11.543  0.00  0.00    +0.000 A 
ATOM     20  N   UNL     1      48.991   7.582  12.067  0.00  0.00    +0.000 NA
ENDBRANCH  14  15
ENDBRANCH   5  14
TORSDOF 3
ENDMDL
