MODEL 1
REMARK VINA RESULT:    -8.834      0.000      0.000
REMARK INTER + INTRA:         -12.371
REMARK INTER:                 -11.416
REMARK INTRA:                  -0.955
REMARK UNBOUND:                -0.955
REMARK  Name = 
REMARK  5 active torsions:
REMARK  status: ('A' for Active; 'I' for Inactive)
REMARK    1  A    between atoms: C_2  and  C_4
REMARK    2  A    between atoms: C_7  and  O_8
REMARK    3  A    between atoms: O_8  and  C_9
REMARK    4  A    between atoms: C_9  and  C_10
REMARK    5  A    between atoms: C_14  and  C_15
REMARK                            x       y       z     vdW  Elec       q    Type
REMARK                         _______ _______ _______ _____ _____    ______ ____
ROOT
ATOM      1  C   UNL     1      43.613   4.225  11.179  0.00  0.00    +0.000 C 
ENDROOT
BRANCH   1   2
ATOM      2  C   UNL     1      44.794   4.691  12.002  0.00  0.00    +0.000 A 
ATOM      3  C   UNL     1      45.535   3.758  12.737  0.00  0.00    +0.000 A 
ATOM      4  C   UNL     1      46.682   4.151  13.419  0.00  0.00    +0.000 A 
ATOM      5  C   UNL     1      47.119   5.476  13.347  0.00  0.00    +0.000 A 
ATOM      6  C   UNL     1      46.433   6.432  12.578  0.00  0.00    +0.000 A 
ATOM      7  C   UNL     1      45.252   6.016  11.933  0.00  0.00    +0.000 A 
BRANCH   6   8
ATOM      8  C   UNL     1      46.977   7.791  12.353  0.00  0.00    +0.000 A 
ATOM      9  C   UNL     1      48.322   7.978  11.975  0.00  0.00    +0.000 A 
ATOM     10  C   UNL     1      48.823   9.238  11.633  0.00  0.00    +0.000 A 
ATOM     11  C   UNL     1      47.983  10.346  11.657  0.00  0.00    +0.000 A 
ATOM     12  C   UNL     1      46.663  10.184  12.052  0.00  0.00    +0.000 A 
ATOM     13  F   UNL     1      45.847  11.248  12.065  0.00  0.00    +0.000 F 
ATOM     14  C   UNL     1      46.162   8.935  12.410  0.00  0.00    +0.000 A 
ENDBRANCH   6   8
ENDBRANCH   1   2
BRANCH   1  15
ATOM     15  O   UNL     1      43.690   4.695   9.830  0.00  0.00    +0.000 OA
BRANCH  15  19
ATOM     16  C   UNL     1      46.435   2.492   7.682  0.00  0.00    +0.000 A 
ATOM     17  C   UNL     1      45.550   1.842   8.545  0.00  0.00    +0.000 A 
ATOM     18  C   UNL     1      44.620   2.596   9.264  0.00  0.00    +0.000 A 
ATOM     19  C   UNL     1      44.612   3.973   9.094  0.00  0.00    +0.000 A 
ATOM     20  N   UNL     1      45.454   4.625   8.263  0.00  0.00    +0.000 NA
ATOM     21  C   UNL     1      46.351   3.876   7.585  0.00  0.00    +0.000 A 
BRANCH  16  23
ATOM     22  N   UNL     1      48.534   2.545   6.455  0.00  0.00    +0.000 N 
ATOM     23  C   UNL     1      47.472   1.801   6.890  0.00  0.00    +0.000 C 
ATOM     24  O   UNL     1      47.411   0.599   6.661  0.00  0.00    +0.000 OA
ATOM     25  H   UNL     1      49.284   2.026   6.012  0.00  0.00    +0.000 HD
ATOM     26  H   UNL     1      48.755   3.451   6.834  0.00  0.00    +0.000 HD
ENDBRANCH  16  23
ENDBRANCH  15  19
ENDBRANCH   1  15
TORSDOF 5
ENDMDL
MODEL 2
REMARK VINA RESULT:    -8.808      1.083      1.459
REMARK INTER + INTRA:         -12.337
REMARK INTER:                 -11.418
REMARK INTRA:                  -0.919
REMARK UNBOUND:                -0.955
REMARK  Name = 
REMARK  5 active torsions:
REMARK  status: ('A' for Active; 'I' for Inactive)
REMARK    1  A    between atoms: C_2  and  C_4
REMARK    2  A    between atoms: C_7  and  O_8
REMARK    3  A    between atoms: O_8  and  C_9
REMARK    4  A    between atoms: C_9  and  C_10
REMARK    5  A    between atoms: C_14  and  C_15
REMARK                            x       y       z     vdW  Elec       q    Type
REMARK                         _______ _______ _______ _____ _____    ______ ____
ROOT
ATOM      1  C   UNL     1      43.661   4.261  11.257  0.00  0.00    +0.000 C 
ENDROOT
BRANCH   1   2
ATOM      2  C   UNL     1      44.857   4.743  12.050  0.00  0.00    +0.000 A 
ATOM      3  C   UNL     1      45.528   3.852  12.896  0.00  0.00    +0.000 A 
ATOM      4  C   UNL     1      46.688   4.248  13.556  0.00  0.00    +0.000 A 
ATOM      5  C   UNL     1      47.206   5.529  13.350  0.00  0.00    +0.000 A 
ATOM      6  C   UNL     1      46.592   6.435  12.468  0.00  0.00    +0.000 A 
ATOM      7  C   UNL     1      45.397   6.022  11.847  0.00  0.00    +0.000 A 
BRANCH   6   8
ATOM      8  C   UNL     1      47.223   7.726  12.109  0.00  0.00    +0.000 A 
ATOM      9  C   UNL     1      46.516   8.938  12.245  0.00  0.00    +0.000 A 
ATOM     10  C   UNL     1      47.131  10.177  12.035  0.00  0.00    +0.000 A 
ATOM     11  C   UNL     1      48.476  10.231  11.688  0.00  0.00    +0.000 A 
ATOM     12  C   UNL     1      49.180   9.046  11.524  0.00  0.00    +0.000 A 
ATOM     13  F   UNL     1      50.481   9.095  11.201  0.00  0.00    +0.000 F 
ATOM     14  C   UNL     1      48.570   7.809  11.715  0.00  0.00    +0.000 A 
ENDBRANCH   6   8
ENDBRANCH   1   2
BRANCH   1  15
ATOM     15  O   UNL     1      43.710   4.713   9.900  0.00  0.00    +0.000 OA
BRANCH  15  19
ATOM     16  C   UNL     1      46.391   2.466   7.719  0.00  0.00    +0.000 A 
ATOM     17  C   UNL     1      45.518   1.832   8.605  0.00  0.00    +0.000 A 
ATOM     18  C   UNL     1      44.609   2.601   9.335  0.00  0.00    +0.000 A 
ATOM     19  C   UNL     1      44.610   3.976   9.153  0.00  0.00    +0.000 A 
ATOM     20  N   UNL     1      45.441   4.614   8.301  0.00  0.00    +0.000 NA
ATOM     21  C   UNL     1      46.318   3.850   7.612  0.00  0.00    +0.000 A 
BRANCH  16  23
ATOM     22  N   UNL     1      48.468   2.489   6.454  0.00  0.00    +0.000 N 
ATOM     23  C   UNL     1      47.407   1.759   6.914  0.00  0.00    +0.000 C 
ATOM     24  O   UNL     1      47.329   0.557   6.694  0.00  0.00    +0.000 OA
ATOM     25  H   UNL     1      49.205   1.959   6.002  0.00  0.00    +0.000 HD
ATOM     26  H   UNL     1      48.706   3.395   6.824  0.00  0.00    +0.000 HD
ENDBRANCH  16  23
ENDBRANCH  15  19
ENDBRANCH   1  15
TORSDOF 5
ENDMDL
MODEL 3
REMARK VINA RESULT:    -8.671      2.722      3.991
REMARK INTER + INTRA:         -12.160
REMARK INTER:                 -11.344
REMARK INTRA:                  -0.816
REMARK UNBOUND:                -0.955
REMARK  Name = 
REMARK  5 active torsions:
REMARK  status: ('A' for Active; 'I' for Inactive)
REMARK    1  A    between atoms: C_2  and  C_4
REMARK    2  A    between atoms: C_7  and  O_8
REMARK    3  A    between atoms: O_8  and  C_9
REMARK    4  A    between atoms: C_9  and  C_10
REMARK    5  A    between atoms: C_14  and  C_15
REMARK                            x       y       z     vdW  Elec       q    Type
REMARK                         _______ _______ _______ _____ _____    ______ ____
ROOT
ATOM      1  C   UNL     1      44.001   4.333  11.467  0.00  0.00    +0.000 C 
ENDROOT
BRANCH   1   2
ATOM      2  C   UNL     1      45.159   5.147  12.002  0.00  0.00    +0.000 A 
ATOM      3  C   UNL     1      45.410   6.419  11.475  0.00  0.00    +0.000 A 
ATOM      4  C   UNL     1      46.406   7.222  12.022  0.00  0.00    +0.000 A 
ATOM      5  C   UNL     1      47.141   6.773  13.122  0.00  0.00    +0.000 A 
ATOM      6  C   UNL     1      46.884   5.524  13.713  0.00  0.00    +0.000 A 
ATOM      7  C   UNL     1      45.900   4.715  13.113  0.00  0.00    +0.000 A 
BRANCH   6   8
ATOM      8  C   UNL     1      47.533   5.110  14.979  0.00  0.00    +0.000 A 
ATOM      9  C   UNL     1      48.479   5.941  15.612  0.00  0.00    +0.000 A 
ATOM     10  C   UNL     1      49.008   5.632  16.869  0.00  0.00    +0.000 A 
ATOM     11  C   UNL     1      48.594   4.479  17.528  0.00  0.00    +0.000 A 
ATOM     12  C   UNL     1      47.683   3.636  16.908  0.00  0.00    +0.000 A 
ATOM     13  F   UNL     1      47.273   2.530  17.546  0.00  0.00    +0.000 F 
ATOM     14  C   UNL     1      47.165   3.930  15.649  0.00  0.00    +0.000 A 
ENDBRANCH   6   8
ENDBRANCH   1   2
BRANCH   1  15
ATOM     15  O   UNL     1      43.764   4.596  10.081  0.00  0.00    +0.000 OA
BRANCH  15  19
ATOM     16  C   UNL     1      46.368   2.432   7.727  0.00  0.00    +0.000 A 
ATOM     17  C   UNL     1      45.598   1.777   8.691  0.00  0.00    +0.000 A 
ATOM     18  C   UNL     1      44.716   2.517   9.479  0.00  0.00    +0.000 A 
ATOM     19  C   UNL     1      44.636   3.886   9.275  0.00  0.00    +0.000 A 
ATOM     20  N   UNL     1      45.366   4.545   8.348  0.00  0.00    +0.000 NA
ATOM     21  C   UNL     1      46.220   3.809   7.603  0.00  0.00    +0.000 A 
BRANCH  16  23
ATOM     22  N   UNL     1      48.450   2.472   6.471  0.00  0.00    +0.000 N 
ATOM     23  C   UNL     1      47.348   1.757   6.854  0.00  0.00    +0.000 C 
ATOM     24  O   UNL     1      47.207   0.589   6.513  0.00  0.00    +0.000 OA
ATOM     25  H   UNL     1      49.160   1.951   5.966  0.00  0.00    +0.000 HD
ATOM     26  H   UNL     1      48.734   3.321   6.930  0.00  0.00    +0.000 HD
ENDBRANCH  16  23
ENDBRANCH  15  19
ENDBRANCH   1  15
TORSDOF 5
ENDMDL
MODEL 4
REMARK VINA RESULT:    -7.986      5.273      8.355
REMARK INTER + INTRA:         -11.275
REMARK INTER:                 -10.626
REMARK INTRA:                  -0.650
REMARK UNBOUND:                -0.955
REMARK  Name = 
REMARK  5 active torsions:
REMARK  status: ('A' for Active; 'I' for Inactive)
REMARK    1  A    between atoms: C_2  and  C_4
REMARK    2  A    between atoms: C_7  and  O_8
REMARK    3  A    between atoms: O_8  and  C_9
REMARK    4  A    between atoms: C_9  and  C_10
REMARK    5  A    between atoms: C_14  and  C_15
REMARK                            x       y       z     vdW  Elec       q    Type
REMARK                         _______ _______ _______ _____ _____    ______ ____
ROOT
ATOM      1  C   UNL     1      46.044   5.171  13.926  0.00  0.00    +0.000 C 
ENDROOT
BRANCH   1   2
ATOM      2  C   UNL     1      45.130   4.945  12.742  0.00  0.00    +0.000 A 
ATOM      3  C   UNL     1      43.891   5.595  12.693  0.00  0.00    +0.000 A 
ATOM      4  C   UNL     1      43.081   5.480  11.567  0.00  0.00    +0.000 A 
ATOM      5  C   UNL     1      43.515   4.738  10.467  0.00  0.00    +0.000 A 
ATOM      6  C   UNL     1      44.775   4.113  10.455  0.00  0.00    +0.000 A 
ATOM      7  C   UNL     1      45.555   4.212  11.623  0.00  0.00    +0.000 A 
BRANCH   6   8
ATOM      8  C   UNL     1      45.319   3.473   9.236  0.00  0.00    +0.000 A 
ATOM      9  C   UNL     1      45.815   4.251   8.170  0.00  0.00    +0.000 A 
ATOM     10  C   UNL     1      46.449   3.671   7.067  0.00  0.00    +0.000 A 
ATOM     11  C   UNL     1      46.607   2.291   7.007  0.00  0.00    +0.000 A 
ATOM     12  C   UNL     1      46.102   1.507   8.035  0.00  0.00    +0.000 A 
ATOM     13  F   UNL     1      46.263   0.177   7.987  0.00  0.00    +0.000 F 
ATOM     14  C   UNL     1      45.455   2.078   9.129  0.00  0.00    +0.000 A 
ENDBRANCH   6   8
ENDBRANCH   1   2
BRANCH   1  15
ATOM     15  O   UNL     1      46.550   3.938  14.447  0.00  0.00    +0.000 OA
BRANCH  15  19
ATOM     16  C   UNL     1      48.352   4.495  18.113  0.00  0.00    +0.000 A 
ATOM     17  C   UNL     1      48.667   5.345  17.051  0.00  0.00    +0.000 A 
ATOM     18  C   UNL     1      48.048   5.153  15.815  0.00  0.00    +0.000 A 
ATOM     19  C   UNL     1      47.137   4.114  15.686  0.00  0.00    +0.000 A 
ATOM     20  N   UNL     1      46.812   3.279  16.697  0.00  0.00    +0.000 NA
ATOM     21  C   UNL     1      47.431   3.479  17.882  0.00  0.00    +0.000 A 
BRANCH  16  23
ATOM     22  N   UNL     1      48.520   3.715  20.411  0.00  0.00    +0.000 N 
ATOM     23  C   UNL     1      48.960   4.590  19.455  0.00  0.00    +0.000 C 
ATOM     24  O   UNL     1      49.852   5.392  19.701  0.00  0.00    +0.000 OA
ATOM     25  H   UNL     1      49.030   3.726  21.287  0.00  0.00    +0.000 HD
ATOM     26  H   UNL     1      47.995   2.886  20.188  0.00  0.00    +0.000 HD
ENDBRANCH  16  23
ENDBRANCH  15  19
ENDBRANCH   1  15
TORSDOF 5
ENDMDL
MODEL 5
REMARK VINA RESULT:    -7.858      3.940      6.999
REMARK INTER + INTRA:         -11.109
REMARK INTER:                 -10.246
REMARK INTRA:                  -0.864
REMARK UNBOUND:                -0.955
REMARK  Name = 
REMARK  5 active torsions:
REMARK  status: ('A' for Active; 'I' for Inactive)
REMARK    1  A    between atoms: C_2  and  C_4
REMARK    2  A    between atoms: C_7  and  O_8
REMARK    3  A    between atoms: O_8  and  C_9
REMARK    4  A    between atoms: C_9  and  C_10
REMARK    5  A    between atoms: C_14  and  C_15
REMARK                            x       y       z     vdW  Elec       q    Type
REMARK                         _______ _______ _______ _____ _____    ______ ____
ROOT
ATOM      1  C   UNL     1      44.264   6.740  11.643  0.00  0.00    +0.000 C 
ENDROOT
BRANCH   1   2
ATOM      2  C   UNL     1      44.240   5.261  11.324  0.00  0.00    +0.000 A 
ATOM      3  C   UNL     1      43.344   4.423  12.000  0.00  0.00    +0.000 A 
ATOM      4  C   UNL     1      43.237   3.081  11.650  0.00  0.00    +0.000 A 
ATOM      5  C   UNL     1      44.002   2.568  10.600  0.00  0.00    +0.000 A 
ATOM      6  C   UNL     1      44.875   3.388   9.862  0.00  0.00    +0.000 A 
ATOM      7  C   UNL     1      44.994   4.732  10.265  0.00  0.00    +0.000 A 
BRANCH   6   8
ATOM      8  C   UNL     1      45.559   2.902   8.642  0.00  0.00    +0.000 A 
ATOM      9  C   UNL     1      45.983   3.802   7.644  0.00  0.00    +0.000 A 
ATOM     10  C   UNL     1      46.742   3.382   6.547  0.00  0.00    +0.000 A 
ATOM     11  C   UNL     1      47.101   2.044   6.426  0.00  0.00    +0.000 A 
ATOM     12  C   UNL     1      46.670   1.140   7.386  0.00  0.00    +0.000 A 
ATOM     13  F   UNL     1      47.024  -0.149   7.279  0.00  0.00    +0.000 F 
ATOM     14  C   UNL     1      45.899   1.548   8.472  0.00  0.00    +0.000 A 
ENDBRANCH   6   8
ENDBRANCH   1   2
BRANCH   1  15
ATOM     15  O   UNL     1      44.992   7.010  12.845  0.00  0.00    +0.000 OA
BRANCH  15  19
ATOM     16  C   UNL     1      48.866   8.139  12.001  0.00  0.00    +0.000 A 
ATOM     17  C   UNL     1      47.847   9.094  11.977  0.00  0.00    +0.000 A 
ATOM     18  C   UNL     1      46.539   8.703  12.270  0.00  0.00    +0.000 A 
ATOM     19  C   UNL     1      46.299   7.372  12.574  0.00  0.00    +0.000 A 
ATOM     20  N   UNL     1      47.266   6.429  12.607  0.00  0.00    +0.000 NA
ATOM     21  C   UNL     1      48.523   6.829  12.312  0.00  0.00    +0.000 A 
BRANCH  16  23
ATOM     22  N   UNL     1      51.106   7.369  11.450  0.00  0.00    +0.000 N 
ATOM     23  C   UNL     1      50.279   8.433  11.688  0.00  0.00    +0.000 C 
ATOM     24  O   UNL     1      50.693   9.582  11.603  0.00  0.00    +0.000 OA
ATOM     25  H   UNL     1      52.040   7.601  11.128  0.00  0.00    +0.000 HD
ATOM     26  H   UNL     1      50.761   6.445  11.251  0.00  0.00    +0.000 HD
ENDBRANCH  16  23
ENDBRANCH  15  19
ENDBRANCH   1  15
TORSDOF 5
ENDMDL
MODEL 6
REMARK VINA RESULT:    -7.830      1.885      2.726
REMARK INTER + INTRA:         -11.074
REMARK INTER:                 -10.267
REMARK INTRA:                  -0.807
REMARK UNBOUND:                -0.955
REMARK  Name = 
REMARK  5 active torsions:
REMARK  status: ('A' for Active; 'I' for Inactive)
REMARK    1  A    between atoms: C_2  and  C_4
REMARK    2  A    between atoms: C_7  and  O_8
REMARK    3  A    between atoms: O_8  and  C_9
REMARK    4  A    between atoms: C_9  and  C_10
REMARK    5  A    between atoms: C_14  and  C_15
REMARK                            x       y       z     vdW  Elec       q    Type
REMARK                         _______ _______ _______ _____ _____    ______ ____
ROOT
ATOM      1  C   UNL     1      44.708   4.962  11.439  0.00  0.00    +0.000 C 
ENDROOT
BRANCH   1   2
ATOM      2  C   UNL     1      45.342   6.330  11.560  0.00  0.00    +0.000 A 
ATOM      3  C   UNL     1      44.529   7.469  11.585  0.00  0.00    +0.000 A 
ATOM      4  C   UNL     1      45.086   8.727  11.796  0.00  0.00    +0.000 A 
ATOM      5  C   UNL     1      46.459   8.855  12.017  0.00  0.00    +0.000 A 
ATOM      6  C   UNL     1      47.303   7.731  12.053  0.00  0.00    +0.000 A 
ATOM      7  C   UNL     1      46.719   6.476  11.794  0.00  0.00    +0.000 A 
BRANCH   6   8
ATOM      8  C   UNL     1      48.725   7.833  12.456  0.00  0.00    +0.000 A 
ATOM      9  C   UNL     1      49.729   8.104  11.505  0.00  0.00    +0.000 A 
ATOM     10  C   UNL     1      51.057   8.331  11.879  0.00  0.00    +0.000 A 
ATOM     11  C   UNL     1      51.411   8.298  13.223  0.00  0.00    +0.000 A 
ATOM     12  C   UNL     1      50.441   8.008  14.171  0.00  0.00    +0.000 A 
ATOM     13  F   UNL     1      50.776   7.987  15.469  0.00  0.00    +0.000 F 
ATOM     14  C   UNL     1      49.120   7.763  13.804  0.00  0.00    +0.000 A 
ENDBRANCH   6   8
ENDBRANCH   1   2
BRANCH   1  15
ATOM     15  O   UNL     1      44.095   4.774  10.159  0.00  0.00    +0.000 OA
BRANCH  15  19
ATOM     16  C   UNL     1      46.473   2.458   7.712  0.00  0.00    +0.000 A 
ATOM     17  C   UNL     1      45.640   1.844   8.651  0.00  0.00    +0.000 A 
ATOM     18  C   UNL     1      44.835   2.637   9.471  0.00  0.00    +0.000 A 
ATOM     19  C   UNL     1      44.893   4.014   9.323  0.00  0.00    +0.000 A 
ATOM     20  N   UNL     1      45.686   4.633   8.422  0.00  0.00    +0.000 NA
ATOM     21  C   UNL     1      46.464   3.847   7.645  0.00  0.00    +0.000 A 
BRANCH  16  23
ATOM     22  N   UNL     1      48.490   2.386   6.356  0.00  0.00    +0.000 N 
ATOM     23  C   UNL     1      47.382   1.724   6.810  0.00  0.00    +0.000 C 
ATOM     24  O   UNL     1      47.179   0.555   6.506  0.00  0.00    +0.000 OA
ATOM     25  H   UNL     1      49.153   1.826   5.831  0.00  0.00    +0.000 HD
ATOM     26  H   UNL     1      48.829   3.234   6.779  0.00  0.00    +0.000 HD
ENDBRANCH  16  23
ENDBRANCH  15  19
ENDBRANCH   1  15
TORSDOF 5
ENDMDL
MODEL 7
REMARK VINA RESULT:    -7.800      2.445      3.168
REMARK INTER + INTRA:         -11.035
REMARK INTER:                 -10.130
REMARK INTRA:                  -0.905
REMARK UNBOUND:                -0.955
REMARK  Name = 
REMARK  5 active torsions:
REMARK  status: ('A' for Active; 'I' for Inactive)
REMARK    1  A    between atoms: C_2  and  C_4
REMARK    2  A    between atoms: C_7  and  O_8
REMARK    3  A    between atoms: O_8  and  C_9
REMARK    4  A    between atoms: C_9  and  C_10
REMARK    5  A    between atoms: C_14  and  C_15
REMARK                            x       y       z     vdW  Elec       q    Type
REMARK                         _______ _______ _______ _____ _____    ______ ____
ROOT
ATOM      1  C   UNL     1      44.455   4.443  11.596  0.00  0.00    +0.000 C 
ENDROOT
BRANCH   1   2
ATOM      2  C   UNL     1      44.883   5.857  11.925  0.00  0.00    +0.000 A 
ATOM      3  C   UNL     1      46.089   6.073  12.601  0.00  0.00    +0.000 A 
ATOM      4  C   UNL     1      46.548   7.368  12.824  0.00  0.00    +0.000 A 
ATOM      5  C   UNL     1      45.820   8.460  12.345  0.00  0.00    +0.000 A 
ATOM      6  C   UNL     1      44.631   8.284  11.615  0.00  0.00    +0.000 A 
ATOM      7  C   UNL     1      44.169   6.965  11.442  0.00  0.00    +0.000 A 
BRANCH   6   8
ATOM      8  C   UNL     1      43.944   9.418  10.955  0.00  0.00    +0.000 A 
ATOM      9  C   UNL     1      44.678  10.418  10.288  0.00  0.00    +0.000 A 
ATOM     10  C   UNL     1      44.049  11.426   9.550  0.00  0.00    +0.000 A 
ATOM     11  C   UNL     1      42.662  11.451   9.458  0.00  0.00    +0.000 A 
ATOM     12  C   UNL     1      41.922  10.489  10.129  0.00  0.00    +0.000 A 
ATOM     13  F   UNL     1      40.585  10.503  10.033  0.00  0.00    +0.000 F 
ATOM     14  C   UNL     1      42.542   9.493  10.880  0.00  0.00    +0.000 A 
ENDBRANCH   6   8
ENDBRANCH   1   2
BRANCH   1  15
ATOM     15  O   UNL     1      43.917   4.348  10.273  0.00  0.00    +0.000 OA
BRANCH  15  19
ATOM     16  C   UNL     1      46.536   2.519   7.666  0.00  0.00    +0.000 A 
ATOM     17  C   UNL     1      46.389   3.907   7.638  0.00  0.00    +0.000 A 
ATOM     18  C   UNL     1      45.504   4.518   8.529  0.00  0.00    +0.000 A 
ATOM     19  C   UNL     1      44.798   3.717   9.413  0.00  0.00    +0.000 A 
ATOM     20  N   UNL     1      44.923   2.373   9.463  0.00  0.00    +0.000 NA
ATOM     21  C   UNL     1      45.778   1.803   8.586  0.00  0.00    +0.000 A 
BRANCH  16  23
ATOM     22  N   UNL     1      48.590   2.366   6.372  0.00  0.00    +0.000 N 
ATOM     23  C   UNL     1      47.424   1.764   6.759  0.00  0.00    +0.000 C 
ATOM     24  O   UNL     1      47.151   0.628   6.392  0.00  0.00    +0.000 OA
ATOM     25  H   UNL     1      49.231   1.785   5.842  0.00  0.00    +0.000 HD
ATOM     26  H   UNL     1      48.972   3.167   6.847  0.00  0.00    +0.000 HD
ENDBRANCH  16  23
ENDBRANCH  15  19
ENDBRANCH   1  15
TORSDOF 5
ENDMDL
MODEL 8
REMARK VINA RESULT:    -6.779      5.115      8.295
REMARK INTER + INTRA:          -9.715
REMARK INTER:                  -8.925
REMARK INTRA:                  -0.790
REMARK UNBOUND:                -0.955
REMARK  Name = 
REMARK  5 active torsions:
REMARK  status: ('A' for Active; 'I' for Inactive)
REMARK    1  A    between atoms: C_2  and  C_4
REMARK    2  A    between atoms: C_7  and  O_8
REMARK    3  A    between atoms: O_8  and  C_9
REMARK    4  A    between atoms: C_9  and  C_10
REMARK    5  A    between atoms: C_14  and  C_15
REMARK                            x       y       z     vdW  Elec       q    Type
REMARK                         _______ _______ _______ _____ _____    ______ ____
ROOT
ATOM      1  C   UNL     1      48.311   7.506  13.944  0.00  0.00    +0.000 C 
ENDROOT
BRANCH   1   2
ATOM      2  C   UNL     1      47.034   7.448  13.134  0.00  0.00    +0.000 A 
ATOM      3  C   UNL     1      46.285   8.615  12.942  0.00  0.00    +0.000 A 
ATOM      4  C   UNL     1      45.164   8.603  12.118  0.00  0.00    +0.000 A 
ATOM      5  C   UNL     1      44.798   7.431  11.452  0.00  0.00    +0.000 A 
ATOM      6  C   UNL     1      45.554   6.252  11.576  0.00  0.00    +0.000 A 
ATOM      7  C   UNL     1      46.659   6.282  12.449  0.00  0.00    +0.000 A 
BRANCH   6   8
ATOM      8  C   UNL     1      45.281   5.057  10.744  0.00  0.00    +0.000 A 
ATOM      9  C   UNL     1      44.558   3.965  11.264  0.00  0.00    +0.000 A 
ATOM     10  C   UNL     1      44.178   2.884  10.463  0.00  0.00    +0.000 A 
ATOM     11  C   UNL     1      44.510   2.875   9.112  0.00  0.00    +0.000 A 
ATOM     12  C   UNL     1      45.243   3.930   8.589  0.00  0.00    +0.000 A 
ATOM     13  F   UNL     1      45.555   3.931   7.285  0.00  0.00    +0.000 F 
ATOM     14  C   UNL     1      45.639   5.001   9.386  0.00  0.00    +0.000 A 
ENDBRANCH   6   8
ENDBRANCH   1   2
BRANCH   1  15
ATOM     15  O   UNL     1      48.799   6.197  14.255  0.00  0.00    +0.000 OA
BRANCH  15  19
ATOM     16  C   UNL     1      48.486   5.406  18.290  0.00  0.00    +0.000 A 
ATOM     17  C   UNL     1      49.095   6.588  17.862  0.00  0.00    +0.000 A 
ATOM     18  C   UNL     1      49.192   6.849  16.494  0.00  0.00    +0.000 A 
ATOM     19  C   UNL     1      48.676   5.919  15.604  0.00  0.00    +0.000 A 
ATOM     20  N   UNL     1      48.079   4.770  15.991  0.00  0.00    +0.000 NA
ATOM     21  C   UNL     1      48.006   4.534  17.320  0.00  0.00    +0.000 A 
BRANCH  16  23
ATOM     22  N   UNL     1      48.429   3.682  20.004  0.00  0.00    +0.000 N 
ATOM     23  C   UNL     1      48.348   5.015  19.707  0.00  0.00    +0.000 C 
ATOM     24  O   UNL     1      48.205   5.848  20.592  0.00  0.00    +0.000 OA
ATOM     25  H   UNL     1      48.444   3.451  20.991  0.00  0.00    +0.000 HD
ATOM     26  H   UNL     1      48.802   3.003  19.361  0.00  0.00    +0.000 HD
ENDBRANCH  16  23
ENDBRANCH  15  19
ENDBRANCH   1  15
TORSDOF 5
ENDMDL
MODEL 9
REMARK VINA RESULT:    -6.700      5.682      7.933
REMARK INTER + INTRA:          -9.613
REMARK INTER:                  -8.751
REMARK INTRA:                  -0.862
REMARK UNBOUND:                -0.955
REMARK  Name = 
REMARK  5 active torsions:
REMARK  status: ('A' for Active; 'I' for Inactive)
REMARK    1  A    between atoms: C_2  and  C_4
REMARK    2  A    between atoms: C_7  and  O_8
REMARK    3  A    between atoms: O_8  and  C_9
REMARK    4  A    between atoms: C_9  and  C_10
REMARK    5  A    between atoms: C_14  and  C_15
REMARK                            x       y       z     vdW  Elec       q    Type
REMARK                         _______ _______ _______ _____ _____    ______ ____
ROOT
ATOM      1  C   UNL     1      48.945   6.624  15.875  0.00  0.00    +0.000 C 
ENDROOT
BRANCH   1   2
ATOM      2  C   UNL     1      48.548   6.834  14.430  0.00  0.00    +0.000 A 
ATOM      3  C   UNL     1      49.405   7.536  13.574  0.00  0.00    +0.000 A 
ATOM      4  C   UNL     1      49.105   7.653  12.220  0.00  0.00    +0.000 A 
ATOM      5  C   UNL     1      47.962   7.041  11.702  0.00  0.00    +0.000 A 
ATOM      6  C   UNL     1      47.103   6.282  12.517  0.00  0.00    +0.000 A 
ATOM      7  C   UNL     1      47.408   6.217  13.891  0.00  0.00    +0.000 A 
BRANCH   6   8
ATOM      8  C   UNL     1      45.988   5.488  11.953  0.00  0.00    +0.000 A 
ATOM      9  C   UNL     1      45.547   5.698  10.631  0.00  0.00    +0.000 A 
ATOM     10  C   UNL     1      44.586   4.877  10.035  0.00  0.00    +0.000 A 
ATOM     11  C   UNL     1      44.044   3.815  10.751  0.00  0.00    +0.000 A 
ATOM     12  C   UNL     1      44.448   3.608  12.063  0.00  0.00    +0.000 A 
ATOM     13  F   UNL     1      43.936   2.579  12.753  0.00  0.00    +0.000 F 
ATOM     14  C   UNL     1      45.393   4.434  12.667  0.00  0.00    +0.000 A 
ENDBRANCH   6   8
ENDBRANCH   1   2
BRANCH   1  15
ATOM     15  O   UNL     1      48.291   5.484  16.442  0.00  0.00    +0.000 OA
BRANCH  15  19
ATOM     16  C   UNL     1      50.940   2.480  17.422  0.00  0.00    +0.000 A 
ATOM     17  C   UNL     1      49.627   2.158  17.071  0.00  0.00    +0.000 A 
ATOM     18  C   UNL     1      48.739   3.181  16.736  0.00  0.00    +0.000 A 
ATOM     19  C   UNL     1      49.197   4.490  16.765  0.00  0.00    +0.000 A 
ATOM     20  N   UNL     1      50.461   4.829  17.097  0.00  0.00    +0.000 NA
ATOM     21  C   UNL     1      51.301   3.823  17.428  0.00  0.00    +0.000 A 
BRANCH  16  23
ATOM     22  N   UNL     1      51.521   0.226  18.126  0.00  0.00    +0.000 N 
ATOM     23  C   UNL     1      51.957   1.485  17.816  0.00  0.00    +0.000 C 
ATOM     24  O   UNL     1      53.151   1.758  17.830  0.00  0.00    +0.000 OA
ATOM     25  H   UNL     1      52.247  -0.465  18.284  0.00  0.00    +0.000 HD
ATOM     26  H   UNL     1      50.606  -0.109  17.878  0.00  0.00    +0.000 HD
ENDBRANCH  16  23
ENDBRANCH  15  19
ENDBRANCH   1  15
TORSDOF 5
ENDMDL
