MODEL 1
REMARK VINA RESULT:    -8.251      0.000      0.000
REMARK INTER + INTRA:         -12.818
REMARK INTER:                 -11.628
REMARK INTRA:                  -1.191
REMARK UNBOUND:                -1.191
REMARK  Name = 
REMARK  7 active torsions:
REMARK  status: ('A' for Active; 'I' for Inactive)
REMARK    1  A    between atoms: C_2  and  C_3
REMARK    2  A    between atoms: C_6  and  N_7
REMARK    3  A    between atoms: N_7  and  C_8
REMARK    4  A    between atoms: C_8  and  C_9
REMARK    5  A    between atoms: C_14  and  C_15
REMARK    6  A    between atoms: C_19  and  O_20
REMARK    7  A    between atoms: O_20  and  C_21
REMARK                            x       y       z     vdW  Elec       q    Type
REMARK                         _______ _______ _______ _____ _____    ______ ____
ROOT
ATOM      1  C   UNL     1      45.270   5.268  12.069  0.00  0.00    +0.000 A 
ATOM      2  C   UNL     1      45.982   6.406  11.656  0.00  0.00    +0.000 A 
ATOM      3  C   UNL     1      47.051   6.893  12.406  0.00  0.00    +0.000 A 
ATOM      4  C   UNL     1      47.451   6.225  13.562  0.00  0.00    +0.000 A 
ATOM      5  F   UNL     1      48.455   6.761  14.273  0.00  0.00    +0.000 F 
ATOM      6  C   UNL     1      46.832   5.037  13.976  0.00  0.00    +0.000 A 
ATOM      7  C   UNL     1      45.741   4.587  13.205  0.00  0.00    +0.000 A 
ENDROOT
BRANCH   6   8
ATOM      8  C   UNL     1      47.257   4.271  15.169  0.00  0.00    +0.000 A 
ATOM      9  C   UNL     1      46.688   4.550  16.427  0.00  0.00    +0.000 A 
ATOM     10  C   UNL     1      47.110   3.894  17.581  0.00  0.00    +0.000 A 
ATOM     11  C   UNL     1      48.094   2.916  17.494  0.00  0.00    +0.000 A 
ATOM     12  C   UNL     1      48.649   2.582  16.260  0.00  0.00    +0.000 A 
ATOM     13  C   UNL     1      48.252   3.274  15.109  0.00  0.00    +0.000 A 
BRANCH  12  14
ATOM     14  O   UNL     1      49.598   1.599  16.307  0.00  0.00    +0.000 OA
BRANCH  14  15
ATOM     15  C   UNL     1      50.648   1.811  17.233  0.00  0.00    +0.000 C 
ATOM     16  F   UNL     1      51.664   0.963  16.941  0.00  0.00    +0.000 F 
ATOM     17  F   UNL     1      51.118   3.068  17.022  0.00  0.00    +0.000 F 
ENDBRANCH  14  15
ENDBRANCH  12  14
ENDBRANCH   6   8
BRANCH   1  18
ATOM     18  C   UNL     1      43.967   4.862  11.390  0.00  0.00    +0.000 C 
ATOM     19  C   UNL     1      42.904   4.156  12.212  0.00  0.00    +0.000 C 
ATOM     20  C   UNL     1      42.738   5.608  11.910  0.00  0.00    +0.000 C 
BRANCH  18  21
ATOM     21  N   UNL     1      44.043   4.718   9.943  0.00  0.00    +0.000 N 
ATOM     22  H   UNL     1      43.560   5.381   9.345  0.00  0.00    +0.000 HD
BRANCH  21  26
ATOM     23  C   UNL     1      46.689   2.717   7.523  0.00  0.00    +0.000 A 
ATOM     24  C   UNL     1      46.568   4.094   7.529  0.00  0.00    +0.000 A 
ATOM     25  N   UNL     1      45.706   4.746   8.352  0.00  0.00    +0.000 NA
ATOM     26  C   UNL     1      44.945   3.991   9.180  0.00  0.00    +0.000 A 
ATOM     27  C   UNL     1      45.079   2.605   9.165  0.00  0.00    +0.000 A 
ATOM     28  N   UNL     1      45.946   1.937   8.347  0.00  0.00    +0.000 NA
BRANCH  23  30
ATOM     29  N   UNL     1      48.376   1.523   5.955  0.00  0.00    +0.000 NA
ATOM     30  C   UNL     1      47.606   2.068   6.630  0.00  0.00    +0.000 C 
ENDBRANCH  23  30
ENDBRANCH  21  26
ENDBRANCH  18  21
ENDBRANCH   1  18
TORSDOF 7
ENDMDL
MODEL 2
REMARK VINA RESULT:    -8.167      2.074      2.482
REMARK INTER + INTRA:         -12.700
REMARK INTER:                 -11.781
REMARK INTRA:                  -0.919
REMARK UNBOUND:                -1.191
REMARK  Name = 
REMARK  7 active torsions:
REMARK  status: ('A' for Active; 'I' for Inactive)
REMARK    1  A    between atoms: C_2  and  C_3
REMARK    2  A    between atoms: C_6  and  N_7
REMARK    3  A    between atoms: N_7  and  C_8
REMARK    4  A    between atoms: C_8  and  C_9
REMARK    5  A    between atoms: C_14  and  C_15
REMARK    6  A    between atoms: C_19  and  O_20
REMARK    7  A    between atoms: O_20  and  C_21
REMARK                            x       y       z     vdW  Elec       q    Type
REMARK                         _______ _______ _______ _____ _____    ______ ____
ROOT
ATOM      1  C   UNL     1      45.366   5.285  11.984  0.00  0.00    +0.000 A 
ATOM      2  C   UNL     1      46.079   6.325  11.366  0.00  0.00    +0.000 A 
ATOM      3  C   UNL     1      47.186   6.901  11.986  0.00  0.00    +0.000 A 
ATOM      4  C   UNL     1      47.623   6.417  13.217  0.00  0.00    +0.000 A 
ATOM      5  F   UNL     1      48.665   7.037  13.794  0.00  0.00    +0.000 F 
ATOM      6  C   UNL     1      47.003   5.326  13.841  0.00  0.00    +0.000 A 
ATOM      7  C   UNL     1      45.873   4.783  13.196  0.00  0.00    +0.000 A 
ENDROOT
BRANCH   6   8
ATOM      8  C   UNL     1      47.465   4.751  15.124  0.00  0.00    +0.000 A 
ATOM      9  C   UNL     1      47.566   3.354  15.277  0.00  0.00    +0.000 A 
ATOM     10  C   UNL     1      47.935   2.777  16.490  0.00  0.00    +0.000 A 
ATOM     11  C   UNL     1      48.244   3.592  17.573  0.00  0.00    +0.000 A 
ATOM     12  C   UNL     1      48.197   4.979  17.447  0.00  0.00    +0.000 A 
ATOM     13  C   UNL     1      47.785   5.554  16.238  0.00  0.00    +0.000 A 
BRANCH  12  14
ATOM     14  O   UNL     1      48.532   5.668  18.579  0.00  0.00    +0.000 OA
BRANCH  14  15
ATOM     15  C   UNL     1      47.454   6.294  19.252  0.00  0.00    +0.000 C 
ATOM     16  F   UNL     1      47.316   7.554  18.774  0.00  0.00    +0.000 F 
ATOM     17  F   UNL     1      46.325   5.621  18.907  0.00  0.00    +0.000 F 
ENDBRANCH  14  15
ENDBRANCH  12  14
ENDBRANCH   6   8
BRANCH   1  18
ATOM     18  C   UNL     1      44.029   4.805  11.431  0.00  0.00    +0.000 C 
ATOM     19  C   UNL     1      43.044   4.139  12.374  0.00  0.00    +0.000 C 
ATOM     20  C   UNL     1      42.821   5.562  11.984  0.00  0.00    +0.000 C 
BRANCH  18  21
ATOM     21  N   UNL     1      44.007   4.559   9.996  0.00  0.00    +0.000 N 
ATOM     22  H   UNL     1      43.416   5.126   9.396  0.00  0.00    +0.000 HD
BRANCH  21  26
ATOM     23  C   UNL     1      46.654   2.643   7.508  0.00  0.00    +0.000 A 
ATOM     24  C   UNL     1      46.448   4.010   7.479  0.00  0.00    +0.000 A 
ATOM     25  N   UNL     1      45.587   4.635   8.323  0.00  0.00    +0.000 NA
ATOM     26  C   UNL     1      44.915   3.863   9.211  0.00  0.00    +0.000 A 
ATOM     27  C   UNL     1      45.133   2.488   9.230  0.00  0.00    +0.000 A 
ATOM     28  N   UNL     1      46.000   1.847   8.391  0.00  0.00    +0.000 NA
BRANCH  23  30
ATOM     29  N   UNL     1      48.296   1.567   5.812  0.00  0.00    +0.000 NA
ATOM     30  C   UNL     1      47.566   2.022   6.590  0.00  0.00    +0.000 C 
ENDBRANCH  23  30
ENDBRANCH  21  26
ENDBRANCH  18  21
ENDBRANCH   1  18
TORSDOF 7
ENDMDL
MODEL 3
REMARK VINA RESULT:    -8.163      2.941      4.876
REMARK INTER + INTRA:         -12.695
REMARK INTER:                 -11.424
REMARK INTRA:                  -1.270
REMARK UNBOUND:                -1.191
REMARK  Name = 
REMARK  7 active torsions:
REMARK  status: ('A' for Active; 'I' for Inactive)
REMARK    1  A    between atoms: C_2  and  C_3
REMARK    2  A    between atoms: C_6  and  N_7
REMARK    3  A    between atoms: N_7  and  C_8
REMARK    4  A    between atoms: C_8  and  C_9
REMARK    5  A    between atoms: C_14  and  C_15
REMARK    6  A    between atoms: C_19  and  O_20
REMARK    7  A    between atoms: O_20  and  C_21
REMARK                            x       y       z     vdW  Elec       q    Type
REMARK                         _______ _______ _______ _____ _____    ______ ____
ROOT
ATOM      1  C   UNL     1      45.144   5.256  12.235  0.00  0.00    +0.000 A 
ATOM      2  C   UNL     1      45.543   4.528  13.367  0.00  0.00    +0.000 A 
ATOM      3  C   UNL     1      46.698   4.871  14.068  0.00  0.00    +0.000 A 
ATOM      4  C   UNL     1      47.449   5.975  13.672  0.00  0.00    +0.000 A 
ATOM      5  F   UNL     1      48.577   6.236  14.351  0.00  0.00    +0.000 F 
ATOM      6  C   UNL     1      47.052   6.790  12.602  0.00  0.00    +0.000 A 
ATOM      7  C   UNL     1      45.892   6.399  11.902  0.00  0.00    +0.000 A 
ENDROOT
BRANCH   6   8
ATOM      8  C   UNL     1      47.795   7.998  12.179  0.00  0.00    +0.000 A 
ATOM      9  C   UNL     1      47.143   9.246  12.127  0.00  0.00    +0.000 A 
ATOM     10  C   UNL     1      47.793  10.391  11.672  0.00  0.00    +0.000 A 
ATOM     11  C   UNL     1      49.127  10.317  11.288  0.00  0.00    +0.000 A 
ATOM     12  C   UNL     1      49.817   9.109  11.367  0.00  0.00    +0.000 A 
ATOM     13  C   UNL     1      49.148   7.952  11.785  0.00  0.00    +0.000 A 
BRANCH  12  14
ATOM     14  O   UNL     1      51.124   9.170  10.971  0.00  0.00    +0.000 OA
BRANCH  14  15
ATOM     15  C   UNL     1      51.774   7.920  10.822  0.00  0.00    +0.000 C 
ATOM     16  F   UNL     1      52.108   7.756   9.519  0.00  0.00    +0.000 F 
ATOM     17  F   UNL     1      52.939   7.993  11.517  0.00  0.00    +0.000 F 
ENDBRANCH  14  15
ENDBRANCH  12  14
ENDBRANCH   6   8
BRANCH   1  18
ATOM     18  C   UNL     1      44.023   4.758  11.331  0.00  0.00    +0.000 C 
ATOM     19  C   UNL     1      43.020   3.763  11.889  0.00  0.00    +0.000 C 
ATOM     20  C   UNL     1      42.626   5.197  11.773  0.00  0.00    +0.000 C 
BRANCH  18  21
ATOM     21  N   UNL     1      44.285   4.864   9.902  0.00  0.00    +0.000 N 
ATOM     22  H   UNL     1      44.031   5.712   9.405  0.00  0.00    +0.000 HD
BRANCH  21  26
ATOM     23  C   UNL     1      46.793   2.790   7.398  0.00  0.00    +0.000 A 
ATOM     24  C   UNL     1      46.750   4.171   7.445  0.00  0.00    +0.000 A 
ATOM     25  N   UNL     1      45.934   4.846   8.295  0.00  0.00    +0.000 NA
ATOM     26  C   UNL     1      45.139   4.111   9.109  0.00  0.00    +0.000 A 
ATOM     27  C   UNL     1      45.193   2.720   9.051  0.00  0.00    +0.000 A 
ATOM     28  N   UNL     1      46.014   2.029   8.206  0.00  0.00    +0.000 NA
BRANCH  23  30
ATOM     29  N   UNL     1      48.349   1.611   5.689  0.00  0.00    +0.000 NA
ATOM     30  C   UNL     1      47.664   2.118   6.476  0.00  0.00    +0.000 C 
ENDBRANCH  23  30
ENDBRANCH  21  26
ENDBRANCH  18  21
ENDBRANCH   1  18
TORSDOF 7
ENDMDL
MODEL 4
REMARK VINA RESULT:    -7.852      1.698      2.156
REMARK INTER + INTRA:         -12.256
REMARK INTER:                 -11.350
REMARK INTRA:                  -0.906
REMARK UNBOUND:                -1.191
REMARK  Name = 
REMARK  7 active torsions:
REMARK  status: ('A' for Active; 'I' for Inactive)
REMARK    1  A    between atoms: C_2  and  C_3
REMARK    2  A    between atoms: C_6  and  N_7
REMARK    3  A    between atoms: N_7  and  C_8
REMARK    4  A    between atoms: C_8  and  C_9
REMARK    5  A    between atoms: C_14  and  C_15
REMARK    6  A    between atoms: C_19  and  O_20
REMARK    7  A    between atoms: O_20  and  C_21
REMARK                            x       y       z     vdW  Elec       q    Type
REMARK                         _______ _______ _______ _____ _____    ______ ____
ROOT
ATOM      1  C   UNL     1      45.070   5.939  11.854  0.00  0.00    +0.000 A 
ATOM      2  C   UNL     1      44.984   7.231  11.310  0.00  0.00    +0.000 A 
ATOM      3  C   UNL     1      45.726   8.283  11.842  0.00  0.00    +0.000 A 
ATOM      4  C   UNL     1      46.601   8.051  12.902  0.00  0.00    +0.000 A 
ATOM      5  F   UNL     1      47.257   9.106  13.409  0.00  0.00    +0.000 F 
ATOM      6  C   UNL     1      46.792   6.766  13.430  0.00  0.00    +0.000 A 
ATOM      7  C   UNL     1      46.008   5.731  12.882  0.00  0.00    +0.000 A 
ENDROOT
BRANCH   6   8
ATOM      8  C   UNL     1      47.746   6.468  14.522  0.00  0.00    +0.000 A 
ATOM      9  C   UNL     1      48.903   7.254  14.683  0.00  0.00    +0.000 A 
ATOM     10  C   UNL     1      49.854   6.963  15.659  0.00  0.00    +0.000 A 
ATOM     11  C   UNL     1      49.648   5.892  16.520  0.00  0.00    +0.000 A 
ATOM     12  C   UNL     1      48.493   5.118  16.420  0.00  0.00    +0.000 A 
ATOM     13  C   UNL     1      47.561   5.389  15.410  0.00  0.00    +0.000 A 
BRANCH  12  14
ATOM     14  O   UNL     1      48.404   4.102  17.329  0.00  0.00    +0.000 OA
BRANCH  14  15
ATOM     15  C   UNL     1      47.806   2.910  16.853  0.00  0.00    +0.000 C 
ATOM     16  F   UNL     1      48.786   2.036  16.516  0.00  0.00    +0.000 F 
ATOM     17  F   UNL     1      47.134   2.357  17.897  0.00  0.00    +0.000 F 
ENDBRANCH  14  15
ENDBRANCH  12  14
ENDBRANCH   6   8
BRANCH   1  18
ATOM     18  C   UNL     1      44.102   4.839  11.436  0.00  0.00    +0.000 C 
ATOM     19  C   UNL     1      43.689   3.800  12.463  0.00  0.00    +0.000 C 
ATOM     20  C   UNL     1      42.745   4.908  12.138  0.00  0.00    +0.000 C 
BRANCH  18  21
ATOM     21  N   UNL     1      44.051   4.570  10.006  0.00  0.00    +0.000 N 
ATOM     22  H   UNL     1      43.433   5.115   9.413  0.00  0.00    +0.000 HD
BRANCH  21  26
ATOM     23  C   UNL     1      46.697   2.688   7.492  0.00  0.00    +0.000 A 
ATOM     24  C   UNL     1      46.538   4.061   7.527  0.00  0.00    +0.000 A 
ATOM     25  N   UNL     1      45.677   4.673   8.380  0.00  0.00    +0.000 NA
ATOM     26  C   UNL     1      44.956   3.883   9.210  0.00  0.00    +0.000 A 
ATOM     27  C   UNL     1      45.126   2.502   9.165  0.00  0.00    +0.000 A 
ATOM     28  N   UNL     1      45.993   1.873   8.317  0.00  0.00    +0.000 NA
BRANCH  23  30
ATOM     29  N   UNL     1      48.306   1.585   5.782  0.00  0.00    +0.000 NA
ATOM     30  C   UNL     1      47.611   2.081   6.567  0.00  0.00    +0.000 C 
ENDBRANCH  23  30
ENDBRANCH  21  26
ENDBRANCH  18  21
ENDBRANCH   1  18
TORSDOF 7
ENDMDL
MODEL 5
REMARK VINA RESULT:    -7.617      4.694      7.909
REMARK INTER + INTRA:         -11.924
REMARK INTER:                 -11.468
REMARK INTRA:                  -0.456
REMARK UNBOUND:                -1.191
REMARK  Name = 
REMARK  7 active torsions:
REMARK  status: ('A' for Active; 'I' for Inactive)
REMARK    1  A    between atoms: C_2  and  C_3
REMARK    2  A    between atoms: C_6  and  N_7
REMARK    3  A    between atoms: N_7  and  C_8
REMARK    4  A    between atoms: C_8  and  C_9
REMARK    5  A    between atoms: C_14  and  C_15
REMARK    6  A    between atoms: C_19  and  O_20
REMARK    7  A    between atoms: O_20  and  C_21
REMARK                            x       y       z     vdW  Elec       q    Type
REMARK                         _______ _______ _______ _____ _____    ______ ____
ROOT
ATOM      1  C   UNL     1      47.141   7.568  12.321  0.00  0.00    +0.000 A 
ATOM      2  C   UNL     1      46.091   8.409  12.722  0.00  0.00    +0.000 A 
ATOM      3  C   UNL     1      44.793   8.205  12.259  0.00  0.00    +0.000 A 
ATOM      4  C   UNL     1      44.516   7.127  11.419  0.00  0.00    +0.000 A 
ATOM      5  F   UNL     1      43.260   7.001  10.963  0.00  0.00    +0.000 F 
ATOM      6  C   UNL     1      45.507   6.205  11.054  0.00  0.00    +0.000 A 
ATOM      7  C   UNL     1      46.813   6.457  11.523  0.00  0.00    +0.000 A 
ENDROOT
BRANCH   6   8
ATOM      8  C   UNL     1      45.246   5.022  10.204  0.00  0.00    +0.000 A 
ATOM      9  C   UNL     1      44.593   3.896  10.742  0.00  0.00    +0.000 A 
ATOM     10  C   UNL     1      44.389   2.742   9.990  0.00  0.00    +0.000 A 
ATOM     11  C   UNL     1      44.808   2.702   8.665  0.00  0.00    +0.000 A 
ATOM     12  C   UNL     1      45.418   3.813   8.085  0.00  0.00    +0.000 A 
ATOM     13  C   UNL     1      45.659   4.956   8.858  0.00  0.00    +0.000 A 
BRANCH  12  14
ATOM     14  O   UNL     1      45.774   3.652   6.775  0.00  0.00    +0.000 OA
BRANCH  14  15
ATOM     15  C   UNL     1      46.776   2.682   6.532  0.00  0.00    +0.000 C 
ATOM     16  F   UNL     1      47.079   2.690   5.211  0.00  0.00    +0.000 F 
ATOM     17  F   UNL     1      47.893   3.090   7.189  0.00  0.00    +0.000 F 
ENDBRANCH  14  15
ENDBRANCH  12  14
ENDBRANCH   6   8
BRANCH   1  18
ATOM     18  C   UNL     1      48.593   7.913  12.632  0.00  0.00    +0.000 C 
ATOM     19  C   UNL     1      49.591   7.970  11.490  0.00  0.00    +0.000 C 
ATOM     20  C   UNL     1      49.053   9.247  12.042  0.00  0.00    +0.000 C 
BRANCH  18  21
ATOM     21  N   UNL     1      49.008   7.663  14.005  0.00  0.00    +0.000 N 
ATOM     22  H   UNL     1      49.437   8.407  14.545  0.00  0.00    +0.000 HD
BRANCH  21  26
ATOM     23  C   UNL     1      47.720   4.595  16.413  0.00  0.00    +0.000 A 
ATOM     24  C   UNL     1      47.526   4.611  15.044  0.00  0.00    +0.000 A 
ATOM     25  N   UNL     1      47.978   5.620  14.255  0.00  0.00    +0.000 NA
ATOM     26  C   UNL     1      48.633   6.638  14.862  0.00  0.00    +0.000 A 
ATOM     27  C   UNL     1      48.823   6.609  16.241  0.00  0.00    +0.000 A 
ATOM     28  N   UNL     1      48.379   5.598  17.045  0.00  0.00    +0.000 NA
BRANCH  23  30
ATOM     29  N   UNL     1      46.754   2.657  17.841  0.00  0.00    +0.000 NA
ATOM     30  C   UNL     1      47.216   3.514  17.210  0.00  0.00    +0.000 C 
ENDBRANCH  23  30
ENDBRANCH  21  26
ENDBRANCH  18  21
ENDBRANCH   1  18
TORSDOF 7
ENDMDL
MODEL 6
REMARK VINA RESULT:    -7.557      5.203      8.274
REMARK INTER + INTRA:         -11.840
REMARK INTER:                 -10.625
REMARK INTRA:                  -1.215
REMARK UNBOUND:                -1.191
REMARK  Name = 
REMARK  7 active torsions:
REMARK  status: ('A' for Active; 'I' for Inactive)
REMARK    1  A    between atoms: C_2  and  C_3
REMARK    2  A    between atoms: C_6  and  N_7
REMARK    3  A    between atoms: N_7  and  C_8
REMARK    4  A    between atoms: C_8  and  C_9
REMARK    5  A    between atoms: C_14  and  C_15
REMARK    6  A    between atoms: C_19  and  O_20
REMARK    7  A    between atoms: O_20  and  C_21
REMARK                            x       y       z     vdW  Elec       q    Type
REMARK                         _______ _______ _______ _____ _____    ______ ____
ROOT
ATOM      1  C   UNL     1      47.305   7.707  12.465  0.00  0.00    +0.000 A 
ATOM      2  C   UNL     1      46.250   8.514  12.921  0.00  0.00    +0.000 A 
ATOM      3  C   UNL     1      44.942   8.289  12.495  0.00  0.00    +0.000 A 
ATOM      4  C   UNL     1      44.663   7.226  11.638  0.00  0.00    +0.000 A 
ATOM      5  F   UNL     1      43.396   7.081  11.220  0.00  0.00    +0.000 F 
ATOM      6  C   UNL     1      45.662   6.337  11.219  0.00  0.00    +0.000 A 
ATOM      7  C   UNL     1      46.977   6.609  11.652  0.00  0.00    +0.000 A 
ENDROOT
BRANCH   6   8
ATOM      8  C   UNL     1      45.401   5.169  10.349  0.00  0.00    +0.000 A 
ATOM      9  C   UNL     1      44.735   4.040  10.864  0.00  0.00    +0.000 A 
ATOM     10  C   UNL     1      44.529   2.898  10.092  0.00  0.00    +0.000 A 
ATOM     11  C   UNL     1      44.960   2.875   8.771  0.00  0.00    +0.000 A 
ATOM     12  C   UNL     1      45.584   3.990   8.213  0.00  0.00    +0.000 A 
ATOM     13  C   UNL     1      45.826   5.119   9.006  0.00  0.00    +0.000 A 
BRANCH  12  14
ATOM     14  O   UNL     1      45.951   3.846   6.905  0.00  0.00    +0.000 OA
BRANCH  14  15
ATOM     15  C   UNL     1      46.678   2.669   6.603  0.00  0.00    +0.000 C 
ATOM     16  F   UNL     1      46.895   2.622   5.266  0.00  0.00    +0.000 F 
ATOM     17  F   UNL     1      47.896   2.792   7.191  0.00  0.00    +0.000 F 
ENDBRANCH  14  15
ENDBRANCH  12  14
ENDBRANCH   6   8
BRANCH   1  18
ATOM     18  C   UNL     1      48.758   8.080  12.738  0.00  0.00    +0.000 C 
ATOM     19  C   UNL     1      49.815   7.693  11.719  0.00  0.00    +0.000 C 
ATOM     20  C   UNL     1      49.331   9.103  11.757  0.00  0.00    +0.000 C 
BRANCH  18  21
ATOM     21  N   UNL     1      49.086   8.308  14.138  0.00  0.00    +0.000 N 
ATOM     22  H   UNL     1      48.757   9.149  14.602  0.00  0.00    +0.000 HD
BRANCH  21  26
ATOM     23  C   UNL     1      50.587   5.633  16.869  0.00  0.00    +0.000 A 
ATOM     24  C   UNL     1      51.352   6.630  16.292  0.00  0.00    +0.000 A 
ATOM     25  N   UNL     1      50.838   7.524  15.409  0.00  0.00    +0.000 NA
ATOM     26  C   UNL     1      49.526   7.404  15.094  0.00  0.00    +0.000 A 
ATOM     27  C   UNL     1      48.767   6.397  15.683  0.00  0.00    +0.000 A 
ATOM     28  N   UNL     1      49.269   5.495  16.578  0.00  0.00    +0.000 NA
BRANCH  23  30
ATOM     29  N   UNL     1      51.693   3.945  18.498  0.00  0.00    +0.000 NA
ATOM     30  C   UNL     1      51.174   4.703  17.791  0.00  0.00    +0.000 C 
ENDBRANCH  23  30
ENDBRANCH  21  26
ENDBRANCH  18  21
ENDBRANCH   1  18
TORSDOF 7
ENDMDL
MODEL 7
REMARK VINA RESULT:    -7.545      3.971      4.668
REMARK INTER + INTRA:         -11.824
REMARK INTER:                 -10.725
REMARK INTRA:                  -1.098
REMARK UNBOUND:                -1.191
REMARK  Name = 
REMARK  7 active torsions:
REMARK  status: ('A' for Active; 'I' for Inactive)
REMARK    1  A    between atoms: C_2  and  C_3
REMARK    2  A    between atoms: C_6  and  N_7
REMARK    3  A    between atoms: N_7  and  C_8
REMARK    4  A    between atoms: C_8  and  C_9
REMARK    5  A    between atoms: C_14  and  C_15
REMARK    6  A    between atoms: C_19  and  O_20
REMARK    7  A    between atoms: O_20  and  C_21
REMARK                            x       y       z     vdW  Elec       q    Type
REMARK                         _______ _______ _______ _____ _____    ______ ____
ROOT
ATOM      1  C   UNL     1      44.648   6.614  11.363  0.00  0.00    +0.000 A 
ATOM      2  C   UNL     1      43.932   7.812  11.206  0.00  0.00    +0.000 A 
ATOM      3  C   UNL     1      44.511   9.039  11.523  0.00  0.00    +0.000 A 
ATOM      4  C   UNL     1      45.833   9.090  11.963  0.00  0.00    +0.000 A 
ATOM      5  F   UNL     1      46.329  10.291  12.300  0.00  0.00    +0.000 F 
ATOM      6  C   UNL     1      46.623   7.936  12.057  0.00  0.00    +0.000 A 
ATOM      7  C   UNL     1      45.996   6.711  11.749  0.00  0.00    +0.000 A 
ENDROOT
BRANCH   6   8
ATOM      8  C   UNL     1      48.043   7.953  12.473  0.00  0.00    +0.000 A 
ATOM      9  C   UNL     1      48.414   7.461  13.739  0.00  0.00    +0.000 A 
ATOM     10  C   UNL     1      49.731   7.520  14.189  0.00  0.00    +0.000 A 
ATOM     11  C   UNL     1      50.716   8.048  13.362  0.00  0.00    +0.000 A 
ATOM     12  C   UNL     1      50.394   8.505  12.085  0.00  0.00    +0.000 A 
ATOM     13  C   UNL     1      49.062   8.481  11.654  0.00  0.00    +0.000 A 
BRANCH  12  14
ATOM     14  O   UNL     1      51.452   8.990  11.368  0.00  0.00    +0.000 OA
BRANCH  14  15
ATOM     15  C   UNL     1      52.196   8.022  10.650  0.00  0.00    +0.000 C 
ATOM     16  F   UNL     1      51.346   7.066  10.200  0.00  0.00    +0.000 F 
ATOM     17  F   UNL     1      52.701   8.642   9.552  0.00  0.00    +0.000 F 
ENDBRANCH  14  15
ENDBRANCH  12  14
ENDBRANCH   6   8
BRANCH   1  18
ATOM     18  C   UNL     1      43.959   5.260  11.242  0.00  0.00    +0.000 C 
ATOM     19  C   UNL     1      43.901   4.357  12.461  0.00  0.00    +0.000 C 
ATOM     20  C   UNL     1      42.686   5.134  12.080  0.00  0.00    +0.000 C 
BRANCH  18  21
ATOM     21  N   UNL     1      43.867   4.731   9.888  0.00  0.00    +0.000 N 
ATOM     22  H   UNL     1      43.167   5.097   9.250  0.00  0.00    +0.000 HD
BRANCH  21  26
ATOM     23  C   UNL     1      46.607   2.712   7.590  0.00  0.00    +0.000 A 
ATOM     24  C   UNL     1      46.471   4.088   7.565  0.00  0.00    +0.000 A 
ATOM     25  N   UNL     1      45.577   4.746   8.347  0.00  0.00    +0.000 NA
ATOM     26  C   UNL     1      44.800   4.000   9.167  0.00  0.00    +0.000 A 
ATOM     27  C   UNL     1      44.948   2.615   9.184  0.00  0.00    +0.000 A 
ATOM     28  N   UNL     1      45.847   1.941   8.406  0.00  0.00    +0.000 NA
BRANCH  23  30
ATOM     29  N   UNL     1      48.333   1.485   6.091  0.00  0.00    +0.000 NA
ATOM     30  C   UNL     1      47.558   2.056   6.738  0.00  0.00    +0.000 C 
ENDBRANCH  23  30
ENDBRANCH  21  26
ENDBRANCH  18  21
ENDBRANCH   1  18
TORSDOF 7
ENDMDL
MODEL 8
REMARK VINA RESULT:    -6.954      5.061      7.698
REMARK INTER + INTRA:         -10.990
REMARK INTER:                  -9.756
REMARK INTRA:                  -1.235
REMARK UNBOUND:                -1.191
REMARK  Name = 
REMARK  7 active torsions:
REMARK  status: ('A' for Active; 'I' for Inactive)
REMARK    1  A    between atoms: C_2  and  C_3
REMARK    2  A    between atoms: C_6  and  N_7
REMARK    3  A    between atoms: N_7  and  C_8
REMARK    4  A    between atoms: C_8  and  C_9
REMARK    5  A    between atoms: C_14  and  C_15
REMARK    6  A    between atoms: C_19  and  O_20
REMARK    7  A    between atoms: O_20  and  C_21
REMARK                            x       y       z     vdW  Elec       q    Type
REMARK                         _______ _______ _______ _____ _____    ______ ____
ROOT
ATOM      1  C   UNL     1      47.454   7.415  13.045  0.00  0.00    +0.000 A 
ATOM      2  C   UNL     1      46.609   8.519  13.247  0.00  0.00    +0.000 A 
ATOM      3  C   UNL     1      45.372   8.600  12.609  0.00  0.00    +0.000 A 
ATOM      4  C   UNL     1      44.942   7.557  11.791  0.00  0.00    +0.000 A 
ATOM      5  F   UNL     1      43.764   7.704  11.164  0.00  0.00    +0.000 F 
ATOM      6  C   UNL     1      45.704   6.393  11.621  0.00  0.00    +0.000 A 
ATOM      7  C   UNL     1      46.959   6.356  12.263  0.00  0.00    +0.000 A 
ENDROOT
BRANCH   6   8
ATOM      8  C   UNL     1      45.263   5.243  10.801  0.00  0.00    +0.000 A 
ATOM      9  C   UNL     1      44.558   4.179  11.397  0.00  0.00    +0.000 A 
ATOM     10  C   UNL     1      44.184   3.051  10.669  0.00  0.00    +0.000 A 
ATOM     11  C   UNL     1      44.482   2.980   9.313  0.00  0.00    +0.000 A 
ATOM     12  C   UNL     1      45.140   4.033   8.679  0.00  0.00    +0.000 A 
ATOM     13  C   UNL     1      45.550   5.145   9.424  0.00  0.00    +0.000 A 
BRANCH  12  14
ATOM     14  O   UNL     1      45.364   3.845   7.344  0.00  0.00    +0.000 OA
BRANCH  14  15
ATOM     15  C   UNL     1      46.704   3.553   6.987  0.00  0.00    +0.000 C 
ATOM     16  F   UNL     1      47.127   2.493   7.718  0.00  0.00    +0.000 F 
ATOM     17  F   UNL     1      46.692   3.152   5.690  0.00  0.00    +0.000 F 
ENDBRANCH  14  15
ENDBRANCH  12  14
ENDBRANCH   6   8
BRANCH   1  18
ATOM     18  C   UNL     1      48.892   7.420  13.547  0.00  0.00    +0.000 C 
ATOM     19  C   UNL     1      49.219   8.175  14.823  0.00  0.00    +0.000 C 
ATOM     20  C   UNL     1      49.088   6.690  14.877  0.00  0.00    +0.000 C 
BRANCH  18  21
ATOM     21  N   UNL     1      49.902   7.149  12.534  0.00  0.00    +0.000 N 
ATOM     22  H   UNL     1      50.018   6.206  12.177  0.00  0.00    +0.000 HD
BRANCH  21  26
ATOM     23  C   UNL     1      52.043   9.643  10.071  0.00  0.00    +0.000 A 
ATOM     24  C   UNL     1      52.207   8.270  10.079  0.00  0.00    +0.000 A 
ATOM     25  N   UNL     1      51.476   7.453  10.881  0.00  0.00    +0.000 NA
ATOM     26  C   UNL     1      50.565   8.036  11.697  0.00  0.00    +0.000 A 
ATOM     27  C   UNL     1      50.409   9.419  11.678  0.00  0.00    +0.000 A 
ATOM     28  N   UNL     1      51.134  10.252  10.872  0.00  0.00    +0.000 NA
BRANCH  23  30
ATOM     29  N   UNL     1      53.473  11.106   8.476  0.00  0.00    +0.000 NA
ATOM     30  C   UNL     1      52.845  10.469   9.215  0.00  0.00    +0.000 C 
ENDBRANCH  23  30
ENDBRANCH  21  26
ENDBRANCH  18  21
ENDBRANCH   1  18
TORSDOF 7
ENDMDL
MODEL 9
REMARK VINA RESULT:    -6.521      4.814      7.905
REMARK INTER + INTRA:         -10.380
REMARK INTER:                  -8.999
REMARK INTRA:                  -1.381
REMARK UNBOUND:                -1.191
REMARK  Name = 
REMARK  7 active torsions:
REMARK  status: ('A' for Active; 'I' for Inactive)
REMARK    1  A    between atoms: C_2  and  C_3
REMARK    2  A    between atoms: C_6  and  N_7
REMARK    3  A    between atoms: N_7  and  C_8
REMARK    4  A    between atoms: C_8  and  C_9
REMARK    5  A    between atoms: C_14  and  C_15
REMARK    6  A    between atoms: C_19  and  O_20
REMARK    7  A    between atoms: O_20  and  C_21
REMARK                            x       y       z     vdW  Elec       q    Type
REMARK                         _______ _______ _______ _____ _____    ______ ____
ROOT
ATOM      1  C   UNL     1      48.776   8.193  15.103  0.00  0.00    +0.000 A 
ATOM      2  C   UNL     1      49.888   8.584  14.339  0.00  0.00    +0.000 A 
ATOM      3  C   UNL     1      49.946   8.317  12.972  0.00  0.00    +0.000 A 
ATOM      4  C   UNL     1      48.873   7.692  12.340  0.00  0.00    +0.000 A 
ATOM      5  F   UNL     1      48.998   7.416  11.032  0.00  0.00    +0.000 F 
ATOM      6  C   UNL     1      47.703   7.357  13.035  0.00  0.00    +0.000 A 
ATOM      7  C   UNL     1      47.689   7.621  14.420  0.00  0.00    +0.000 A 
ENDROOT
BRANCH   6   8
ATOM      8  C   UNL     1      46.523   6.736  12.392  0.00  0.00    +0.000 A 
ATOM      9  C   UNL     1      45.512   7.546  11.840  0.00  0.00    +0.000 A 
ATOM     10  C   UNL     1      44.358   6.997  11.285  0.00  0.00    +0.000 A 
ATOM     11  C   UNL     1      44.207   5.615  11.242  0.00  0.00    +0.000 A 
ATOM     12  C   UNL     1      45.206   4.781  11.739  0.00  0.00    +0.000 A 
ATOM     13  C   UNL     1      46.345   5.339  12.333  0.00  0.00    +0.000 A 
BRANCH  12  14
ATOM     14  O   UNL     1      44.942   3.444  11.629  0.00  0.00    +0.000 OA
BRANCH  14  15
ATOM     15  C   UNL     1      43.764   3.113  10.916  0.00  0.00    +0.000 C 
ATOM     16  F   UNL     1      44.099   2.327   9.864  0.00  0.00    +0.000 F 
ATOM     17  F   UNL     1      43.000   2.353  11.742  0.00  0.00    +0.000 F 
ENDBRANCH  14  15
ENDBRANCH  12  14
ENDBRANCH   6   8
BRANCH   1  18
ATOM     18  C   UNL     1      48.798   8.270  16.625  0.00  0.00    +0.000 C 
ATOM     19  C   UNL     1      49.746   9.249  17.294  0.00  0.00    +0.000 C 
ATOM     20  C   UNL     1      48.301   9.603  17.186  0.00  0.00    +0.000 C 
BRANCH  18  21
ATOM     21  N   UNL     1      48.308   7.083  17.312  0.00  0.00    +0.000 N 
ATOM     22  H   UNL     1      47.357   7.063  17.666  0.00  0.00    +0.000 HD
BRANCH  21  26
ATOM     23  C   UNL     1      50.023   3.352  17.282  0.00  0.00    +0.000 A 
ATOM     24  C   UNL     1      50.630   4.456  17.854  0.00  0.00    +0.000 A 
ATOM     25  N   UNL     1      50.042   5.679  17.879  0.00  0.00    +0.000 NA
ATOM     26  C   UNL     1      48.819   5.793  17.308  0.00  0.00    +0.000 A 
ATOM     27  C   UNL     1      48.219   4.674  16.737  0.00  0.00    +0.000 A 
ATOM     28  N   UNL     1      48.797   3.436  16.710  0.00  0.00    +0.000 NA
BRANCH  23  30
ATOM     29  N   UNL     1      51.273   1.079  17.260  0.00  0.00    +0.000 NA
ATOM     30  C   UNL     1      50.686   2.079  17.269  0.00  0.00    +0.000 C 
ENDBRANCH  23  30
ENDBRANCH  21  26
ENDBRANCH  18  21
ENDBRANCH   1  18
TORSDOF 7
ENDMDL
