MODEL 1
REMARK VINA RESULT:    -7.866      0.000      0.000
REMARK INTER + INTRA:         -10.575
REMARK INTER:                  -9.935
REMARK INTRA:                  -0.640
REMARK UNBOUND:                -0.640
REMARK  Name = 
REMARK  7 active torsions:
REMARK  status: ('A' for Active; 'I' for Inactive)
REMARK    1  A    between atoms: C_1  and  C_2
REMARK    2  A    between atoms: C_2  and  C_3
REMARK    3  A    between atoms: N_6  and  C_7
REMARK    4  A    between atoms: C_7  and  C_8
REMARK    5  A    between atoms: C_11  and  O_12
REMARK    6  A    between atoms: O_12  and  C_13
REMARK    7  A    between atoms: C_22  and  N_23
REMARK                            x       y       z     vdW  Elec       q    Type
REMARK                         _______ _______ _______ _____ _____    ______ ____
ROOT
ATOM      1  C   UNL     1      44.331   4.376  11.455  0.00  0.00    +0.000 C 
ATOM      2  C   UNL     1      43.041   3.662  11.854  0.00  0.00    +0.000 C 
ATOM      3  C   UNL     1      44.318   3.303  12.529  0.00  0.00    +0.000 C 
ENDROOT
BRANCH   1   9
ATOM      4  C   UNL     1      48.325   7.489  11.754  0.00  0.00    +0.000 C 
ATOM      5  C   UNL     1      47.453   7.273  13.004  0.00  0.00    +0.000 C 
ATOM      6  C   UNL     1      48.354   7.210  14.242  0.00  0.00    +0.000 C 
ATOM      7  C   UNL     1      46.620   5.996  12.853  0.00  0.00    +0.000 C 
ATOM      8  C   UNL     1      45.348   6.557  12.278  0.00  0.00    +0.000 C 
ATOM      9  N   UNL     1      44.359   5.815  11.704  0.00  0.00    +0.000 N 
ATOM     10  N   UNL     1      45.208   7.847  12.373  0.00  0.00    +0.000 NA
ATOM     11  C   UNL     1      46.335   8.323  13.174  0.00  0.00    +0.000 C 
ATOM     12  H   UNL     1      43.602   6.384  11.331  0.00  0.00    +0.000 HD
BRANCH  11  13
ATOM     13  N   UNL     1      46.672   9.676  12.803  0.00  0.00    +0.000 NA
ATOM     14  H   UNL     1      46.463   9.780  11.813  0.00  0.00    +0.000 HD
ATOM     15  H   UNL     1      47.665   9.842  12.926  0.00  0.00    +0.000 HD
ENDBRANCH  11  13
ENDBRANCH   1   9
BRANCH   1  16
ATOM     16  C   UNL     1      44.962   3.994  10.119  0.00  0.00    +0.000 A 
ATOM     17  C   UNL     1      44.963   2.662   9.671  0.00  0.00    +0.000 A 
ATOM     18  C   UNL     1      45.452   2.312   8.407  0.00  0.00    +0.000 A 
ATOM     19  C   UNL     1      45.930   3.299   7.548  0.00  0.00    +0.000 A 
ATOM     20  C   UNL     1      46.023   4.611   8.007  0.00  0.00    +0.000 A 
ATOM     21  C   UNL     1      45.551   4.951   9.278  0.00  0.00    +0.000 A 
BRANCH  19  22
ATOM     22  O   UNL     1      46.372   3.095   6.277  0.00  0.00    +0.000 OA
BRANCH  22  23
ATOM     23  C   UNL     1      47.530   2.295   6.076  0.00  0.00    +0.000 C 
ATOM     24  F   UNL     1      48.544   2.554   6.928  0.00  0.00    +0.000 F 
ATOM     25  F   UNL     1      47.190   0.995   6.226  0.00  0.00    +0.000 F 
ATOM     26  F   UNL     1      47.970   2.470   4.811  0.00  0.00    +0.000 F 
ENDBRANCH  22  23
ENDBRANCH  19  22
ENDBRANCH   1  16
TORSDOF 5
ENDMDL
MODEL 2
REMARK VINA RESULT:    -7.642      1.582      2.146
REMARK INTER + INTRA:         -10.292
REMARK INTER:                 -10.150
REMARK INTRA:                  -0.142
REMARK UNBOUND:                -0.640
REMARK  Name = 
REMARK  7 active torsions:
REMARK  status: ('A' for Active; 'I' for Inactive)
REMARK    1  A    between atoms: C_1  and  C_2
REMARK    2  A    between atoms: C_2  and  C_3
REMARK    3  A    between atoms: N_6  and  C_7
REMARK    4  A    between atoms: C_7  and  C_8
REMARK    5  A    between atoms: C_11  and  O_12
REMARK    6  A    between atoms: O_12  and  C_13
REMARK    7  A    between atoms: C_22  and  N_23
REMARK                            x       y       z     vdW  Elec       q    Type
REMARK                         _______ _______ _______ _____ _____    ______ ____
ROOT
ATOM      1  C   UNL     1      44.755   4.467  12.224  0.00  0.00    +0.000 C 
ATOM      2  C   UNL     1      43.731   5.535  12.601  0.00  0.00    +0.000 C 
ATOM      3  C   UNL     1      43.427   4.102  12.861  0.00  0.00    +0.000 C 
ENDROOT
BRANCH   1   9
ATOM      4  C   UNL     1      47.313   8.563  13.778  0.00  0.00    +0.000 C 
ATOM      5  C   UNL     1      47.938   7.658  12.701  0.00  0.00    +0.000 C 
ATOM      6  C   UNL     1      48.649   8.529  11.660  0.00  0.00    +0.000 C 
ATOM      7  C   UNL     1      46.859   6.783  12.054  0.00  0.00    +0.000 C 
ATOM      8  C   UNL     1      46.957   5.544  12.902  0.00  0.00    +0.000 C 
ATOM      9  N   UNL     1      46.034   4.541  12.926  0.00  0.00    +0.000 N 
ATOM     10  N   UNL     1      48.026   5.448  13.639  0.00  0.00    +0.000 NA
ATOM     11  C   UNL     1      48.881   6.575  13.266  0.00  0.00    +0.000 C 
ATOM     12  H   UNL     1      46.256   3.813  13.602  0.00  0.00    +0.000 HD
BRANCH  11  13
ATOM     13  N   UNL     1      49.701   6.968  14.386  0.00  0.00    +0.000 NA
ATOM     14  H   UNL     1      49.679   7.984  14.435  0.00  0.00    +0.000 HD
ATOM     15  H   UNL     1      50.664   6.689  14.238  0.00  0.00    +0.000 HD
ENDBRANCH  11  13
ENDBRANCH   1   9
BRANCH   1  16
ATOM     16  C   UNL     1      44.913   4.136  10.742  0.00  0.00    +0.000 A 
ATOM     17  C   UNL     1      45.428   5.080   9.838  0.00  0.00    +0.000 A 
ATOM     18  C   UNL     1      45.667   4.760   8.497  0.00  0.00    +0.000 A 
ATOM     19  C   UNL     1      45.417   3.470   8.034  0.00  0.00    +0.000 A 
ATOM     20  C   UNL     1      44.820   2.546   8.890  0.00  0.00    +0.000 A 
ATOM     21  C   UNL     1      44.566   2.878  10.223  0.00  0.00    +0.000 A 
BRANCH  19  22
ATOM     22  O   UNL     1      45.665   3.019   6.775  0.00  0.00    +0.000 OA
BRANCH  22  23
ATOM     23  C   UNL     1      46.921   2.411   6.501  0.00  0.00    +0.000 C 
ATOM     24  F   UNL     1      47.941   2.869   7.257  0.00  0.00    +0.000 F 
ATOM     25  F   UNL     1      46.815   1.080   6.718  0.00  0.00    +0.000 F 
ATOM     26  F   UNL     1      47.227   2.599   5.199  0.00  0.00    +0.000 F 
ENDBRANCH  22  23
ENDBRANCH  19  22
ENDBRANCH   1  16
TORSDOF 5
ENDMDL
MODEL 3
REMARK VINA RESULT:    -6.548      2.403      2.923
REMARK INTER + INTRA:          -8.910
REMARK INTER:                  -8.763
REMARK INTRA:                  -0.147
REMARK UNBOUND:                -0.640
REMARK  Name = 
REMARK  7 active torsions:
REMARK  status: ('A' for Active; 'I' for Inactive)
REMARK    1  A    between atoms: C_1  and  C_2
REMARK    2  A    between atoms: C_2  and  C_3
REMARK    3  A    between atoms: N_6  and  C_7
REMARK    4  A    between atoms: C_7  and  C_8
REMARK    5  A    between atoms: C_11  and  O_12
REMARK    6  A    between atoms: O_12  and  C_13
REMARK    7  A    between atoms: C_22  and  N_23
REMARK                            x       y       z     vdW  Elec       q    Type
REMARK                         _______ _______ _______ _____ _____    ______ ____
ROOT
ATOM      1  C   UNL     1      45.036   4.620  12.308  0.00  0.00    +0.000 C 
ATOM      2  C   UNL     1      43.712   5.168  12.836  0.00  0.00    +0.000 C 
ATOM      3  C   UNL     1      44.105   3.767  13.149  0.00  0.00    +0.000 C 
ENDROOT
BRANCH   1   9
ATOM      4  C   UNL     1      48.321   3.094  15.860  0.00  0.00    +0.000 C 
ATOM      5  C   UNL     1      47.488   4.364  16.111  0.00  0.00    +0.000 C 
ATOM      6  C   UNL     1      47.064   4.407  17.583  0.00  0.00    +0.000 C 
ATOM      7  C   UNL     1      46.273   4.393  15.178  0.00  0.00    +0.000 C 
ATOM      8  C   UNL     1      46.821   5.191  14.027  0.00  0.00    +0.000 C 
ATOM      9  N   UNL     1      46.237   5.291  12.799  0.00  0.00    +0.000 N 
ATOM     10  N   UNL     1      47.926   5.837  14.265  0.00  0.00    +0.000 NA
ATOM     11  C   UNL     1      48.198   5.668  15.692  0.00  0.00    +0.000 C 
ATOM     12  H   UNL     1      46.788   5.837  12.141  0.00  0.00    +0.000 HD
BRANCH  11  13
ATOM     13  N   UNL     1      49.619   5.725  15.936  0.00  0.00    +0.000 NA
ATOM     14  H   UNL     1      50.037   6.254  15.174  0.00  0.00    +0.000 HD
ATOM     15  H   UNL     1      50.021   4.794  15.919  0.00  0.00    +0.000 HD
ENDBRANCH  11  13
ENDBRANCH   1   9
BRANCH   1  16
ATOM     16  C   UNL     1      45.114   4.281  10.822  0.00  0.00    +0.000 A 
ATOM     17  C   UNL     1      45.611   5.208   9.890  0.00  0.00    +0.000 A 
ATOM     18  C   UNL     1      45.776   4.877   8.541  0.00  0.00    +0.000 A 
ATOM     19  C   UNL     1      45.471   3.593   8.096  0.00  0.00    +0.000 A 
ATOM     20  C   UNL     1      44.891   2.688   8.983  0.00  0.00    +0.000 A 
ATOM     21  C   UNL     1      44.709   3.031  10.326  0.00  0.00    +0.000 A 
BRANCH  19  22
ATOM     22  O   UNL     1      45.646   3.132   6.828  0.00  0.00    +0.000 OA
BRANCH  22  23
ATOM     23  C   UNL     1      46.919   2.618   6.458  0.00  0.00    +0.000 C 
ATOM     24  F   UNL     1      47.932   2.995   7.266  0.00  0.00    +0.000 F 
ATOM     25  F   UNL     1      46.863   1.266   6.475  0.00  0.00    +0.000 F 
ATOM     26  F   UNL     1      47.202   3.009   5.197  0.00  0.00    +0.000 F 
ENDBRANCH  22  23
ENDBRANCH  19  22
ENDBRANCH   1  16
TORSDOF 5
ENDMDL
MODEL 4
REMARK VINA RESULT:    -6.117      4.129      6.154
REMARK INTER + INTRA:          -8.366
REMARK INTER:                  -7.393
REMARK INTRA:                  -0.972
REMARK UNBOUND:                -0.640
REMARK  Name = 
REMARK  7 active torsions:
REMARK  status: ('A' for Active; 'I' for Inactive)
REMARK    1  A    between atoms: C_1  and  C_2
REMARK    2  A    between atoms: C_2  and  C_3
REMARK    3  A    between atoms: N_6  and  C_7
REMARK    4  A    between atoms: C_7  and  C_8
REMARK    5  A    between atoms: C_11  and  O_12
REMARK    6  A    between atoms: O_12  and  C_13
REMARK    7  A    between atoms: C_22  and  N_23
REMARK                            x       y       z     vdW  Elec       q    Type
REMARK                         _______ _______ _______ _____ _____    ______ ____
ROOT
ATOM      1  C   UNL     1      48.517   7.417  13.004  0.00  0.00    +0.000 C 
ATOM      2  C   UNL     1      48.913   7.876  11.603  0.00  0.00    +0.000 C 
ATOM      3  C   UNL     1      48.253   8.835  12.531  0.00  0.00    +0.000 C 
ENDROOT
BRANCH   1   9
ATOM      4  C   UNL     1      48.384   5.888  17.840  0.00  0.00    +0.000 C 
ATOM      5  C   UNL     1      49.117   7.196  17.491  0.00  0.00    +0.000 C 
ATOM      6  C   UNL     1      48.854   8.231  18.591  0.00  0.00    +0.000 C 
ATOM      7  C   UNL     1      48.662   7.709  16.121  0.00  0.00    +0.000 C 
ATOM      8  C   UNL     1      49.705   7.092  15.229  0.00  0.00    +0.000 C 
ATOM      9  N   UNL     1      49.620   7.010  13.871  0.00  0.00    +0.000 N 
ATOM     10  N   UNL     1      50.761   6.631  15.834  0.00  0.00    +0.000 NA
ATOM     11  C   UNL     1      50.629   7.016  17.239  0.00  0.00    +0.000 C 
ATOM     12  H   UNL     1      50.404   6.514  13.454  0.00  0.00    +0.000 HD
BRANCH  11  13
ATOM     13  N   UNL     1      51.304   6.059  18.082  0.00  0.00    +0.000 NA
ATOM     14  H   UNL     1      52.284   6.052  17.807  0.00  0.00    +0.000 HD
ATOM     15  H   UNL     1      50.935   5.127  17.929  0.00  0.00    +0.000 HD
ENDBRANCH  11  13
ENDBRANCH   1   9
BRANCH   1  16
ATOM     16  C   UNL     1      47.300   6.503  13.127  0.00  0.00    +0.000 A 
ATOM     17  C   UNL     1      46.005   6.980  12.865  0.00  0.00    +0.000 A 
ATOM     18  C   UNL     1      44.892   6.131  12.882  0.00  0.00    +0.000 A 
ATOM     19  C   UNL     1      45.057   4.771  13.136  0.00  0.00    +0.000 A 
ATOM     20  C   UNL     1      46.319   4.295  13.488  0.00  0.00    +0.000 A 
ATOM     21  C   UNL     1      47.423   5.152  13.490  0.00  0.00    +0.000 A 
BRANCH  19  22
ATOM     22  O   UNL     1      44.068   3.837  13.118  0.00  0.00    +0.000 OA
BRANCH  22  23
ATOM     23  C   UNL     1      43.582   3.380  11.863  0.00  0.00    +0.000 C 
ATOM     24  F   UNL     1      43.074   2.130  11.880  0.00  0.00    +0.000 F 
ATOM     25  F   UNL     1      42.602   4.215  11.447  0.00  0.00    +0.000 F 
ATOM     26  F   UNL     1      44.584   3.429  10.959  0.00  0.00    +0.000 F 
ENDBRANCH  22  23
ENDBRANCH  19  22
ENDBRANCH   1  16
TORSDOF 5
ENDMDL
MODEL 5
REMARK VINA RESULT:    -5.815      4.718      7.066
REMARK INTER + INTRA:          -7.985
REMARK INTER:                  -8.017
REMARK INTRA:                   0.032
REMARK UNBOUND:                -0.640
REMARK  Name = 
REMARK  7 active torsions:
REMARK  status: ('A' for Active; 'I' for Inactive)
REMARK    1  A    between atoms: C_1  and  C_2
REMARK    2  A    between atoms: C_2  and  C_3
REMARK    3  A    between atoms: N_6  and  C_7
REMARK    4  A    between atoms: C_7  and  C_8
REMARK    5  A    between atoms: C_11  and  O_12
REMARK    6  A    between atoms: O_12  and  C_13
REMARK    7  A    between atoms: C_22  and  N_23
REMARK                            x       y       z     vdW  Elec       q    Type
REMARK                         _______ _______ _______ _____ _____    ______ ____
ROOT
ATOM      1  C   UNL     1      44.781   6.020  11.178  0.00  0.00    +0.000 C 
ATOM      2  C   UNL     1      43.388   5.397  11.115  0.00  0.00    +0.000 C 
ATOM      3  C   UNL     1      43.532   6.845  11.428  0.00  0.00    +0.000 C 
ENDROOT
BRANCH   1   9
ATOM      4  C   UNL     1      44.381   2.831   7.253  0.00  0.00    +0.000 C 
ATOM      5  C   UNL     1      45.688   2.852   8.067  0.00  0.00    +0.000 C 
ATOM      6  C   UNL     1      46.211   1.419   8.217  0.00  0.00    +0.000 C 
ATOM      7  C   UNL     1      45.450   3.505   9.432  0.00  0.00    +0.000 C 
ATOM      8  C   UNL     1      45.822   4.931   9.129  0.00  0.00    +0.000 C 
ATOM      9  N   UNL     1      45.540   5.997   9.930  0.00  0.00    +0.000 N 
ATOM     10  N   UNL     1      46.480   5.118   8.022  0.00  0.00    +0.000 NA
ATOM     11  C   UNL     1      46.769   3.788   7.488  0.00  0.00    +0.000 C 
ATOM     12  H   UNL     1      45.832   6.885   9.527  0.00  0.00    +0.000 HD
BRANCH  11  13
ATOM     13  N   UNL     1      46.861   3.839   6.049  0.00  0.00    +0.000 NA
ATOM     14  H   UNL     1      47.644   4.446   5.817  0.00  0.00    +0.000 HD
ATOM     15  H   UNL     1      46.024   4.253   5.653  0.00  0.00    +0.000 HD
ENDBRANCH  11  13
ENDBRANCH   1   9
BRANCH   1  16
ATOM     16  C   UNL     1      45.640   5.699  12.399  0.00  0.00    +0.000 A 
ATOM     17  C   UNL     1      45.690   4.400  12.931  0.00  0.00    +0.000 A 
ATOM     18  C   UNL     1      46.545   4.071  13.989  0.00  0.00    +0.000 A 
ATOM     19  C   UNL     1      47.394   5.037  14.524  0.00  0.00    +0.000 A 
ATOM     20  C   UNL     1      47.295   6.352  14.073  0.00  0.00    +0.000 A 
ATOM     21  C   UNL     1      46.425   6.678  13.029  0.00  0.00    +0.000 A 
BRANCH  19  22
ATOM     22  O   UNL     1      48.311   4.828  15.507  0.00  0.00    +0.000 OA
BRANCH  22  23
ATOM     23  C   UNL     1      47.990   3.930  16.562  0.00  0.00    +0.000 C 
ATOM     24  F   UNL     1      46.782   4.139  17.126  0.00  0.00    +0.000 F 
ATOM     25  F   UNL     1      48.003   2.668  16.076  0.00  0.00    +0.000 F 
ATOM     26  F   UNL     1      48.938   4.019  17.519  0.00  0.00    +0.000 F 
ENDBRANCH  22  23
ENDBRANCH  19  22
ENDBRANCH   1  16
TORSDOF 5
ENDMDL
MODEL 6
REMARK VINA RESULT:    -5.732      4.788      6.810
REMARK INTER + INTRA:          -7.880
REMARK INTER:                  -7.013
REMARK INTRA:                  -0.867
REMARK UNBOUND:                -0.640
REMARK  Name = 
REMARK  7 active torsions:
REMARK  status: ('A' for Active; 'I' for Inactive)
REMARK    1  A    between atoms: C_1  and  C_2
REMARK    2  A    between atoms: C_2  and  C_3
REMARK    3  A    between atoms: N_6  and  C_7
REMARK    4  A    between atoms: C_7  and  C_8
REMARK    5  A    between atoms: C_11  and  O_12
REMARK    6  A    between atoms: O_12  and  C_13
REMARK    7  A    between atoms: C_22  and  N_23
REMARK                            x       y       z     vdW  Elec       q    Type
REMARK                         _______ _______ _______ _____ _____    ______ ____
ROOT
ATOM      1  C   UNL     1      48.523   7.861  14.564  0.00  0.00    +0.000 C 
ATOM      2  C   UNL     1      49.281   9.116  14.139  0.00  0.00    +0.000 C 
ATOM      3  C   UNL     1      48.279   9.199  15.236  0.00  0.00    +0.000 C 
ENDROOT
BRANCH   1   9
ATOM      4  C   UNL     1      47.210   4.155  17.770  0.00  0.00    +0.000 C 
ATOM      5  C   UNL     1      48.249   5.197  18.221  0.00  0.00    +0.000 C 
ATOM      6  C   UNL     1      48.014   5.540  19.696  0.00  0.00    +0.000 C 
ATOM      7  C   UNL     1      48.164   6.446  17.337  0.00  0.00    +0.000 C 
ATOM      8  C   UNL     1      49.198   6.123  16.294  0.00  0.00    +0.000 C 
ATOM      9  N   UNL     1      49.344   6.782  15.110  0.00  0.00    +0.000 N 
ATOM     10  N   UNL     1      50.010   5.149  16.589  0.00  0.00    +0.000 NA
ATOM     11  C   UNL     1      49.710   4.770  17.969  0.00  0.00    +0.000 C 
ATOM     12  H   UNL     1      50.069   6.382  14.519  0.00  0.00    +0.000 HD
BRANCH  11  13
ATOM     13  N   UNL     1      50.010   3.374  18.178  0.00  0.00    +0.000 NA
ATOM     14  H   UNL     1      50.438   3.026  17.323  0.00  0.00    +0.000 HD
ATOM     15  H   UNL     1      49.157   2.847  18.331  0.00  0.00    +0.000 HD
ENDBRANCH  11  13
ENDBRANCH   1   9
BRANCH   1  16
ATOM     16  C   UNL     1      47.423   7.355  13.635  0.00  0.00    +0.000 A 
ATOM     17  C   UNL     1      47.408   6.024  13.185  0.00  0.00    +0.000 A 
ATOM     18  C   UNL     1      46.356   5.521  12.410  0.00  0.00    +0.000 A 
ATOM     19  C   UNL     1      45.275   6.340  12.089  0.00  0.00    +0.000 A 
ATOM     20  C   UNL     1      45.314   7.686  12.447  0.00  0.00    +0.000 A 
ATOM     21  C   UNL     1      46.378   8.186  13.203  0.00  0.00    +0.000 A 
BRANCH  19  22
ATOM     22  O   UNL     1      44.168   5.953  11.400  0.00  0.00    +0.000 OA
BRANCH  22  23
ATOM     23  C   UNL     1      43.089   5.363  12.114  0.00  0.00    +0.000 C 
ATOM     24  F   UNL     1      43.211   5.416  13.457  0.00  0.00    +0.000 F 
ATOM     25  F   UNL     1      41.946   6.006  11.781  0.00  0.00    +0.000 F 
ATOM     26  F   UNL     1      42.968   4.072  11.739  0.00  0.00    +0.000 F 
ENDBRANCH  22  23
ENDBRANCH  19  22
ENDBRANCH   1  16
TORSDOF 5
ENDMDL
MODEL 7
REMARK VINA RESULT:    -5.619      5.216      7.818
REMARK INTER + INTRA:          -7.737
REMARK INTER:                  -7.273
REMARK INTRA:                  -0.464
REMARK UNBOUND:                -0.640
REMARK  Name = 
REMARK  7 active torsions:
REMARK  status: ('A' for Active; 'I' for Inactive)
REMARK    1  A    between atoms: C_1  and  C_2
REMARK    2  A    between atoms: C_2  and  C_3
REMARK    3  A    between atoms: N_6  and  C_7
REMARK    4  A    between atoms: C_7  and  C_8
REMARK    5  A    between atoms: C_11  and  O_12
REMARK    6  A    between atoms: O_12  and  C_13
REMARK    7  A    between atoms: C_22  and  N_23
REMARK                            x       y       z     vdW  Elec       q    Type
REMARK                         _______ _______ _______ _____ _____    ______ ____
ROOT
ATOM      1  C   UNL     1      47.241   7.513  12.807  0.00  0.00    +0.000 C 
ATOM      2  C   UNL     1      47.884   8.889  12.641  0.00  0.00    +0.000 C 
ATOM      3  C   UNL     1      48.230   7.797  11.690  0.00  0.00    +0.000 C 
ENDROOT
BRANCH   1   9
ATOM      4  C   UNL     1      44.230   3.524  11.938  0.00  0.00    +0.000 C 
ATOM      5  C   UNL     1      44.328   4.631  10.872  0.00  0.00    +0.000 C 
ATOM      6  C   UNL     1      44.325   3.991   9.479  0.00  0.00    +0.000 C 
ATOM      7  C   UNL     1      45.588   5.472  11.097  0.00  0.00    +0.000 C 
ATOM      8  C   UNL     1      45.035   6.583  11.948  0.00  0.00    +0.000 C 
ATOM      9  N   UNL     1      45.788   7.473  12.655  0.00  0.00    +0.000 N 
ATOM     10  N   UNL     1      43.737   6.684  11.969  0.00  0.00    +0.000 NA
ATOM     11  C   UNL     1      43.236   5.714  10.996  0.00  0.00    +0.000 C 
ATOM     12  H   UNL     1      45.228   8.118  13.207  0.00  0.00    +0.000 HD
BRANCH  11  13
ATOM     13  N   UNL     1      41.925   5.254  11.383  0.00  0.00    +0.000 NA
ATOM     14  H   UNL     1      41.454   4.938  10.538  0.00  0.00    +0.000 HD
ATOM     15  H   UNL     1      41.380   6.016  11.771  0.00  0.00    +0.000 HD
ENDBRANCH  11  13
ENDBRANCH   1   9
BRANCH   1  16
ATOM     16  C   UNL     1      47.740   6.637  13.952  0.00  0.00    +0.000 A 
ATOM     17  C   UNL     1      48.661   7.128  14.894  0.00  0.00    +0.000 A 
ATOM     18  C   UNL     1      49.055   6.369  16.002  0.00  0.00    +0.000 A 
ATOM     19  C   UNL     1      48.511   5.102  16.207  0.00  0.00    +0.000 A 
ATOM     20  C   UNL     1      47.669   4.561  15.238  0.00  0.00    +0.000 A 
ATOM     21  C   UNL     1      47.295   5.317  14.123  0.00  0.00    +0.000 A 
BRANCH  19  22
ATOM     22  O   UNL     1      48.764   4.296  17.273  0.00  0.00    +0.000 OA
BRANCH  22  23
ATOM     23  C   UNL     1      47.722   4.053  18.209  0.00  0.00    +0.000 C 
ATOM     24  F   UNL     1      46.754   4.993  18.226  0.00  0.00    +0.000 F 
ATOM     25  F   UNL     1      47.139   2.870  17.910  0.00  0.00    +0.000 F 
ATOM     26  F   UNL     1      48.255   3.956  19.445  0.00  0.00    +0.000 F 
ENDBRANCH  22  23
ENDBRANCH  19  22
ENDBRANCH   1  16
TORSDOF 5
ENDMDL
MODEL 8
REMARK VINA RESULT:    -5.610      4.444      6.439
REMARK INTER + INTRA:          -7.725
REMARK INTER:                  -6.534
REMARK INTRA:                  -1.191
REMARK UNBOUND:                -0.640
REMARK  Name = 
REMARK  7 active torsions:
REMARK  status: ('A' for Active; 'I' for Inactive)
REMARK    1  A    between atoms: C_1  and  C_2
REMARK    2  A    between atoms: C_2  and  C_3
REMARK    3  A    between atoms: N_6  and  C_7
REMARK    4  A    between atoms: C_7  and  C_8
REMARK    5  A    between atoms: C_11  and  O_12
REMARK    6  A    between atoms: O_12  and  C_13
REMARK    7  A    between atoms: C_22  and  N_23
REMARK                            x       y       z     vdW  Elec       q    Type
REMARK                         _______ _______ _______ _____ _____    ______ ____
ROOT
ATOM      1  C   UNL     1      48.539   9.078  12.743  0.00  0.00    +0.000 C 
ATOM      2  C   UNL     1      48.992  10.130  11.733  0.00  0.00    +0.000 C 
ATOM      3  C   UNL     1      48.262  10.554  12.959  0.00  0.00    +0.000 C 
ENDROOT
BRANCH   1   9
ATOM      4  C   UNL     1      48.207   5.483  16.308  0.00  0.00    +0.000 C 
ATOM      5  C   UNL     1      48.918   6.806  16.646  0.00  0.00    +0.000 C 
ATOM      6  C   UNL     1      48.569   7.213  18.082  0.00  0.00    +0.000 C 
ATOM      7  C   UNL     1      48.518   7.893  15.644  0.00  0.00    +0.000 C 
ATOM      8  C   UNL     1      49.622   7.762  14.631  0.00  0.00    +0.000 C 
ATOM      9  N   UNL     1      49.609   8.319  13.387  0.00  0.00    +0.000 N 
ATOM     10  N   UNL     1      50.660   7.077  15.015  0.00  0.00    +0.000 NA
ATOM     11  C   UNL     1      50.445   6.767  16.428  0.00  0.00    +0.000 C 
ATOM     12  H   UNL     1      50.427   8.074  12.834  0.00  0.00    +0.000 HD
BRANCH  11  13
ATOM     13  N   UNL     1      51.105   5.530  16.772  0.00  0.00    +0.000 NA
ATOM     14  H   UNL     1      52.105   5.716  16.790  0.00  0.00    +0.000 HD
ATOM     15  H   UNL     1      50.936   4.827  16.061  0.00  0.00    +0.000 HD
ENDBRANCH  11  13
ENDBRANCH   1   9
BRANCH   1  16
ATOM     16  C   UNL     1      47.343   8.209  12.364  0.00  0.00    +0.000 A 
ATOM     17  C   UNL     1      47.511   7.022  11.630  0.00  0.00    +0.000 A 
ATOM     18  C   UNL     1      46.436   6.168  11.357  0.00  0.00    +0.000 A 
ATOM     19  C   UNL     1      45.165   6.472  11.840  0.00  0.00    +0.000 A 
ATOM     20  C   UNL     1      44.959   7.688  12.490  0.00  0.00    +0.000 A 
ATOM     21  C   UNL     1      46.034   8.546  12.742  0.00  0.00    +0.000 A 
BRANCH  19  22
ATOM     22  O   UNL     1      44.058   5.696  11.697  0.00  0.00    +0.000 OA
BRANCH  22  23
ATOM     23  C   UNL     1      43.715   4.794  12.742  0.00  0.00    +0.000 C 
ATOM     24  F   UNL     1      43.364   3.560  12.324  0.00  0.00    +0.000 F 
ATOM     25  F   UNL     1      44.779   4.661  13.566  0.00  0.00    +0.000 F 
ATOM     26  F   UNL     1      42.695   5.317  13.456  0.00  0.00    +0.000 F 
ENDBRANCH  22  23
ENDBRANCH  19  22
ENDBRANCH   1  16
TORSDOF 5
ENDMDL
MODEL 9
REMARK VINA RESULT:    -5.353      3.875      6.552
REMARK INTER + INTRA:          -7.401
REMARK INTER:                  -6.348
REMARK INTRA:                  -1.053
REMARK UNBOUND:                -0.640
REMARK  Name = 
REMARK  7 active torsions:
REMARK  status: ('A' for Active; 'I' for Inactive)
REMARK    1  A    between atoms: C_1  and  C_2
REMARK    2  A    between atoms: C_2  and  C_3
REMARK    3  A    between atoms: N_6  and  C_7
REMARK    4  A    between atoms: C_7  and  C_8
REMARK    5  A    between atoms: C_11  and  O_12
REMARK    6  A    between atoms: O_12  and  C_13
REMARK    7  A    between atoms: C_22  and  N_23
REMARK                            x       y       z     vdW  Elec       q    Type
REMARK                         _______ _______ _______ _____ _____    ______ ____
ROOT
ATOM      1  C   UNL     1      44.123   5.109  12.043  0.00  0.00    +0.000 C 
ATOM      2  C   UNL     1      42.936   5.096  13.004  0.00  0.00    +0.000 C 
ATOM      3  C   UNL     1      42.792   5.735  11.667  0.00  0.00    +0.000 C 
ENDROOT
BRANCH   1   9
ATOM      4  C   UNL     1      46.730   3.892   7.864  0.00  0.00    +0.000 C 
ATOM      5  C   UNL     1      45.303   3.342   8.040  0.00  0.00    +0.000 C 
ATOM      6  C   UNL     1      44.586   3.358   6.685  0.00  0.00    +0.000 C 
ATOM      7  C   UNL     1      44.543   4.165   9.084  0.00  0.00    +0.000 C 
ATOM      8  C   UNL     1      44.817   3.364  10.328  0.00  0.00    +0.000 C 
ATOM      9  N   UNL     1      44.592   3.798  11.600  0.00  0.00    +0.000 N 
ATOM     10  N   UNL     1      45.282   2.164  10.133  0.00  0.00    +0.000 NA
ATOM     11  C   UNL     1      45.249   1.942   8.688  0.00  0.00    +0.000 C 
ATOM     12  H   UNL     1      44.887   3.128  12.306  0.00  0.00    +0.000 HD
BRANCH  11  13
ATOM     13  N   UNL     1      46.293   1.023   8.303  0.00  0.00    +0.000 NA
ATOM     14  H   UNL     1      46.025   0.619   7.408  0.00  0.00    +0.000 HD
ATOM     15  H   UNL     1      46.364   0.265   8.972  0.00  0.00    +0.000 HD
ENDBRANCH  11  13
ENDBRANCH   1   9
BRANCH   1  16
ATOM     16  C   UNL     1      45.265   6.073  12.350  0.00  0.00    +0.000 A 
ATOM     17  C   UNL     1      46.399   5.651  13.065  0.00  0.00    +0.000 A 
ATOM     18  C   UNL     1      47.495   6.497  13.272  0.00  0.00    +0.000 A 
ATOM     19  C   UNL     1      47.490   7.785  12.740  0.00  0.00    +0.000 A 
ATOM     20  C   UNL     1      46.340   8.254  12.108  0.00  0.00    +0.000 A 
ATOM     21  C   UNL     1      45.242   7.410  11.922  0.00  0.00    +0.000 A 
BRANCH  19  22
ATOM     22  O   UNL     1      48.515   8.676  12.818  0.00  0.00    +0.000 OA
BRANCH  22  23
ATOM     23  C   UNL     1      49.537   8.631  11.830  0.00  0.00    +0.000 C 
ATOM     24  F   UNL     1      49.436   7.598  10.967  0.00  0.00    +0.000 F 
ATOM     25  F   UNL     1      49.494   9.774  11.109  0.00  0.00    +0.000 F 
ATOM     26  F   UNL     1      50.738   8.568  12.444  0.00  0.00    +0.000 F 
ENDBRANCH  22  23
ENDBRANCH  19  22
ENDBRANCH   1  16
TORSDOF 5
ENDMDL
