MODEL 1
REMARK VINA RESULT:    -6.121      0.000      0.000
REMARK INTER + INTRA:          -9.462
REMARK INTER:                  -8.268
REMARK INTRA:                  -1.194
REMARK UNBOUND:                -1.194
REMARK  Name = 
REMARK  7 active torsions:
REMARK  status: ('A' for Active; 'I' for Inactive)
REMARK    1  A    between atoms: C_1  and  C_2
REMARK    2  A    between atoms: C_9  and  C_10
REMARK    3  A    between atoms: N_12  and  C_13
REMARK    4  A    between atoms: C_13  and  C_14
REMARK    5  A    between atoms: C_17  and  C_18
REMARK    6  A    between atoms: C_19  and  C_20
REMARK    7  A    between atoms: C_20  and  N_21
REMARK                            x       y       z     vdW  Elec       q    Type
REMARK                         _______ _______ _______ _____ _____    ______ ____
ROOT
ATOM      1  C   UNL     1      49.753   5.232  19.846  0.00  0.00    +0.000 C 
ENDROOT
BRANCH   1   2
ATOM      2  C   UNL     1      48.968   4.909  18.608  0.00  0.00    +0.000 A 
ATOM      3  C   UNL     1      48.970   5.777  17.508  0.00  0.00    +0.000 A 
ATOM      4  C   UNL     1      48.277   5.447  16.338  0.00  0.00    +0.000 A 
ATOM      5  C   UNL     1      47.573   4.243  16.248  0.00  0.00    +0.000 A 
ATOM      6  C   UNL     1      47.521   3.407  17.371  0.00  0.00    +0.000 A 
ATOM      7  C   UNL     1      48.214   3.732  18.538  0.00  0.00    +0.000 A 
BRANCH   5   8
ATOM      8  C   UNL     1      46.844   3.915  15.016  0.00  0.00    +0.000 C 
ATOM      9  C   UNL     1      46.565   4.825  14.067  0.00  0.00    +0.000 C 
BRANCH   9  10
ATOM     10  C   UNL     1      45.983   4.497  12.724  0.00  0.00    +0.000 C 
BRANCH  10  11
ATOM     11  N   UNL     1      44.574   4.103  12.858  0.00  0.00    +0.000 NA
ATOM     12  C   UNL     1      44.144   3.251  11.727  0.00  0.00    +0.000 C 
ATOM     13  C   UNL     1      43.918   4.019  10.410  0.00  0.00    +0.000 C 
ATOM     14  O   UNL     1      43.009   5.112  10.580  0.00  0.00    +0.000 OA
ATOM     15  C   UNL     1      43.466   6.001  11.606  0.00  0.00    +0.000 C 
ATOM     16  C   UNL     1      43.644   5.256  12.936  0.00  0.00    +0.000 C 
ENDBRANCH  10  11
ENDBRANCH   9  10
ENDBRANCH   5   8
ENDBRANCH   1   2
BRANCH   1  19
ATOM     17  C   UNL     1      52.085   4.675  19.405  0.00  0.00    +0.000 C 
ATOM     18  O   UNL     1      52.231   5.715  18.771  0.00  0.00    +0.000 OA
ATOM     19  N   UNL     1      50.887   4.356  20.007  0.00  0.00    +0.000 N 
ATOM     20  H   UNL     1      50.730   3.423  20.366  0.00  0.00    +0.000 HD
BRANCH  17  29
ATOM     21  C   UNL     1      51.259   2.177  17.291  0.00  0.00    +0.000 C 
ATOM     22  C   UNL     1      52.567   1.743  17.879  0.00  0.00    +0.000 A 
ATOM     23  N   UNL     1      53.034   0.549  17.417  0.00  0.00    +0.000 NA
ATOM     24  C   UNL     1      54.189   0.067  17.891  0.00  0.00    +0.000 A 
ATOM     25  N   UNL     1      54.974   0.628  18.807  0.00  0.00    +0.000 NA
ATOM     26  C   UNL     1      54.497   1.803  19.250  0.00  0.00    +0.000 A 
ATOM     27  S   UNL     1      55.367   2.662  20.430  0.00  0.00    +0.000 S 
ATOM     28  C   UNL     1      54.216   3.914  20.447  0.00  0.00    +0.000 A 
ATOM     29  C   UNL     1      53.160   3.699  19.575  0.00  0.00    +0.000 A 
ATOM     30  C   UNL     1      53.324   2.441  18.853  0.00  0.00    +0.000 A 
ENDBRANCH  17  29
ENDBRANCH   1  19
TORSDOF 6
ENDMDL
MODEL 2
REMARK VINA RESULT:    -5.776      2.248      2.944
REMARK INTER + INTRA:          -8.996
REMARK INTER:                  -8.331
REMARK INTRA:                  -0.665
REMARK UNBOUND:                -1.194
REMARK  Name = 
REMARK  7 active torsions:
REMARK  status: ('A' for Active; 'I' for Inactive)
REMARK    1  A    between atoms: C_1  and  C_2
REMARK    2  A    between atoms: C_9  and  C_10
REMARK    3  A    between atoms: N_12  and  C_13
REMARK    4  A    between atoms: C_13  and  C_14
REMARK    5  A    between atoms: C_17  and  C_18
REMARK    6  A    between atoms: C_19  and  C_20
REMARK    7  A    between atoms: C_20  and  N_21
REMARK                            x       y       z     vdW  Elec       q    Type
REMARK                         _______ _______ _______ _____ _____    ______ ____
ROOT
ATOM      1  C   UNL     1      51.148   7.682  16.525  0.00  0.00    +0.000 C 
ENDROOT
BRANCH   1   2
ATOM      2  C   UNL     1      50.237   7.497  15.345  0.00  0.00    +0.000 A 
ATOM      3  C   UNL     1      50.552   8.055  14.099  0.00  0.00    +0.000 A 
ATOM      4  C   UNL     1      49.726   7.838  12.992  0.00  0.00    +0.000 A 
ATOM      5  C   UNL     1      48.572   7.058  13.110  0.00  0.00    +0.000 A 
ATOM      6  C   UNL     1      48.227   6.555  14.371  0.00  0.00    +0.000 A 
ATOM      7  C   UNL     1      49.051   6.766  15.477  0.00  0.00    +0.000 A 
BRANCH   5   8
ATOM      8  C   UNL     1      47.711   6.847  11.939  0.00  0.00    +0.000 C 
ATOM      9  C   UNL     1      46.518   6.233  12.011  0.00  0.00    +0.000 C 
BRANCH   9  10
ATOM     10  C   UNL     1      45.536   6.157  10.879  0.00  0.00    +0.000 C 
BRANCH  10  11
ATOM     11  N   UNL     1      44.901   4.832  10.840  0.00  0.00    +0.000 NA
ATOM     12  C   UNL     1      43.455   4.937  10.544  0.00  0.00    +0.000 C 
ATOM     13  C   UNL     1      42.603   5.433  11.727  0.00  0.00    +0.000 C 
ATOM     14  O   UNL     1      42.810   4.640  12.902  0.00  0.00    +0.000 OA
ATOM     15  C   UNL     1      44.197   4.612  13.260  0.00  0.00    +0.000 C 
ATOM     16  C   UNL     1      45.050   4.070  12.104  0.00  0.00    +0.000 C 
ENDBRANCH  10  11
ENDBRANCH   9  10
ENDBRANCH   5   8
ENDBRANCH   1   2
BRANCH   1  19
ATOM     17  C   UNL     1      51.703   5.917  18.111  0.00  0.00    +0.000 C 
ATOM     18  O   UNL     1      50.950   6.406  18.946  0.00  0.00    +0.000 OA
ATOM     19  N   UNL     1      51.850   6.467  16.856  0.00  0.00    +0.000 N 
ATOM     20  H   UNL     1      52.602   6.163  16.251  0.00  0.00    +0.000 HD
BRANCH  17  29
ATOM     21  C   UNL     1      49.723   3.381  17.089  0.00  0.00    +0.000 C 
ATOM     22  C   UNL     1      50.988   2.706  17.527  0.00  0.00    +0.000 A 
ATOM     23  N   UNL     1      50.991   1.351  17.386  0.00  0.00    +0.000 NA
ATOM     24  C   UNL     1      52.071   0.653  17.762  0.00  0.00    +0.000 A 
ATOM     25  N   UNL     1      53.192   1.137  18.289  0.00  0.00    +0.000 NA
ATOM     26  C   UNL     1      53.169   2.474  18.419  0.00  0.00    +0.000 A 
ATOM     27  S   UNL     1      54.518   3.267  19.082  0.00  0.00    +0.000 S 
ATOM     28  C   UNL     1      53.773   4.788  18.919  0.00  0.00    +0.000 A 
ATOM     29  C   UNL     1      52.499   4.718  18.375  0.00  0.00    +0.000 A 
ATOM     30  C   UNL     1      52.134   3.338  18.069  0.00  0.00    +0.000 A 
ENDBRANCH  17  29
ENDBRANCH   1  19
TORSDOF 6
ENDMDL
MODEL 3
REMARK VINA RESULT:    -5.618      7.362     10.441
REMARK INTER + INTRA:          -8.783
REMARK INTER:                  -7.897
REMARK INTRA:                  -0.886
REMARK UNBOUND:                -1.194
REMARK  Name = 
REMARK  7 active torsions:
REMARK  status: ('A' for Active; 'I' for Inactive)
REMARK    1  A    between atoms: C_1  and  C_2
REMARK    2  A    between atoms: C_9  and  C_10
REMARK    3  A    between atoms: N_12  and  C_13
REMARK    4  A    between atoms: C_13  and  C_14
REMARK    5  A    between atoms: C_17  and  C_18
REMARK    6  A    between atoms: C_19  and  C_20
REMARK    7  A    between atoms: C_20  and  N_21
REMARK                            x       y       z     vdW  Elec       q    Type
REMARK                         _______ _______ _______ _____ _____    ______ ____
ROOT
ATOM      1  C   UNL     1      46.830   7.874  13.597  0.00  0.00    +0.000 C 
ENDROOT
BRANCH   1   2
ATOM      2  C   UNL     1      48.057   8.187  12.787  0.00  0.00    +0.000 A 
ATOM      3  C   UNL     1      48.285   9.480  12.298  0.00  0.00    +0.000 A 
ATOM      4  C   UNL     1      49.453   9.777  11.588  0.00  0.00    +0.000 A 
ATOM      5  C   UNL     1      50.412   8.788  11.356  0.00  0.00    +0.000 A 
ATOM      6  C   UNL     1      50.151   7.481  11.791  0.00  0.00    +0.000 A 
ATOM      7  C   UNL     1      48.989   7.183  12.504  0.00  0.00    +0.000 A 
BRANCH   5   8
ATOM      8  C   UNL     1      51.629   9.114  10.601  0.00  0.00    +0.000 C 
ATOM      9  C   UNL     1      52.584   8.209  10.327  0.00  0.00    +0.000 C 
BRANCH   9  10
ATOM     10  C   UNL     1      53.748   8.456   9.414  0.00  0.00    +0.000 C 
BRANCH  10  11
ATOM     11  N   UNL     1      54.262   7.187   8.883  0.00  0.00    +0.000 NA
ATOM     12  C   UNL     1      55.090   7.405   7.676  0.00  0.00    +0.000 C 
ATOM     13  C   UNL     1      54.282   7.736   6.407  0.00  0.00    +0.000 C 
ATOM     14  O   UNL     1      53.276   6.752   6.145  0.00  0.00    +0.000 OA
ATOM     15  C   UNL     1      52.402   6.603   7.271  0.00  0.00    +0.000 C 
ATOM     16  C   UNL     1      53.193   6.221   8.529  0.00  0.00    +0.000 C 
ENDBRANCH  10  11
ENDBRANCH   9  10
ENDBRANCH   5   8
ENDBRANCH   1   2
BRANCH   1  19
ATOM     17  C   UNL     1      45.242   6.581  12.277  0.00  0.00    +0.000 C 
ATOM     18  O   UNL     1      44.859   7.599  11.709  0.00  0.00    +0.000 OA
ATOM     19  N   UNL     1      46.246   6.611  13.220  0.00  0.00    +0.000 N 
ATOM     20  H   UNL     1      46.421   5.804  13.804  0.00  0.00    +0.000 HD
BRANCH  17  29
ATOM     21  C   UNL     1      46.256   5.893   9.132  0.00  0.00    +0.000 C 
ATOM     22  C   UNL     1      45.499   4.669   9.550  0.00  0.00    +0.000 A 
ATOM     23  N   UNL     1      45.448   3.681   8.613  0.00  0.00    +0.000 NA
ATOM     24  C   UNL     1      44.783   2.551   8.885  0.00  0.00    +0.000 A 
ATOM     25  N   UNL     1      44.128   2.259  10.005  0.00  0.00    +0.000 NA
ATOM     26  C   UNL     1      44.190   3.245  10.915  0.00  0.00    +0.000 A 
ATOM     27  S   UNL     1      43.403   3.048  12.408  0.00  0.00    +0.000 S 
ATOM     28  C   UNL     1      43.911   4.582  12.940  0.00  0.00    +0.000 A 
ATOM     29  C   UNL     1      44.670   5.264  12.002  0.00  0.00    +0.000 A 
ATOM     30  C   UNL     1      44.844   4.468  10.790  0.00  0.00    +0.000 A 
ENDBRANCH  17  29
ENDBRANCH   1  19
TORSDOF 6
ENDMDL
MODEL 4
REMARK VINA RESULT:    -5.487      7.683      9.165
REMARK INTER + INTRA:          -8.605
REMARK INTER:                  -7.726
REMARK INTRA:                  -0.879
REMARK UNBOUND:                -1.194
REMARK  Name = 
REMARK  7 active torsions:
REMARK  status: ('A' for Active; 'I' for Inactive)
REMARK    1  A    between atoms: C_1  and  C_2
REMARK    2  A    between atoms: C_9  and  C_10
REMARK    3  A    between atoms: N_12  and  C_13
REMARK    4  A    between atoms: C_13  and  C_14
REMARK    5  A    between atoms: C_17  and  C_18
REMARK    6  A    between atoms: C_19  and  C_20
REMARK    7  A    between atoms: C_20  and  N_21
REMARK                            x       y       z     vdW  Elec       q    Type
REMARK                         _______ _______ _______ _____ _____    ______ ____
ROOT
ATOM      1  C   UNL     1      51.548  10.100  10.795  0.00  0.00    +0.000 C 
ENDROOT
BRANCH   1   2
ATOM      2  C   UNL     1      50.441   9.337  11.465  0.00  0.00    +0.000 A 
ATOM      3  C   UNL     1      49.310   9.999  11.963  0.00  0.00    +0.000 A 
ATOM      4  C   UNL     1      48.260   9.279  12.540  0.00  0.00    +0.000 A 
ATOM      5  C   UNL     1      48.320   7.885  12.628  0.00  0.00    +0.000 A 
ATOM      6  C   UNL     1      49.479   7.232  12.187  0.00  0.00    +0.000 A 
ATOM      7  C   UNL     1      50.527   7.948  11.607  0.00  0.00    +0.000 A 
BRANCH   5   8
ATOM      8  C   UNL     1      47.213   7.144  13.245  0.00  0.00    +0.000 C 
ATOM      9  C   UNL     1      46.498   6.216  12.588  0.00  0.00    +0.000 C 
BRANCH   9  10
ATOM     10  C   UNL     1      45.482   5.317  13.229  0.00  0.00    +0.000 C 
BRANCH  10  11
ATOM     11  N   UNL     1      44.145   5.579  12.680  0.00  0.00    +0.000 NA
ATOM     12  C   UNL     1      43.199   4.495  13.026  0.00  0.00    +0.000 C 
ATOM     13  C   UNL     1      43.399   3.200  12.216  0.00  0.00    +0.000 C 
ATOM     14  O   UNL     1      43.375   3.446  10.806  0.00  0.00    +0.000 OA
ATOM     15  C   UNL     1      44.358   4.422  10.441  0.00  0.00    +0.000 C 
ATOM     16  C   UNL     1      44.135   5.734  11.204  0.00  0.00    +0.000 C 
ENDBRANCH  10  11
ENDBRANCH   9  10
ENDBRANCH   5   8
ENDBRANCH   1   2
BRANCH   1  19
ATOM     17  C   UNL     1      53.219   9.121   9.316  0.00  0.00    +0.000 C 
ATOM     18  O   UNL     1      54.073   9.212  10.192  0.00  0.00    +0.000 OA
ATOM     19  N   UNL     1      51.915   9.514   9.530  0.00  0.00    +0.000 N 
ATOM     20  H   UNL     1      51.275   9.603   8.753  0.00  0.00    +0.000 HD
BRANCH  17  29
ATOM     21  C   UNL     1      53.460   5.789   9.798  0.00  0.00    +0.000 C 
ATOM     22  C   UNL     1      53.650   5.961   8.321  0.00  0.00    +0.000 A 
ATOM     23  N   UNL     1      53.839   4.802   7.630  0.00  0.00    +0.000 NA
ATOM     24  C   UNL     1      54.031   4.851   6.306  0.00  0.00    +0.000 A 
ATOM     25  N   UNL     1      54.072   5.939   5.543  0.00  0.00    +0.000 NA
ATOM     26  C   UNL     1      53.884   7.070   6.242  0.00  0.00    +0.000 A 
ATOM     27  S   UNL     1      53.909   8.563   5.431  0.00  0.00    +0.000 S 
ATOM     28  C   UNL     1      53.620   9.415   6.874  0.00  0.00    +0.000 A 
ATOM     29  C   UNL     1      53.510   8.592   7.984  0.00  0.00    +0.000 A 
ATOM     30  C   UNL     1      53.662   7.188   7.613  0.00  0.00    +0.000 A 
ENDBRANCH  17  29
ENDBRANCH   1  19
TORSDOF 6
ENDMDL
MODEL 5
REMARK VINA RESULT:    -5.427      3.515     10.260
REMARK INTER + INTRA:          -8.525
REMARK INTER:                  -7.957
REMARK INTRA:                  -0.567
REMARK UNBOUND:                -1.194
REMARK  Name = 
REMARK  7 active torsions:
REMARK  status: ('A' for Active; 'I' for Inactive)
REMARK    1  A    between atoms: C_1  and  C_2
REMARK    2  A    between atoms: C_9  and  C_10
REMARK    3  A    between atoms: N_12  and  C_13
REMARK    4  A    between atoms: C_13  and  C_14
REMARK    5  A    between atoms: C_17  and  C_18
REMARK    6  A    between atoms: C_19  and  C_20
REMARK    7  A    between atoms: C_20  and  N_21
REMARK                            x       y       z     vdW  Elec       q    Type
REMARK                         _______ _______ _______ _____ _____    ______ ____
ROOT
ATOM      1  C   UNL     1      47.143   3.309  16.593  0.00  0.00    +0.000 C 
ENDROOT
BRANCH   1   2
ATOM      2  C   UNL     1      48.574   3.417  17.035  0.00  0.00    +0.000 A 
ATOM      3  C   UNL     1      49.423   2.302  17.004  0.00  0.00    +0.000 A 
ATOM      4  C   UNL     1      50.768   2.421  17.369  0.00  0.00    +0.000 A 
ATOM      5  C   UNL     1      51.288   3.655  17.769  0.00  0.00    +0.000 A 
ATOM      6  C   UNL     1      50.422   4.752  17.860  0.00  0.00    +0.000 A 
ATOM      7  C   UNL     1      49.080   4.639  17.493  0.00  0.00    +0.000 A 
BRANCH   5   8
ATOM      8  C   UNL     1      52.700   3.760  18.158  0.00  0.00    +0.000 C 
ATOM      9  C   UNL     1      53.222   4.859  18.728  0.00  0.00    +0.000 C 
BRANCH   9  10
ATOM     10  C   UNL     1      54.607   4.942  19.298  0.00  0.00    +0.000 C 
BRANCH  10  11
ATOM     11  N   UNL     1      54.566   5.457  20.673  0.00  0.00    +0.000 NA
ATOM     12  C   UNL     1      53.358   6.282  20.902  0.00  0.00    +0.000 C 
ATOM     13  C   UNL     1      53.418   7.681  20.261  0.00  0.00    +0.000 C 
ATOM     14  O   UNL     1      54.590   8.400  20.662  0.00  0.00    +0.000 OA
ATOM     15  C   UNL     1      55.775   7.656  20.353  0.00  0.00    +0.000 C 
ATOM     16  C   UNL     1      55.748   6.279  21.030  0.00  0.00    +0.000 C 
ENDBRANCH  10  11
ENDBRANCH   9  10
ENDBRANCH   5   8
ENDBRANCH   1   2
BRANCH   1  19
ATOM     17  C   UNL     1      46.925   4.277  14.368  0.00  0.00    +0.000 C 
ATOM     18  O   UNL     1      47.341   3.242  13.858  0.00  0.00    +0.000 OA
ATOM     19  N   UNL     1      46.763   4.400  15.731  0.00  0.00    +0.000 N 
ATOM     20  H   UNL     1      46.596   5.308  16.145  0.00  0.00    +0.000 HD
BRANCH  17  29
ATOM     21  C   UNL     1      44.030   3.407  12.867  0.00  0.00    +0.000 C 
ATOM     22  C   UNL     1      44.260   4.822  12.428  0.00  0.00    +0.000 A 
ATOM     23  N   UNL     1      43.295   5.332  11.613  0.00  0.00    +0.000 NA
ATOM     24  C   UNL     1      43.416   6.584  11.156  0.00  0.00    +0.000 A 
ATOM     25  N   UNL     1      44.410   7.432  11.400  0.00  0.00    +0.000 NA
ATOM     26  C   UNL     1      45.351   6.911  12.204  0.00  0.00    +0.000 A 
ATOM     27  S   UNL     1      46.703   7.852  12.620  0.00  0.00    +0.000 S 
ATOM     28  C   UNL     1      47.353   6.599  13.569  0.00  0.00    +0.000 A 
ATOM     29  C   UNL     1      46.568   5.456  13.579  0.00  0.00    +0.000 A 
ATOM     30  C   UNL     1      45.368   5.637  12.768  0.00  0.00    +0.000 A 
ENDBRANCH  17  29
ENDBRANCH   1  19
TORSDOF 6
ENDMDL
MODEL 6
REMARK VINA RESULT:    -5.017      7.979      9.604
REMARK INTER + INTRA:          -7.971
REMARK INTER:                  -7.378
REMARK INTRA:                  -0.593
REMARK UNBOUND:                -1.194
REMARK  Name = 
REMARK  7 active torsions:
REMARK  status: ('A' for Active; 'I' for Inactive)
REMARK    1  A    between atoms: C_1  and  C_2
REMARK    2  A    between atoms: C_9  and  C_10
REMARK    3  A    between atoms: N_12  and  C_13
REMARK    4  A    between atoms: C_13  and  C_14
REMARK    5  A    between atoms: C_17  and  C_18
REMARK    6  A    between atoms: C_19  and  C_20
REMARK    7  A    between atoms: C_20  and  N_21
REMARK                            x       y       z     vdW  Elec       q    Type
REMARK                         _______ _______ _______ _____ _____    ______ ____
ROOT
ATOM      1  C   UNL     1      52.079   9.180  12.044  0.00  0.00    +0.000 C 
ENDROOT
BRANCH   1   2
ATOM      2  C   UNL     1      50.603   8.903  12.071  0.00  0.00    +0.000 A 
ATOM      3  C   UNL     1      49.675   9.930  11.853  0.00  0.00    +0.000 A 
ATOM      4  C   UNL     1      48.303   9.657  11.829  0.00  0.00    +0.000 A 
ATOM      5  C   UNL     1      47.836   8.354  12.020  0.00  0.00    +0.000 A 
ATOM      6  C   UNL     1      48.764   7.341  12.301  0.00  0.00    +0.000 A 
ATOM      7  C   UNL     1      50.133   7.609  12.321  0.00  0.00    +0.000 A 
BRANCH   5   8
ATOM      8  C   UNL     1      46.393   8.086  12.001  0.00  0.00    +0.000 C 
ATOM      9  C   UNL     1      45.876   6.887  11.682  0.00  0.00    +0.000 C 
BRANCH   9  10
ATOM     10  C   UNL     1      44.427   6.525  11.821  0.00  0.00    +0.000 C 
BRANCH  10  11
ATOM     11  N   UNL     1      44.196   5.813  13.085  0.00  0.00    +0.000 NA
ATOM     12  C   UNL     1      45.384   5.025  13.483  0.00  0.00    +0.000 C 
ATOM     13  C   UNL     1      45.589   3.736  12.665  0.00  0.00    +0.000 C 
ATOM     14  O   UNL     1      44.421   2.908  12.675  0.00  0.00    +0.000 OA
ATOM     15  C   UNL     1      43.280   3.629  12.195  0.00  0.00    +0.000 C 
ATOM     16  C   UNL     1      43.036   4.889  13.037  0.00  0.00    +0.000 C 
ENDBRANCH  10  11
ENDBRANCH   9  10
ENDBRANCH   5   8
ENDBRANCH   1   2
BRANCH   1  19
ATOM     17  C   UNL     1      53.633   9.030  10.173  0.00  0.00    +0.000 C 
ATOM     18  O   UNL     1      54.236   8.115  10.726  0.00  0.00    +0.000 OA
ATOM     19  N   UNL     1      52.521   9.612  10.741  0.00  0.00    +0.000 N 
ATOM     20  H   UNL     1      52.149  10.474  10.366  0.00  0.00    +0.000 HD
BRANCH  17  29
ATOM     21  C   UNL     1      52.624   6.691   7.958  0.00  0.00    +0.000 C 
ATOM     22  C   UNL     1      53.207   7.777   7.105  0.00  0.00    +0.000 A 
ATOM     23  N   UNL     1      53.158   7.541   5.764  0.00  0.00    +0.000 NA
ATOM     24  C   UNL     1      53.666   8.445   4.918  0.00  0.00    +0.000 A 
ATOM     25  N   UNL     1      54.249   9.597   5.235  0.00  0.00    +0.000 NA
ATOM     26  C   UNL     1      54.289   9.812   6.560  0.00  0.00    +0.000 A 
ATOM     27  S   UNL     1      55.005  11.235   7.151  0.00  0.00    +0.000 S 
ATOM     28  C   UNL     1      54.681  10.796   8.761  0.00  0.00    +0.000 A 
ATOM     29  C   UNL     1      54.040   9.572   8.877  0.00  0.00    +0.000 A 
ATOM     30  C   UNL     1      53.798   8.980   7.564  0.00  0.00    +0.000 A 
ENDBRANCH  17  29
ENDBRANCH   1  19
TORSDOF 6
ENDMDL
MODEL 7
REMARK VINA RESULT:    -4.970      4.473      6.954
REMARK INTER + INTRA:          -7.907
REMARK INTER:                  -7.206
REMARK INTRA:                  -0.702
REMARK UNBOUND:                -1.194
REMARK  Name = 
REMARK  7 active torsions:
REMARK  status: ('A' for Active; 'I' for Inactive)
REMARK    1  A    between atoms: C_1  and  C_2
REMARK    2  A    between atoms: C_9  and  C_10
REMARK    3  A    between atoms: N_12  and  C_13
REMARK    4  A    between atoms: C_13  and  C_14
REMARK    5  A    between atoms: C_17  and  C_18
REMARK    6  A    between atoms: C_19  and  C_20
REMARK    7  A    between atoms: C_20  and  N_21
REMARK                            x       y       z     vdW  Elec       q    Type
REMARK                         _______ _______ _______ _____ _____    ______ ____
ROOT
ATOM      1  C   UNL     1      45.825   8.955  12.878  0.00  0.00    +0.000 C 
ENDROOT
BRANCH   1   2
ATOM      2  C   UNL     1      45.581   7.587  12.306  0.00  0.00    +0.000 A 
ATOM      3  C   UNL     1      46.224   7.173  11.132  0.00  0.00    +0.000 A 
ATOM      4  C   UNL     1      46.032   5.881  10.632  0.00  0.00    +0.000 A 
ATOM      5  C   UNL     1      45.195   4.981  11.297  0.00  0.00    +0.000 A 
ATOM      6  C   UNL     1      44.504   5.419  12.435  0.00  0.00    +0.000 A 
ATOM      7  C   UNL     1      44.697   6.705  12.939  0.00  0.00    +0.000 A 
BRANCH   5   8
ATOM      8  C   UNL     1      44.998   3.631  10.754  0.00  0.00    +0.000 C 
ATOM      9  C   UNL     1      45.343   3.289   9.501  0.00  0.00    +0.000 C 
BRANCH   9  10
ATOM     10  C   UNL     1      45.322   1.886   8.970  0.00  0.00    +0.000 C 
BRANCH  10  11
ATOM     11  N   UNL     1      45.435   1.891   7.505  0.00  0.00    +0.000 NA
ATOM     12  C   UNL     1      46.509   0.982   7.046  0.00  0.00    +0.000 C 
ATOM     13  C   UNL     1      47.933   1.525   7.268  0.00  0.00    +0.000 C 
ATOM     14  O   UNL     1      48.104   2.825   6.690  0.00  0.00    +0.000 OA
ATOM     15  C   UNL     1      47.131   3.743   7.203  0.00  0.00    +0.000 C 
ATOM     16  C   UNL     1      45.707   3.235   6.940  0.00  0.00    +0.000 C 
ENDBRANCH  10  11
ENDBRANCH   9  10
ENDBRANCH   5   8
ENDBRANCH   1   2
BRANCH   1  19
ATOM     17  C   UNL     1      47.990   8.884  13.993  0.00  0.00    +0.000 C 
ATOM     18  O   UNL     1      48.568   8.964  12.914  0.00  0.00    +0.000 OA
ATOM     19  N   UNL     1      46.615   8.899  14.083  0.00  0.00    +0.000 N 
ATOM     20  H   UNL     1      46.158   8.651  14.950  0.00  0.00    +0.000 HD
BRANCH  17  29
ATOM     21  C   UNL     1      47.865   5.586  14.702  0.00  0.00    +0.000 C 
ATOM     22  C   UNL     1      48.674   6.172  15.820  0.00  0.00    +0.000 A 
ATOM     23  N   UNL     1      49.116   5.269  16.739  0.00  0.00    +0.000 NA
ATOM     24  C   UNL     1      49.837   5.694  17.784  0.00  0.00    +0.000 A 
ATOM     25  N   UNL     1      50.186   6.948  18.057  0.00  0.00    +0.000 NA
ATOM     26  C   UNL     1      49.741   7.822  17.139  0.00  0.00    +0.000 A 
ATOM     27  S   UNL     1      50.089   9.475  17.329  0.00  0.00    +0.000 S 
ATOM     28  C   UNL     1      49.262   9.869  15.896  0.00  0.00    +0.000 A 
ATOM     29  C   UNL     1      48.706   8.768  15.263  0.00  0.00    +0.000 A 
ATOM     30  C   UNL     1      48.994   7.540  15.998  0.00  0.00    +0.000 A 
ENDBRANCH  17  29
ENDBRANCH   1  19
TORSDOF 6
ENDMDL
MODEL 8
REMARK VINA RESULT:    -4.939      7.185      8.747
REMARK INTER + INTRA:          -7.866
REMARK INTER:                  -6.862
REMARK INTRA:                  -1.003
REMARK UNBOUND:                -1.194
REMARK  Name = 
REMARK  7 active torsions:
REMARK  status: ('A' for Active; 'I' for Inactive)
REMARK    1  A    between atoms: C_1  and  C_2
REMARK    2  A    between atoms: C_9  and  C_10
REMARK    3  A    between atoms: N_12  and  C_13
REMARK    4  A    between atoms: C_13  and  C_14
REMARK    5  A    between atoms: C_17  and  C_18
REMARK    6  A    between atoms: C_19  and  C_20
REMARK    7  A    between atoms: C_20  and  N_21
REMARK                            x       y       z     vdW  Elec       q    Type
REMARK                         _______ _______ _______ _____ _____    ______ ____
ROOT
ATOM      1  C   UNL     1      51.738   9.460  13.207  0.00  0.00    +0.000 C 
ENDROOT
BRANCH   1   2
ATOM      2  C   UNL     1      50.610   8.474  13.320  0.00  0.00    +0.000 A 
ATOM      3  C   UNL     1      50.282   7.895  14.553  0.00  0.00    +0.000 A 
ATOM      4  C   UNL     1      49.200   7.016  14.662  0.00  0.00    +0.000 A 
ATOM      5  C   UNL     1      48.426   6.703  13.541  0.00  0.00    +0.000 A 
ATOM      6  C   UNL     1      48.795   7.234  12.298  0.00  0.00    +0.000 A 
ATOM      7  C   UNL     1      49.872   8.114  12.187  0.00  0.00    +0.000 A 
BRANCH   5   8
ATOM      8  C   UNL     1      47.298   5.771  13.671  0.00  0.00    +0.000 C 
ATOM      9  C   UNL     1      46.178   5.871  12.934  0.00  0.00    +0.000 C 
BRANCH   9  10
ATOM     10  C   UNL     1      45.086   4.844  12.910  0.00  0.00    +0.000 C 
BRANCH  10  11
ATOM     11  N   UNL     1      44.197   5.068  11.762  0.00  0.00    +0.000 NA
ATOM     12  C   UNL     1      42.977   4.234  11.855  0.00  0.00    +0.000 C 
ATOM     13  C   UNL     1      43.204   2.746  11.530  0.00  0.00    +0.000 C 
ATOM     14  O   UNL     1      43.828   2.569  10.253  0.00  0.00    +0.000 OA
ATOM     15  C   UNL     1      45.063   3.291  10.184  0.00  0.00    +0.000 C 
ATOM     16  C   UNL     1      44.839   4.785  10.455  0.00  0.00    +0.000 C 
ENDBRANCH  10  11
ENDBRANCH   9  10
ENDBRANCH   5   8
ENDBRANCH   1   2
BRANCH   1  19
ATOM     17  C   UNL     1      53.296   9.489  11.333  0.00  0.00    +0.000 C 
ATOM     18  O   UNL     1      54.151   8.933  12.015  0.00  0.00    +0.000 OA
ATOM     19  N   UNL     1      52.043   9.772  11.832  0.00  0.00    +0.000 N 
ATOM     20  H   UNL     1      51.419  10.386  11.326  0.00  0.00    +0.000 HD
BRANCH  17  29
ATOM     21  C   UNL     1      52.473   6.754   9.535  0.00  0.00    +0.000 C 
ATOM     22  C   UNL     1      52.838   7.776   8.502  0.00  0.00    +0.000 A 
ATOM     23  N   UNL     1      52.729   7.350   7.212  0.00  0.00    +0.000 NA
ATOM     24  C   UNL     1      53.046   8.186   6.215  0.00  0.00    +0.000 A 
ATOM     25  N   UNL     1      53.483   9.436   6.328  0.00  0.00    +0.000 NA
ATOM     26  C   UNL     1      53.583   9.837   7.606  0.00  0.00    +0.000 A 
ATOM     27  S   UNL     1      54.132  11.410   7.943  0.00  0.00    +0.000 S 
ATOM     28  C   UNL     1      53.986  11.161   9.619  0.00  0.00    +0.000 A 
ATOM     29  C   UNL     1      53.532   9.893   9.948  0.00  0.00    +0.000 A 
ATOM     30  C   UNL     1      53.285   9.098   8.749  0.00  0.00    +0.000 A 
ENDBRANCH  17  29
ENDBRANCH   1  19
TORSDOF 6
ENDMDL
MODEL 9
REMARK VINA RESULT:    -4.692      3.781      5.027
REMARK INTER + INTRA:          -7.532
REMARK INTER:                  -6.268
REMARK INTRA:                  -1.264
REMARK UNBOUND:                -1.194
REMARK  Name = 
REMARK  7 active torsions:
REMARK  status: ('A' for Active; 'I' for Inactive)
REMARK    1  A    between atoms: C_1  and  C_2
REMARK    2  A    between atoms: C_9  and  C_10
REMARK    3  A    between atoms: N_12  and  C_13
REMARK    4  A    between atoms: C_13  and  C_14
REMARK    5  A    between atoms: C_17  and  C_18
REMARK    6  A    between atoms: C_19  and  C_20
REMARK    7  A    between atoms: C_20  and  N_21
REMARK                            x       y       z     vdW  Elec       q    Type
REMARK                         _______ _______ _______ _____ _____    ______ ____
ROOT
ATOM      1  C   UNL     1      51.576  10.104  14.179  0.00  0.00    +0.000 C 
ENDROOT
BRANCH   1   2
ATOM      2  C   UNL     1      50.240   9.666  13.649  0.00  0.00    +0.000 A 
ATOM      3  C   UNL     1      50.115   9.148  12.353  0.00  0.00    +0.000 A 
ATOM      4  C   UNL     1      48.878   8.695  11.883  0.00  0.00    +0.000 A 
ATOM      5  C   UNL     1      47.746   8.750  12.701  0.00  0.00    +0.000 A 
ATOM      6  C   UNL     1      47.862   9.326  13.973  0.00  0.00    +0.000 A 
ATOM      7  C   UNL     1      49.095   9.775  14.447  0.00  0.00    +0.000 A 
BRANCH   5   8
ATOM      8  C   UNL     1      46.453   8.278  12.189  0.00  0.00    +0.000 C 
ATOM      9  C   UNL     1      46.197   6.985  11.929  0.00  0.00    +0.000 C 
BRANCH   9  10
ATOM     10  C   UNL     1      44.844   6.443  11.577  0.00  0.00    +0.000 C 
BRANCH  10  11
ATOM     11  N   UNL     1      44.251   5.754  12.731  0.00  0.00    +0.000 NA
ATOM     12  C   UNL     1      45.161   4.714  13.261  0.00  0.00    +0.000 C 
ATOM     13  C   UNL     1      45.234   3.440  12.397  0.00  0.00    +0.000 C 
ATOM     14  O   UNL     1      43.936   2.885  12.156  0.00  0.00    +0.000 OA
ATOM     15  C   UNL     1      43.073   3.854  11.548  0.00  0.00    +0.000 C 
ATOM     16  C   UNL     1      42.952   5.106  12.427  0.00  0.00    +0.000 C 
ENDBRANCH  10  11
ENDBRANCH   9  10
ENDBRANCH   5   8
ENDBRANCH   1   2
BRANCH   1  19
ATOM     17  C   UNL     1      52.714   8.162  15.112  0.00  0.00    +0.000 C 
ATOM     18  O   UNL     1      53.063   7.807  13.990  0.00  0.00    +0.000 OA
ATOM     19  N   UNL     1      51.988   9.316  15.314  0.00  0.00    +0.000 N 
ATOM     20  H   UNL     1      51.557   9.496  16.210  0.00  0.00    +0.000 HD
BRANCH  17  29
ATOM     21  C   UNL     1      49.844   6.543  15.845  0.00  0.00    +0.000 C 
ATOM     22  C   UNL     1      50.811   6.066  16.886  0.00  0.00    +0.000 A 
ATOM     23  N   UNL     1      50.300   5.163  17.769  0.00  0.00    +0.000 NA
ATOM     24  C   UNL     1      51.082   4.686  18.746  0.00  0.00    +0.000 A 
ATOM     25  N   UNL     1      52.351   5.003  18.982  0.00  0.00    +0.000 NA
ATOM     26  C   UNL     1      52.835   5.895  18.102  0.00  0.00    +0.000 A 
ATOM     27  S   UNL     1      54.444   6.422  18.252  0.00  0.00    +0.000 S 
ATOM     28  C   UNL     1      54.297   7.435  16.894  0.00  0.00    +0.000 A 
ATOM     29  C   UNL     1      53.037   7.397  16.316  0.00  0.00    +0.000 A 
ATOM     30  C   UNL     1      52.160   6.475  17.030  0.00  0.00    +0.000 A 
ENDBRANCH  17  29
ENDBRANCH   1  19
TORSDOF 6
ENDMDL
