MODEL 1
REMARK VINA RESULT:    -8.370      0.000      0.000
REMARK INTER + INTRA:         -13.177
REMARK INTER:                 -11.795
REMARK INTRA:                  -1.381
REMARK UNBOUND:                -1.381
REMARK  Name = 
REMARK  8 active torsions:
REMARK  status: ('A' for Active; 'I' for Inactive)
REMARK    1  A    between atoms: C_1  and  C_2
REMARK    2  A    between atoms: C_2  and  N_3
REMARK    3  A    between atoms: C_2  and  C_16
REMARK    4  A    between atoms: C_4  and  C_6
REMARK    5  A    between atoms: C_19  and  C_20
REMARK    6  A    between atoms: C_20  and  N_21
REMARK    7  A    between atoms: N_21  and  C_22
REMARK    8  A    between atoms: C_22  and  C_23
REMARK                            x       y       z     vdW  Elec       q    Type
REMARK                         _______ _______ _______ _____ _____    ______ ____
ROOT
ATOM      1  C   UNL     1      48.059   8.299  12.715  0.00  0.00    +0.000 C 
ATOM      2  C   UNL     1      48.102   6.868  13.259  0.00  0.00    +0.000 C 
ENDROOT
BRANCH   2   3
ATOM      3  C   UNL     1      47.007   6.013  12.644  0.00  0.00    +0.000 A 
ATOM      4  C   UNL     1      46.531   4.881  13.317  0.00  0.00    +0.000 A 
ATOM      5  C   UNL     1      45.463   4.143  12.797  0.00  0.00    +0.000 A 
ATOM      6  C   UNL     1      44.838   4.526  11.601  0.00  0.00    +0.000 A 
ATOM      7  C   UNL     1      45.328   5.641  10.914  0.00  0.00    +0.000 A 
ATOM      8  C   UNL     1      46.403   6.371  11.426  0.00  0.00    +0.000 A 
BRANCH   6   9
ATOM      9  C   UNL     1      43.650   3.756  11.073  0.00  0.00    +0.000 C 
BRANCH   9  10
ATOM     10  N   UNL     1      43.816   3.458   9.652  0.00  0.00    +0.000 NA
ATOM     11  H   UNL     1      44.349   4.209   9.217  0.00  0.00    +0.000 HD
BRANCH  10  12
ATOM     12  C   UNL     1      44.506   2.189   9.446  0.00  0.00    +0.000 C 
BRANCH  12  13
ATOM     13  C   UNL     1      45.617   2.344   8.436  0.00  0.00    +0.000 A 
ATOM     14  C   UNL     1      45.881   3.577   7.834  0.00  0.00    +0.000 A 
ATOM     15  C   UNL     1      46.913   3.659   6.911  0.00  0.00    +0.000 A 
ATOM     16  N   UNL     1      47.690   2.615   6.552  0.00  0.00    +0.000 NA
ATOM     17  C   UNL     1      47.420   1.433   7.144  0.00  0.00    +0.000 A 
ATOM     18  C   UNL     1      46.414   1.250   8.081  0.00  0.00    +0.000 A 
ENDBRANCH  12  13
ENDBRANCH  10  12
ENDBRANCH   9  10
ENDBRANCH   6   9
ENDBRANCH   2   3
BRANCH   2  19
ATOM     19  N   UNL     1      47.968   6.848  14.706  0.00  0.00    +0.000 N 
ATOM     20  C   UNL     1      49.024   6.740  15.567  0.00  0.00    +0.000 C 
ATOM     21  O   UNL     1      50.184   6.660  15.174  0.00  0.00    +0.000 OA
ATOM     22  H   UNL     1      47.023   6.775  15.071  0.00  0.00    +0.000 HD
BRANCH  20  23
ATOM     23  C   UNL     1      48.702   6.768  17.004  0.00  0.00    +0.000 A 
ATOM     24  C   UNL     1      48.306   7.962  17.592  0.00  0.00    +0.000 A 
ATOM     25  S   UNL     1      47.972   7.831  19.258  0.00  0.00    +0.000 S 
ATOM     26  C   UNL     1      48.380   6.178  19.268  0.00  0.00    +0.000 A 
ATOM     27  N   UNL     1      48.343   5.458  20.422  0.00  0.00    +0.000 NA
ATOM     28  C   UNL     1      48.707   4.226  20.292  0.00  0.00    +0.000 A 
ATOM     29  N   UNL     1      49.085   3.645  19.111  0.00  0.00    +0.000 N 
ATOM     30  C   UNL     1      49.067   4.316  17.912  0.00  0.00    +0.000 A 
ATOM     31  O   UNL     1      49.283   3.728  16.859  0.00  0.00    +0.000 OA
ATOM     32  C   UNL     1      48.726   5.724  18.006  0.00  0.00    +0.000 A 
ATOM     33  H   UNL     1      49.324   2.666  19.069  0.00  0.00    +0.000 HD
ENDBRANCH  20  23
ENDBRANCH   2  19
TORSDOF 7
ENDMDL
MODEL 2
REMARK VINA RESULT:    -7.887      1.479      2.387
REMARK INTER + INTRA:         -12.496
REMARK INTER:                 -11.411
REMARK INTRA:                  -1.085
REMARK UNBOUND:                -1.381
REMARK  Name = 
REMARK  8 active torsions:
REMARK  status: ('A' for Active; 'I' for Inactive)
REMARK    1  A    between atoms: C_1  and  C_2
REMARK    2  A    between atoms: C_2  and  N_3
REMARK    3  A    between atoms: C_2  and  C_16
REMARK    4  A    between atoms: C_4  and  C_6
REMARK    5  A    between atoms: C_19  and  C_20
REMARK    6  A    between atoms: C_20  and  N_21
REMARK    7  A    between atoms: N_21  and  C_22
REMARK    8  A    between atoms: C_22  and  C_23
REMARK                            x       y       z     vdW  Elec       q    Type
REMARK                         _______ _______ _______ _____ _____    ______ ____
ROOT
ATOM      1  C   UNL     1      47.896   8.719  13.207  0.00  0.00    +0.000 C 
ATOM      2  C   UNL     1      47.953   7.215  13.490  0.00  0.00    +0.000 C 
ENDROOT
BRANCH   2   3
ATOM      3  C   UNL     1      46.813   6.482  12.804  0.00  0.00    +0.000 A 
ATOM      4  C   UNL     1      46.278   6.969  11.605  0.00  0.00    +0.000 A 
ATOM      5  C   UNL     1      45.290   6.250  10.925  0.00  0.00    +0.000 A 
ATOM      6  C   UNL     1      44.824   5.023  11.420  0.00  0.00    +0.000 A 
ATOM      7  C   UNL     1      45.338   4.548  12.630  0.00  0.00    +0.000 A 
ATOM      8  C   UNL     1      46.315   5.271  13.316  0.00  0.00    +0.000 A 
BRANCH   6   9
ATOM      9  C   UNL     1      43.795   4.226  10.652  0.00  0.00    +0.000 C 
BRANCH   9  10
ATOM     10  N   UNL     1      44.442   3.240   9.788  0.00  0.00    +0.000 NA
ATOM     11  H   UNL     1      43.787   2.483   9.602  0.00  0.00    +0.000 HD
BRANCH  10  12
ATOM     12  C   UNL     1      44.872   3.833   8.526  0.00  0.00    +0.000 C 
BRANCH  12  13
ATOM     13  C   UNL     1      45.856   2.932   7.820  0.00  0.00    +0.000 A 
ATOM     14  C   UNL     1      46.566   3.374   6.701  0.00  0.00    +0.000 A 
ATOM     15  C   UNL     1      47.456   2.501   6.092  0.00  0.00    +0.000 A 
ATOM     16  N   UNL     1      47.685   1.240   6.514  0.00  0.00    +0.000 NA
ATOM     17  C   UNL     1      46.990   0.831   7.596  0.00  0.00    +0.000 A 
ATOM     18  C   UNL     1      46.082   1.628   8.276  0.00  0.00    +0.000 A 
ENDBRANCH  12  13
ENDBRANCH  10  12
ENDBRANCH   9  10
ENDBRANCH   6   9
ENDBRANCH   2   3
BRANCH   2  19
ATOM     19  N   UNL     1      47.907   6.942  14.917  0.00  0.00    +0.000 N 
ATOM     20  C   UNL     1      49.010   6.676  15.678  0.00  0.00    +0.000 C 
ATOM     21  O   UNL     1      50.143   6.658  15.205  0.00  0.00    +0.000 OA
ATOM     22  H   UNL     1      46.984   6.814  15.322  0.00  0.00    +0.000 HD
BRANCH  20  23
ATOM     23  C   UNL     1      48.776   6.454  17.115  0.00  0.00    +0.000 A 
ATOM     24  C   UNL     1      49.008   5.198  17.659  0.00  0.00    +0.000 A 
ATOM     25  S   UNL     1      48.689   5.103  19.330  0.00  0.00    +0.000 S 
ATOM     26  C   UNL     1      48.191   6.730  19.386  0.00  0.00    +0.000 A 
ATOM     27  N   UNL     1      47.747   7.282  20.547  0.00  0.00    +0.000 NA
ATOM     28  C   UNL     1      47.372   8.514  20.441  0.00  0.00    +0.000 A 
ATOM     29  N   UNL     1      47.420   9.246  19.284  0.00  0.00    +0.000 N 
ATOM     30  C   UNL     1      47.929   8.749  18.109  0.00  0.00    +0.000 A 
ATOM     31  O   UNL     1      48.079   9.473  17.132  0.00  0.00    +0.000 OA
ATOM     32  C   UNL     1      48.309   7.348  18.153  0.00  0.00    +0.000 A 
ATOM     33  H   UNL     1      47.146  10.217  19.275  0.00  0.00    +0.000 HD
ENDBRANCH  20  23
ENDBRANCH   2  19
TORSDOF 7
ENDMDL
MODEL 3
REMARK VINA RESULT:    -7.450      2.647      4.499
REMARK INTER + INTRA:         -11.880
REMARK INTER:                 -10.495
REMARK INTRA:                  -1.386
REMARK UNBOUND:                -1.381
REMARK  Name = 
REMARK  8 active torsions:
REMARK  status: ('A' for Active; 'I' for Inactive)
REMARK    1  A    between atoms: C_1  and  C_2
REMARK    2  A    between atoms: C_2  and  N_3
REMARK    3  A    between atoms: C_2  and  C_16
REMARK    4  A    between atoms: C_4  and  C_6
REMARK    5  A    between atoms: C_19  and  C_20
REMARK    6  A    between atoms: C_20  and  N_21
REMARK    7  A    between atoms: N_21  and  C_22
REMARK    8  A    between atoms: C_22  and  C_23
REMARK                            x       y       z     vdW  Elec       q    Type
REMARK                         _______ _______ _______ _____ _____    ______ ____
ROOT
ATOM      1  C   UNL     1      47.536   3.837  15.623  0.00  0.00    +0.000 C 
ATOM      2  C   UNL     1      47.172   5.160  14.945  0.00  0.00    +0.000 C 
ENDROOT
BRANCH   2   3
ATOM      3  C   UNL     1      46.318   4.929  13.710  0.00  0.00    +0.000 A 
ATOM      4  C   UNL     1      46.143   3.636  13.202  0.00  0.00    +0.000 A 
ATOM      5  C   UNL     1      45.287   3.408  12.120  0.00  0.00    +0.000 A 
ATOM      6  C   UNL     1      44.576   4.464  11.531  0.00  0.00    +0.000 A 
ATOM      7  C   UNL     1      44.769   5.760  12.019  0.00  0.00    +0.000 A 
ATOM      8  C   UNL     1      45.634   5.990  13.091  0.00  0.00    +0.000 A 
BRANCH   6   9
ATOM      9  C   UNL     1      43.612   4.203  10.397  0.00  0.00    +0.000 C 
BRANCH   9  10
ATOM     10  N   UNL     1      44.151   3.202   9.478  0.00  0.00    +0.000 NA
ATOM     11  H   UNL     1      43.388   2.616   9.143  0.00  0.00    +0.000 HD
BRANCH  10  12
ATOM     12  C   UNL     1      44.823   3.822   8.342  0.00  0.00    +0.000 C 
BRANCH  12  13
ATOM     13  C   UNL     1      45.876   2.901   7.776  0.00  0.00    +0.000 A 
ATOM     14  C   UNL     1      46.002   1.584   8.226  0.00  0.00    +0.000 A 
ATOM     15  C   UNL     1      46.989   0.784   7.671  0.00  0.00    +0.000 A 
ATOM     16  N   UNL     1      47.846   1.196   6.713  0.00  0.00    +0.000 NA
ATOM     17  C   UNL     1      47.708   2.471   6.290  0.00  0.00    +0.000 A 
ATOM     18  C   UNL     1      46.751   3.347   6.779  0.00  0.00    +0.000 A 
ENDBRANCH  12  13
ENDBRANCH  10  12
ENDBRANCH   9  10
ENDBRANCH   6   9
ENDBRANCH   2   3
BRANCH   2  19
ATOM     19  N   UNL     1      48.361   5.908  14.570  0.00  0.00    +0.000 N 
ATOM     20  C   UNL     1      48.956   6.844  15.369  0.00  0.00    +0.000 C 
ATOM     21  O   UNL     1      48.526   7.120  16.486  0.00  0.00    +0.000 OA
ATOM     22  H   UNL     1      48.670   5.811  13.608  0.00  0.00    +0.000 HD
BRANCH  20  23
ATOM     23  C   UNL     1      50.172   7.480  14.838  0.00  0.00    +0.000 A 
ATOM     24  C   UNL     1      51.344   7.441  15.583  0.00  0.00    +0.000 A 
ATOM     25  S   UNL     1      52.661   8.222  14.834  0.00  0.00    +0.000 S 
ATOM     26  C   UNL     1      51.707   8.676  13.499  0.00  0.00    +0.000 A 
ATOM     27  N   UNL     1      52.234   9.417  12.487  0.00  0.00    +0.000 NA
ATOM     28  C   UNL     1      51.392   9.717  11.554  0.00  0.00    +0.000 A 
ATOM     29  N   UNL     1      50.079   9.326  11.534  0.00  0.00    +0.000 N 
ATOM     30  C   UNL     1      49.528   8.519  12.498  0.00  0.00    +0.000 A 
ATOM     31  O   UNL     1      48.390   8.081  12.377  0.00  0.00    +0.000 OA
ATOM     32  C   UNL     1      50.411   8.200  13.605  0.00  0.00    +0.000 A 
ATOM     33  H   UNL     1      49.481   9.563  10.757  0.00  0.00    +0.000 HD
ENDBRANCH  20  23
ENDBRANCH   2  19
TORSDOF 7
ENDMDL
MODEL 4
REMARK VINA RESULT:    -7.420      3.375      8.022
REMARK INTER + INTRA:         -11.837
REMARK INTER:                 -10.229
REMARK INTRA:                  -1.609
REMARK UNBOUND:                -1.381
REMARK  Name = 
REMARK  8 active torsions:
REMARK  status: ('A' for Active; 'I' for Inactive)
REMARK    1  A    between atoms: C_1  and  C_2
REMARK    2  A    between atoms: C_2  and  N_3
REMARK    3  A    between atoms: C_2  and  C_16
REMARK    4  A    between atoms: C_4  and  C_6
REMARK    5  A    between atoms: C_19  and  C_20
REMARK    6  A    between atoms: C_20  and  N_21
REMARK    7  A    between atoms: N_21  and  C_22
REMARK    8  A    between atoms: C_22  and  C_23
REMARK                            x       y       z     vdW  Elec       q    Type
REMARK                         _______ _______ _______ _____ _____    ______ ____
ROOT
ATOM      1  C   UNL     1      49.757   8.296  11.397  0.00  0.00    +0.000 C 
ATOM      2  C   UNL     1      48.393   8.153  12.076  0.00  0.00    +0.000 C 
ENDROOT
BRANCH   2   3
ATOM      3  C   UNL     1      48.542   7.962  13.576  0.00  0.00    +0.000 A 
ATOM      4  C   UNL     1      48.281   9.021  14.454  0.00  0.00    +0.000 A 
ATOM      5  C   UNL     1      48.331   8.825  15.838  0.00  0.00    +0.000 A 
ATOM      6  C   UNL     1      48.630   7.564  16.375  0.00  0.00    +0.000 A 
ATOM      7  C   UNL     1      48.917   6.511  15.501  0.00  0.00    +0.000 A 
ATOM      8  C   UNL     1      48.880   6.710  14.119  0.00  0.00    +0.000 A 
BRANCH   6   9
ATOM      9  C   UNL     1      48.629   7.346  17.870  0.00  0.00    +0.000 C 
BRANCH   9  10
ATOM     10  N   UNL     1      47.789   6.204  18.228  0.00  0.00    +0.000 NA
ATOM     11  H   UNL     1      47.388   5.810  17.378  0.00  0.00    +0.000 HD
BRANCH  10  12
ATOM     12  C   UNL     1      48.550   5.175  18.928  0.00  0.00    +0.000 C 
BRANCH  12  13
ATOM     13  C   UNL     1      48.862   4.021  18.008  0.00  0.00    +0.000 A 
ATOM     14  C   UNL     1      47.872   3.452  17.201  0.00  0.00    +0.000 A 
ATOM     15  C   UNL     1      48.216   2.392  16.376  0.00  0.00    +0.000 A 
ATOM     16  N   UNL     1      49.457   1.866  16.299  0.00  0.00    +0.000 NA
ATOM     17  C   UNL     1      50.399   2.429  17.085  0.00  0.00    +0.000 A 
ATOM     18  C   UNL     1      50.156   3.494  17.939  0.00  0.00    +0.000 A 
ENDBRANCH  12  13
ENDBRANCH  10  12
ENDBRANCH   9  10
ENDBRANCH   6   9
ENDBRANCH   2   3
BRANCH   2  19
ATOM     19  N   UNL     1      47.641   7.038  11.526  0.00  0.00    +0.000 N 
ATOM     20  C   UNL     1      46.276   6.984  11.488  0.00  0.00    +0.000 C 
ATOM     21  O   UNL     1      45.572   7.896  11.915  0.00  0.00    +0.000 OA
ATOM     22  H   UNL     1      48.175   6.208  11.286  0.00  0.00    +0.000 HD
BRANCH  20  23
ATOM     23  C   UNL     1      45.685   5.789  10.864  0.00  0.00    +0.000 A 
ATOM     24  C   UNL     1      45.842   5.582   9.499  0.00  0.00    +0.000 A 
ATOM     25  S   UNL     1      45.100   4.158   8.929  0.00  0.00    +0.000 S 
ATOM     26  C   UNL     1      44.504   3.780  10.479  0.00  0.00    +0.000 A 
ATOM     27  N   UNL     1      43.736   2.675  10.679  0.00  0.00    +0.000 NA
ATOM     28  C   UNL     1      43.326   2.526  11.895  0.00  0.00    +0.000 A 
ATOM     29  N   UNL     1      43.633   3.369  12.930  0.00  0.00    +0.000 N 
ATOM     30  C   UNL     1      44.463   4.453  12.786  0.00  0.00    +0.000 A 
ATOM     31  O   UNL     1      44.822   5.106  13.759  0.00  0.00    +0.000 OA
ATOM     32  C   UNL     1      44.905   4.707  11.426  0.00  0.00    +0.000 A 
ATOM     33  H   UNL     1      43.311   3.177  13.866  0.00  0.00    +0.000 HD
ENDBRANCH  20  23
ENDBRANCH   2  19
TORSDOF 7
ENDMDL
MODEL 5
REMARK VINA RESULT:    -7.333      2.962      8.376
REMARK INTER + INTRA:         -11.715
REMARK INTER:                 -10.071
REMARK INTRA:                  -1.644
REMARK UNBOUND:                -1.381
REMARK  Name = 
REMARK  8 active torsions:
REMARK  status: ('A' for Active; 'I' for Inactive)
REMARK    1  A    between atoms: C_1  and  C_2
REMARK    2  A    between atoms: C_2  and  N_3
REMARK    3  A    between atoms: C_2  and  C_16
REMARK    4  A    between atoms: C_4  and  C_6
REMARK    5  A    between atoms: C_19  and  C_20
REMARK    6  A    between atoms: C_20  and  N_21
REMARK    7  A    between atoms: N_21  and  C_22
REMARK    8  A    between atoms: C_22  and  C_23
REMARK                            x       y       z     vdW  Elec       q    Type
REMARK                         _______ _______ _______ _____ _____    ______ ____
ROOT
ATOM      1  C   UNL     1      49.189   7.876  11.384  0.00  0.00    +0.000 C 
ATOM      2  C   UNL     1      48.004   7.855  12.353  0.00  0.00    +0.000 C 
ENDROOT
BRANCH   2   3
ATOM      3  C   UNL     1      48.475   7.862  13.798  0.00  0.00    +0.000 A 
ATOM      4  C   UNL     1      47.935   8.773  14.714  0.00  0.00    +0.000 A 
ATOM      5  C   UNL     1      48.299   8.724  16.063  0.00  0.00    +0.000 A 
ATOM      6  C   UNL     1      49.201   7.755  16.530  0.00  0.00    +0.000 A 
ATOM      7  C   UNL     1      49.762   6.862  15.612  0.00  0.00    +0.000 A 
ATOM      8  C   UNL     1      49.408   6.919  14.263  0.00  0.00    +0.000 A 
BRANCH   6   9
ATOM      9  C   UNL     1      49.549   7.674  17.998  0.00  0.00    +0.000 C 
BRANCH   9  10
ATOM     10  N   UNL     1      50.175   6.391  18.311  0.00  0.00    +0.000 NA
ATOM     11  H   UNL     1      50.863   6.530  19.050  0.00  0.00    +0.000 HD
BRANCH  10  12
ATOM     12  C   UNL     1      49.191   5.405  18.745  0.00  0.00    +0.000 C 
BRANCH  12  13
ATOM     13  C   UNL     1      49.265   4.164  17.889  0.00  0.00    +0.000 A 
ATOM     14  C   UNL     1      48.169   3.741  17.132  0.00  0.00    +0.000 A 
ATOM     15  C   UNL     1      48.295   2.592  16.366  0.00  0.00    +0.000 A 
ATOM     16  N   UNL     1      49.417   1.846  16.301  0.00  0.00    +0.000 NA
ATOM     17  C   UNL     1      50.465   2.270  17.039  0.00  0.00    +0.000 A 
ATOM     18  C   UNL     1      50.441   3.407  17.832  0.00  0.00    +0.000 A 
ENDBRANCH  12  13
ENDBRANCH  10  12
ENDBRANCH   9  10
ENDBRANCH   6   9
ENDBRANCH   2   3
BRANCH   2  19
ATOM     19  N   UNL     1      47.159   6.693  12.132  0.00  0.00    +0.000 N 
ATOM     20  C   UNL     1      45.798   6.708  12.249  0.00  0.00    +0.000 C 
ATOM     21  O   UNL     1      45.177   7.726  12.546  0.00  0.00    +0.000 OA
ATOM     22  H   UNL     1      47.636   5.804  12.018  0.00  0.00    +0.000 HD
BRANCH  20  23
ATOM     23  C   UNL     1      45.102   5.445  11.956  0.00  0.00    +0.000 A 
ATOM     24  C   UNL     1      44.374   4.817  12.959  0.00  0.00    +0.000 A 
ATOM     25  S   UNL     1      43.630   3.366  12.464  0.00  0.00    +0.000 S 
ATOM     26  C   UNL     1      44.283   3.499  10.897  0.00  0.00    +0.000 A 
ATOM     27  N   UNL     1      44.053   2.537   9.963  0.00  0.00    +0.000 NA
ATOM     28  C   UNL     1      44.634   2.748   8.828  0.00  0.00    +0.000 A 
ATOM     29  N   UNL     1      45.403   3.843   8.539  0.00  0.00    +0.000 N 
ATOM     30  C   UNL     1      45.601   4.871   9.428  0.00  0.00    +0.000 A 
ATOM     31  O   UNL     1      46.184   5.894   9.089  0.00  0.00    +0.000 OA
ATOM     32  C   UNL     1      45.024   4.659  10.743  0.00  0.00    +0.000 A 
ATOM     33  H   UNL     1      45.800   3.968   7.619  0.00  0.00    +0.000 HD
ENDBRANCH  20  23
ENDBRANCH   2  19
TORSDOF 7
ENDMDL
MODEL 6
REMARK VINA RESULT:    -6.992      2.172      2.972
REMARK INTER + INTRA:         -11.235
REMARK INTER:                 -10.050
REMARK INTRA:                  -1.185
REMARK UNBOUND:                -1.381
REMARK  Name = 
REMARK  8 active torsions:
REMARK  status: ('A' for Active; 'I' for Inactive)
REMARK    1  A    between atoms: C_1  and  C_2
REMARK    2  A    between atoms: C_2  and  N_3
REMARK    3  A    between atoms: C_2  and  C_16
REMARK    4  A    between atoms: C_4  and  C_6
REMARK    5  A    between atoms: C_19  and  C_20
REMARK    6  A    between atoms: C_20  and  N_21
REMARK    7  A    between atoms: N_21  and  C_22
REMARK    8  A    between atoms: C_22  and  C_23
REMARK                            x       y       z     vdW  Elec       q    Type
REMARK                         _______ _______ _______ _____ _____    ______ ____
ROOT
ATOM      1  C   UNL     1      47.873   3.042  15.278  0.00  0.00    +0.000 C 
ATOM      2  C   UNL     1      47.088   4.346  15.440  0.00  0.00    +0.000 C 
ENDROOT
BRANCH   2   3
ATOM      3  C   UNL     1      46.539   4.828  14.107  0.00  0.00    +0.000 A 
ATOM      4  C   UNL     1      47.201   5.832  13.390  0.00  0.00    +0.000 A 
ATOM      5  C   UNL     1      46.750   6.214  12.123  0.00  0.00    +0.000 A 
ATOM      6  C   UNL     1      45.636   5.593  11.538  0.00  0.00    +0.000 A 
ATOM      7  C   UNL     1      44.958   4.609  12.263  0.00  0.00    +0.000 A 
ATOM      8  C   UNL     1      45.400   4.236  13.533  0.00  0.00    +0.000 A 
BRANCH   6   9
ATOM      9  C   UNL     1      45.187   5.974  10.147  0.00  0.00    +0.000 C 
BRANCH   9  10
ATOM     10  N   UNL     1      45.914   5.206   9.138  0.00  0.00    +0.000 NA
ATOM     11  H   UNL     1      46.781   4.860   9.547  0.00  0.00    +0.000 HD
BRANCH  10  12
ATOM     12  C   UNL     1      45.126   4.079   8.649  0.00  0.00    +0.000 C 
BRANCH  12  13
ATOM     13  C   UNL     1      46.008   3.072   7.954  0.00  0.00    +0.000 A 
ATOM     14  C   UNL     1      45.981   1.720   8.309  0.00  0.00    +0.000 A 
ATOM     15  C   UNL     1      46.816   0.840   7.637  0.00  0.00    +0.000 A 
ATOM     16  N   UNL     1      47.662   1.205   6.651  0.00  0.00    +0.000 NA
ATOM     17  C   UNL     1      47.673   2.514   6.321  0.00  0.00    +0.000 A 
ATOM     18  C   UNL     1      46.875   3.470   6.930  0.00  0.00    +0.000 A 
ENDBRANCH  12  13
ENDBRANCH  10  12
ENDBRANCH   9  10
ENDBRANCH   6   9
ENDBRANCH   2   3
BRANCH   2  19
ATOM     19  N   UNL     1      47.912   5.393  16.023  0.00  0.00    +0.000 N 
ATOM     20  C   UNL     1      47.914   5.708  17.353  0.00  0.00    +0.000 C 
ATOM     21  O   UNL     1      47.213   5.114  18.168  0.00  0.00    +0.000 OA
ATOM     22  H   UNL     1      48.402   5.997  15.371  0.00  0.00    +0.000 HD
BRANCH  20  23
ATOM     23  C   UNL     1      48.837   6.776  17.770  0.00  0.00    +0.000 A 
ATOM     24  C   UNL     1      48.327   7.941  18.327  0.00  0.00    +0.000 A 
ATOM     25  S   UNL     1      49.521   9.079  18.756  0.00  0.00    +0.000 S 
ATOM     26  C   UNL     1      50.768   8.074  18.179  0.00  0.00    +0.000 A 
ATOM     27  N   UNL     1      52.066   8.480  18.218  0.00  0.00    +0.000 NA
ATOM     28  C   UNL     1      52.904   7.634  17.718  0.00  0.00    +0.000 A 
ATOM     29  N   UNL     1      52.563   6.411  17.204  0.00  0.00    +0.000 N 
ATOM     30  C   UNL     1      51.276   5.932  17.212  0.00  0.00    +0.000 A 
ATOM     31  O   UNL     1      51.029   4.783  16.866  0.00  0.00    +0.000 OA
ATOM     32  C   UNL     1      50.280   6.867  17.704  0.00  0.00    +0.000 A 
ATOM     33  H   UNL     1      53.271   5.779  16.862  0.00  0.00    +0.000 HD
ENDBRANCH  20  23
ENDBRANCH   2  19
TORSDOF 7
ENDMDL
MODEL 7
REMARK VINA RESULT:    -6.793      3.278      5.238
REMARK INTER + INTRA:         -10.954
REMARK INTER:                  -9.460
REMARK INTRA:                  -1.494
REMARK UNBOUND:                -1.381
REMARK  Name = 
REMARK  8 active torsions:
REMARK  status: ('A' for Active; 'I' for Inactive)
REMARK    1  A    between atoms: C_1  and  C_2
REMARK    2  A    between atoms: C_2  and  N_3
REMARK    3  A    between atoms: C_2  and  C_16
REMARK    4  A    between atoms: C_4  and  C_6
REMARK    5  A    between atoms: C_19  and  C_20
REMARK    6  A    between atoms: C_20  and  N_21
REMARK    7  A    between atoms: N_21  and  C_22
REMARK    8  A    between atoms: C_22  and  C_23
REMARK                            x       y       z     vdW  Elec       q    Type
REMARK                         _______ _______ _______ _____ _____    ______ ____
ROOT
ATOM      1  C   UNL     1      47.518   2.906  17.607  0.00  0.00    +0.000 C 
ATOM      2  C   UNL     1      48.369   4.166  17.433  0.00  0.00    +0.000 C 
ENDROOT
BRANCH   2   3
ATOM      3  C   UNL     1      48.070   4.855  16.113  0.00  0.00    +0.000 A 
ATOM      4  C   UNL     1      47.131   4.311  15.228  0.00  0.00    +0.000 A 
ATOM      5  C   UNL     1      46.787   4.989  14.054  0.00  0.00    +0.000 A 
ATOM      6  C   UNL     1      47.363   6.230  13.744  0.00  0.00    +0.000 A 
ATOM      7  C   UNL     1      48.320   6.763  14.613  0.00  0.00    +0.000 A 
ATOM      8  C   UNL     1      48.673   6.081  15.779  0.00  0.00    +0.000 A 
BRANCH   6   9
ATOM      9  C   UNL     1      46.947   6.982  12.501  0.00  0.00    +0.000 C 
BRANCH   9  10
ATOM     10  N   UNL     1      45.503   7.210  12.492  0.00  0.00    +0.000 NA
ATOM     11  H   UNL     1      45.321   8.185  12.722  0.00  0.00    +0.000 HD
BRANCH  10  12
ATOM     12  C   UNL     1      44.919   6.901  11.191  0.00  0.00    +0.000 C 
BRANCH  12  13
ATOM     13  C   UNL     1      44.427   5.475  11.152  0.00  0.00    +0.000 A 
ATOM     14  C   UNL     1      43.626   4.958  12.174  0.00  0.00    +0.000 A 
ATOM     15  C   UNL     1      43.204   3.639  12.085  0.00  0.00    +0.000 A 
ATOM     16  N   UNL     1      43.519   2.813  11.066  0.00  0.00    +0.000 NA
ATOM     17  C   UNL     1      44.293   3.330  10.088  0.00  0.00    +0.000 A 
ATOM     18  C   UNL     1      44.760   4.635  10.083  0.00  0.00    +0.000 A 
ENDBRANCH  12  13
ENDBRANCH  10  12
ENDBRANCH   9  10
ENDBRANCH   6   9
ENDBRANCH   2   3
BRANCH   2  19
ATOM     19  N   UNL     1      49.789   3.860  17.501  0.00  0.00    +0.000 N 
ATOM     20  C   UNL     1      50.587   4.178  18.563  0.00  0.00    +0.000 C 
ATOM     21  O   UNL     1      50.153   4.748  19.561  0.00  0.00    +0.000 OA
ATOM     22  H   UNL     1      50.217   3.513  16.648  0.00  0.00    +0.000 HD
BRANCH  20  23
ATOM     23  C   UNL     1      51.996   3.761  18.471  0.00  0.00    +0.000 A 
ATOM     24  C   UNL     1      52.996   4.643  18.859  0.00  0.00    +0.000 A 
ATOM     25  S   UNL     1      54.571   4.014  18.691  0.00  0.00    +0.000 S 
ATOM     26  C   UNL     1      53.981   2.549  18.057  0.00  0.00    +0.000 A 
ATOM     27  N   UNL     1      54.834   1.565  17.664  0.00  0.00    +0.000 NA
ATOM     28  C   UNL     1      54.253   0.522  17.173  0.00  0.00    +0.000 A 
ATOM     29  N   UNL     1      52.897   0.366  17.059  0.00  0.00    +0.000 N 
ATOM     30  C   UNL     1      52.000   1.303  17.509  0.00  0.00    +0.000 A 
ATOM     31  O   UNL     1      50.796   1.071  17.512  0.00  0.00    +0.000 OA
ATOM     32  C   UNL     1      52.596   2.526  18.015  0.00  0.00    +0.000 A 
ATOM     33  H   UNL     1      52.504  -0.491  16.699  0.00  0.00    +0.000 HD
ENDBRANCH  20  23
ENDBRANCH   2  19
TORSDOF 7
ENDMDL
MODEL 8
REMARK VINA RESULT:    -6.745      3.279      4.479
REMARK INTER + INTRA:         -10.887
REMARK INTER:                  -9.772
REMARK INTRA:                  -1.115
REMARK UNBOUND:                -1.381
REMARK  Name = 
REMARK  8 active torsions:
REMARK  status: ('A' for Active; 'I' for Inactive)
REMARK    1  A    between atoms: C_1  and  C_2
REMARK    2  A    between atoms: C_2  and  N_3
REMARK    3  A    between atoms: C_2  and  C_16
REMARK    4  A    between atoms: C_4  and  C_6
REMARK    5  A    between atoms: C_19  and  C_20
REMARK    6  A    between atoms: C_20  and  N_21
REMARK    7  A    between atoms: N_21  and  C_22
REMARK    8  A    between atoms: C_22  and  C_23
REMARK                            x       y       z     vdW  Elec       q    Type
REMARK                         _______ _______ _______ _____ _____    ______ ____
ROOT
ATOM      1  C   UNL     1      48.166   5.514  15.579  0.00  0.00    +0.000 C 
ATOM      2  C   UNL     1      47.965   6.571  14.490  0.00  0.00    +0.000 C 
ENDROOT
BRANCH   2   3
ATOM      3  C   UNL     1      47.118   6.032  13.349  0.00  0.00    +0.000 A 
ATOM      4  C   UNL     1      46.421   4.827  13.494  0.00  0.00    +0.000 A 
ATOM      5  C   UNL     1      45.571   4.373  12.480  0.00  0.00    +0.000 A 
ATOM      6  C   UNL     1      45.388   5.119  11.306  0.00  0.00    +0.000 A 
ATOM      7  C   UNL     1      46.104   6.309  11.148  0.00  0.00    +0.000 A 
ATOM      8  C   UNL     1      46.962   6.757  12.154  0.00  0.00    +0.000 A 
BRANCH   6   9
ATOM      9  C   UNL     1      44.427   4.649  10.239  0.00  0.00    +0.000 C 
BRANCH   9  10
ATOM     10  N   UNL     1      45.019   4.790   8.910  0.00  0.00    +0.000 NA
ATOM     11  H   UNL     1      46.033   4.797   8.999  0.00  0.00    +0.000 HD
BRANCH  10  12
ATOM     12  C   UNL     1      44.617   3.701   8.025  0.00  0.00    +0.000 C 
BRANCH  12  13
ATOM     13  C   UNL     1      45.811   2.874   7.619  0.00  0.00    +0.000 A 
ATOM     14  C   UNL     1      46.788   3.386   6.762  0.00  0.00    +0.000 A 
ATOM     15  C   UNL     1      47.863   2.579   6.421  0.00  0.00    +0.000 A 
ATOM     16  N   UNL     1      48.031   1.317   6.868  0.00  0.00    +0.000 NA
ATOM     17  C   UNL     1      47.078   0.839   7.696  0.00  0.00    +0.000 A 
ATOM     18  C   UNL     1      45.970   1.568   8.099  0.00  0.00    +0.000 A 
ENDBRANCH  12  13
ENDBRANCH  10  12
ENDBRANCH   9  10
ENDBRANCH   6   9
ENDBRANCH   2   3
BRANCH   2  19
ATOM     19  N   UNL     1      49.237   7.037  13.961  0.00  0.00    +0.000 N 
ATOM     20  C   UNL     1      49.601   8.353  13.902  0.00  0.00    +0.000 C 
ATOM     21  O   UNL     1      48.871   9.254  14.307  0.00  0.00    +0.000 OA
ATOM     22  H   UNL     1      49.812   6.343  13.494  0.00  0.00    +0.000 HD
BRANCH  20  23
ATOM     23  C   UNL     1      50.942   8.637  13.365  0.00  0.00    +0.000 A 
ATOM     24  C   UNL     1      51.065   9.315  12.159  0.00  0.00    +0.000 A 
ATOM     25  S   UNL     1      52.679   9.565  11.673  0.00  0.00    +0.000 S 
ATOM     26  C   UNL     1      53.278   8.743  13.037  0.00  0.00    +0.000 A 
ATOM     27  N   UNL     1      54.616   8.566  13.212  0.00  0.00    +0.000 NA
ATOM     28  C   UNL     1      54.930   7.898  14.273  0.00  0.00    +0.000 A 
ATOM     29  N   UNL     1      54.029   7.411  15.182  0.00  0.00    +0.000 N 
ATOM     30  C   UNL     1      52.677   7.629  15.081  0.00  0.00    +0.000 A 
ATOM     31  O   UNL     1      51.916   7.293  15.981  0.00  0.00    +0.000 OA
ATOM     32  C   UNL     1      52.259   8.321  13.875  0.00  0.00    +0.000 A 
ATOM     33  H   UNL     1      54.341   6.927  16.011  0.00  0.00    +0.000 HD
ENDBRANCH  20  23
ENDBRANCH   2  19
TORSDOF 7
ENDMDL
MODEL 9
REMARK VINA RESULT:    -6.517      3.280      5.556
REMARK INTER + INTRA:         -10.565
REMARK INTER:                  -9.527
REMARK INTRA:                  -1.038
REMARK UNBOUND:                -1.381
REMARK  Name = 
REMARK  8 active torsions:
REMARK  status: ('A' for Active; 'I' for Inactive)
REMARK    1  A    between atoms: C_1  and  C_2
REMARK    2  A    between atoms: C_2  and  N_3
REMARK    3  A    between atoms: C_2  and  C_16
REMARK    4  A    between atoms: C_4  and  C_6
REMARK    5  A    between atoms: C_19  and  C_20
REMARK    6  A    between atoms: C_20  and  N_21
REMARK    7  A    between atoms: N_21  and  C_22
REMARK    8  A    between atoms: C_22  and  C_23
REMARK                            x       y       z     vdW  Elec       q    Type
REMARK                         _______ _______ _______ _____ _____    ______ ____
ROOT
ATOM      1  C   UNL     1      47.084   2.692  17.673  0.00  0.00    +0.000 C 
ATOM      2  C   UNL     1      48.018   3.902  17.605  0.00  0.00    +0.000 C 
ENDROOT
BRANCH   2   3
ATOM      3  C   UNL     1      47.905   4.610  16.265  0.00  0.00    +0.000 A 
ATOM      4  C   UNL     1      47.167   4.037  15.222  0.00  0.00    +0.000 A 
ATOM      5  C   UNL     1      46.987   4.727  14.019  0.00  0.00    +0.000 A 
ATOM      6  C   UNL     1      47.527   6.008  13.836  0.00  0.00    +0.000 A 
ATOM      7  C   UNL     1      48.286   6.571  14.866  0.00  0.00    +0.000 A 
ATOM      8  C   UNL     1      48.477   5.878  16.063  0.00  0.00    +0.000 A 
BRANCH   6   9
ATOM      9  C   UNL     1      47.282   6.769  12.554  0.00  0.00    +0.000 C 
BRANCH   9  10
ATOM     10  N   UNL     1      46.074   7.586  12.657  0.00  0.00    +0.000 NA
ATOM     11  H   UNL     1      46.339   8.569  12.660  0.00  0.00    +0.000 HD
BRANCH  10  12
ATOM     12  C   UNL     1      45.158   7.332  11.551  0.00  0.00    +0.000 C 
BRANCH  12  13
ATOM     13  C   UNL     1      44.506   5.979  11.696  0.00  0.00    +0.000 A 
ATOM     14  C   UNL     1      44.669   4.990  10.723  0.00  0.00    +0.000 A 
ATOM     15  C   UNL     1      44.044   3.765  10.909  0.00  0.00    +0.000 A 
ATOM     16  N   UNL     1      43.281   3.462  11.980  0.00  0.00    +0.000 NA
ATOM     17  C   UNL     1      43.135   4.430  12.910  0.00  0.00    +0.000 A 
ATOM     18  C   UNL     1      43.722   5.683  12.817  0.00  0.00    +0.000 A 
ENDBRANCH  12  13
ENDBRANCH  10  12
ENDBRANCH   9  10
ENDBRANCH   6   9
ENDBRANCH   2   3
BRANCH   2  19
ATOM     19  N   UNL     1      49.402   3.516  17.825  0.00  0.00    +0.000 N 
ATOM     20  C   UNL     1      50.036   2.524  17.132  0.00  0.00    +0.000 C 
ATOM     21  O   UNL     1      49.475   1.880  16.249  0.00  0.00    +0.000 OA
ATOM     22  H   UNL     1      49.862   3.926  18.633  0.00  0.00    +0.000 HD
BRANCH  20  23
ATOM     23  C   UNL     1      51.450   2.291  17.467  0.00  0.00    +0.000 A 
ATOM     24  C   UNL     1      51.920   0.990  17.585  0.00  0.00    +0.000 A 
ATOM     25  S   UNL     1      53.575   0.888  17.979  0.00  0.00    +0.000 S 
ATOM     26  C   UNL     1      53.722   2.583  18.045  0.00  0.00    +0.000 A 
ATOM     27  N   UNL     1      54.906   3.167  18.375  0.00  0.00    +0.000 NA
ATOM     28  C   UNL     1      54.868   4.458  18.418  0.00  0.00    +0.000 A 
ATOM     29  N   UNL     1      53.761   5.214  18.141  0.00  0.00    +0.000 N 
ATOM     30  C   UNL     1      52.568   4.669  17.734  0.00  0.00    +0.000 A 
ATOM     31  O   UNL     1      51.641   5.382  17.368  0.00  0.00    +0.000 OA
ATOM     32  C   UNL     1      52.532   3.217  17.728  0.00  0.00    +0.000 A 
ATOM     33  H   UNL     1      53.806   6.223  18.157  0.00  0.00    +0.000 HD
ENDBRANCH  20  23
ENDBRANCH   2  19
TORSDOF 7
ENDMDL
