MODEL 1
REMARK VINA RESULT:    -7.635      0.000      0.000
REMARK INTER + INTRA:         -11.480
REMARK INTER:                 -10.536
REMARK INTRA:                  -0.944
REMARK UNBOUND:                -0.944
REMARK  Name = 
REMARK  7 active torsions:
REMARK  status: ('A' for Active; 'I' for Inactive)
REMARK    1  A    between atoms: N_1  and  C_2
REMARK    2  A    between atoms: C_5  and  C_6
REMARK    3  A    between atoms: N_8  and  C_9
REMARK    4  A    between atoms: C_9  and  C_10
REMARK    5  A    between atoms: C_13  and  C_14
REMARK    6  A    between atoms: C_14  and  N_15
REMARK    7  A    between atoms: C_16  and  C_18
REMARK                            x       y       z     vdW  Elec       q    Type
REMARK                         _______ _______ _______ _____ _____    ______ ____
ROOT
ATOM      1  C   UNL     1      47.596   5.771  13.803  0.00  0.00    +0.000 A 
ATOM      2  C   UNL     1      46.996   4.515  13.770  0.00  0.00    +0.000 A 
ATOM      3  C   UNL     1      47.059   3.704  14.902  0.00  0.00    +0.000 A 
ATOM      4  C   UNL     1      47.734   4.152  16.038  0.00  0.00    +0.000 A 
ATOM      5  C   UNL     1      48.302   5.418  15.982  0.00  0.00    +0.000 A 
ATOM      6  N   UNL     1      48.259   6.229  14.897  0.00  0.00    +0.000 NA
ENDROOT
BRANCH   1   7
ATOM      7  C   UNL     1      47.547   6.673  12.590  0.00  0.00    +0.000 C 
BRANCH   7  10
ATOM      8  C   UNL     1      45.232   6.558  11.754  0.00  0.00    +0.000 C 
ATOM      9  O   UNL     1      44.834   7.314  12.637  0.00  0.00    +0.000 OA
ATOM     10  N   UNL     1      46.561   6.237  11.619  0.00  0.00    +0.000 N 
ATOM     11  H   UNL     1      46.849   5.501  10.990  0.00  0.00    +0.000 HD
BRANCH   8  15
ATOM     12  C   UNL     1      43.469   3.244  11.593  0.00  0.00    +0.000 C 
ATOM     13  C   UNL     1      42.861   4.509  12.211  0.00  0.00    +0.000 C 
ATOM     14  C   UNL     1      42.897   5.695  11.243  0.00  0.00    +0.000 C 
ATOM     15  C   UNL     1      44.305   5.963  10.683  0.00  0.00    +0.000 C 
ATOM     16  C   UNL     1      44.853   4.684  10.037  0.00  0.00    +0.000 C 
ATOM     17  C   UNL     1      44.861   3.505  11.010  0.00  0.00    +0.000 C 
BRANCH  12  18
ATOM     18  N   UNL     1      43.553   2.179  12.591  0.00  0.00    +0.000 NA
ATOM     19  H   UNL     1      44.367   2.330  13.184  0.00  0.00    +0.000 HD
ATOM     20  H   UNL     1      43.717   1.285  12.123  0.00  0.00    +0.000 HD
ENDBRANCH  12  18
ENDBRANCH   8  15
ENDBRANCH   7  10
ENDBRANCH   1   7
BRANCH   4  21
ATOM     21  C   UNL     1      47.815   3.315  17.281  0.00  0.00    +0.000 C 
BRANCH  21  22
ATOM     22  N   UNL     1      49.183   3.098  17.683  0.00  0.00    +0.000 N 
ATOM     23  C   UNL     1      49.988   2.223  16.997  0.00  0.00    +0.000 C 
ATOM     24  O   UNL     1      49.594   1.635  15.994  0.00  0.00    +0.000 OA
ATOM     25  H   UNL     1      49.444   3.380  18.624  0.00  0.00    +0.000 HD
BRANCH  23  26
ATOM     26  C   UNL     1      51.366   2.074  17.480  0.00  0.00    +0.000 A 
ATOM     27  C   UNL     1      51.893   0.801  17.662  0.00  0.00    +0.000 A 
ATOM     28  S   UNL     1      53.522   0.800  18.169  0.00  0.00    +0.000 S 
ATOM     29  C   UNL     1      53.565   2.500  18.215  0.00  0.00    +0.000 A 
ATOM     30  N   UNL     1      54.690   3.159  18.602  0.00  0.00    +0.000 NA
ATOM     31  C   UNL     1      54.572   4.444  18.629  0.00  0.00    +0.000 A 
ATOM     32  N   UNL     1      53.434   5.131  18.297  0.00  0.00    +0.000 N 
ATOM     33  C   UNL     1      52.284   4.509  17.868  0.00  0.00    +0.000 A 
ATOM     34  O   UNL     1      51.296   5.155  17.537  0.00  0.00    +0.000 OA
ATOM     35  C   UNL     1      52.359   3.063  17.834  0.00  0.00    +0.000 A 
ATOM     36  H   UNL     1      53.409   6.140  18.334  0.00  0.00    +0.000 HD
ENDBRANCH  23  26
ENDBRANCH  21  22
ENDBRANCH   4  21
TORSDOF 7
ENDMDL
MODEL 2
REMARK VINA RESULT:    -7.529      3.079      9.243
REMARK INTER + INTRA:         -11.334
REMARK INTER:                 -10.329
REMARK INTRA:                  -1.004
REMARK UNBOUND:                -0.944
REMARK  Name = 
REMARK  7 active torsions:
REMARK  status: ('A' for Active; 'I' for Inactive)
REMARK    1  A    between atoms: N_1  and  C_2
REMARK    2  A    between atoms: C_5  and  C_6
REMARK    3  A    between atoms: N_8  and  C_9
REMARK    4  A    between atoms: C_9  and  C_10
REMARK    5  A    between atoms: C_13  and  C_14
REMARK    6  A    between atoms: C_14  and  N_15
REMARK    7  A    between atoms: C_16  and  C_18
REMARK                            x       y       z     vdW  Elec       q    Type
REMARK                         _______ _______ _______ _____ _____    ______ ____
ROOT
ATOM      1  C   UNL     1      50.465   7.514  14.780  0.00  0.00    +0.000 A 
ATOM      2  C   UNL     1      50.584   8.422  13.731  0.00  0.00    +0.000 A 
ATOM      3  C   UNL     1      49.538   8.544  12.819  0.00  0.00    +0.000 A 
ATOM      4  C   UNL     1      48.401   7.746  12.956  0.00  0.00    +0.000 A 
ATOM      5  C   UNL     1      48.368   6.868  14.032  0.00  0.00    +0.000 A 
ATOM      6  N   UNL     1      49.369   6.727  14.935  0.00  0.00    +0.000 NA
ENDROOT
BRANCH   1   7
ATOM      7  C   UNL     1      51.583   7.357  15.786  0.00  0.00    +0.000 C 
BRANCH   7  10
ATOM      8  C   UNL     1      52.024   5.524  17.372  0.00  0.00    +0.000 C 
ATOM      9  O   UNL     1      53.159   5.362  16.930  0.00  0.00    +0.000 OA
ATOM     10  N   UNL     1      51.201   6.522  16.909  0.00  0.00    +0.000 N 
ATOM     11  H   UNL     1      50.226   6.545  17.171  0.00  0.00    +0.000 HD
BRANCH   8  15
ATOM     12  C   UNL     1      49.967   2.381  17.327  0.00  0.00    +0.000 C 
ATOM     13  C   UNL     1      51.499   2.400  17.371  0.00  0.00    +0.000 C 
ATOM     14  C   UNL     1      52.029   3.259  18.523  0.00  0.00    +0.000 C 
ATOM     15  C   UNL     1      51.448   4.683  18.521  0.00  0.00    +0.000 C 
ATOM     16  C   UNL     1      49.915   4.612  18.522  0.00  0.00    +0.000 C 
ATOM     17  C   UNL     1      49.376   3.793  17.349  0.00  0.00    +0.000 C 
BRANCH  12  18
ATOM     18  N   UNL     1      49.500   1.678  16.133  0.00  0.00    +0.000 NA
ATOM     19  H   UNL     1      49.520   0.673  16.298  0.00  0.00    +0.000 HD
ATOM     20  H   UNL     1      50.152   1.843  15.364  0.00  0.00    +0.000 HD
ENDBRANCH  12  18
ENDBRANCH   8  15
ENDBRANCH   7  10
ENDBRANCH   1   7
BRANCH   4  21
ATOM     21  C   UNL     1      47.249   7.853  12.002  0.00  0.00    +0.000 C 
BRANCH  21  22
ATOM     22  N   UNL     1      46.649   6.566  11.750  0.00  0.00    +0.000 N 
ATOM     23  C   UNL     1      45.286   6.429  11.664  0.00  0.00    +0.000 C 
ATOM     24  O   UNL     1      44.534   7.396  11.749  0.00  0.00    +0.000 OA
ATOM     25  H   UNL     1      47.221   5.742  11.915  0.00  0.00    +0.000 HD
BRANCH  23  26
ATOM     26  C   UNL     1      44.771   5.081  11.400  0.00  0.00    +0.000 A 
ATOM     27  C   UNL     1      44.055   4.415  12.387  0.00  0.00    +0.000 A 
ATOM     28  S   UNL     1      43.477   2.886  11.901  0.00  0.00    +0.000 S 
ATOM     29  C   UNL     1      44.208   3.034  10.373  0.00  0.00    +0.000 A 
ATOM     30  N   UNL     1      44.115   2.036   9.455  0.00  0.00    +0.000 NA
ATOM     31  C   UNL     1      44.749   2.263   8.353  0.00  0.00    +0.000 A 
ATOM     32  N   UNL     1      45.461   3.403   8.083  0.00  0.00    +0.000 N 
ATOM     33  C   UNL     1      45.554   4.453   8.967  0.00  0.00    +0.000 A 
ATOM     34  O   UNL     1      46.164   5.476   8.678  0.00  0.00    +0.000 OA
ATOM     35  C   UNL     1      44.871   4.241  10.227  0.00  0.00    +0.000 A 
ATOM     36  H   UNL     1      45.930   3.521   7.197  0.00  0.00    +0.000 HD
ENDBRANCH  23  26
ENDBRANCH  21  22
ENDBRANCH   4  21
TORSDOF 7
ENDMDL
MODEL 3
REMARK VINA RESULT:    -7.096      3.313      8.582
REMARK INTER + INTRA:         -10.737
REMARK INTER:                  -9.329
REMARK INTRA:                  -1.407
REMARK UNBOUND:                -0.944
REMARK  Name = 
REMARK  7 active torsions:
REMARK  status: ('A' for Active; 'I' for Inactive)
REMARK    1  A    between atoms: N_1  and  C_2
REMARK    2  A    between atoms: C_5  and  C_6
REMARK    3  A    between atoms: N_8  and  C_9
REMARK    4  A    between atoms: C_9  and  C_10
REMARK    5  A    between atoms: C_13  and  C_14
REMARK    6  A    between atoms: C_14  and  N_15
REMARK    7  A    between atoms: C_16  and  C_18
REMARK                            x       y       z     vdW  Elec       q    Type
REMARK                         _______ _______ _______ _____ _____    ______ ____
ROOT
ATOM      1  C   UNL     1      50.381   7.390  15.494  0.00  0.00    +0.000 A 
ATOM      2  C   UNL     1      49.030   7.070  15.382  0.00  0.00    +0.000 A 
ATOM      3  C   UNL     1      48.371   7.323  14.181  0.00  0.00    +0.000 A 
ATOM      4  C   UNL     1      49.064   7.908  13.120  0.00  0.00    +0.000 A 
ATOM      5  C   UNL     1      50.409   8.194  13.320  0.00  0.00    +0.000 A 
ATOM      6  N   UNL     1      51.076   7.961  14.477  0.00  0.00    +0.000 NA
ENDROOT
BRANCH   1   7
ATOM      7  C   UNL     1      51.123   7.130  16.786  0.00  0.00    +0.000 C 
BRANCH   7  10
ATOM      8  C   UNL     1      50.714   4.869  17.677  0.00  0.00    +0.000 C 
ATOM      9  O   UNL     1      51.665   4.408  17.051  0.00  0.00    +0.000 OA
ATOM     10  N   UNL     1      50.411   6.210  17.653  0.00  0.00    +0.000 N 
ATOM     11  H   UNL     1      49.544   6.546  18.047  0.00  0.00    +0.000 HD
BRANCH   8  15
ATOM     12  C   UNL     1      47.147   3.751  17.302  0.00  0.00    +0.000 C 
ATOM     13  C   UNL     1      48.354   2.949  16.798  0.00  0.00    +0.000 C 
ATOM     14  C   UNL     1      49.388   2.714  17.904  0.00  0.00    +0.000 C 
ATOM     15  C   UNL     1      49.825   4.016  18.596  0.00  0.00    +0.000 C 
ATOM     16  C   UNL     1      48.590   4.760  19.120  0.00  0.00    +0.000 C 
ATOM     17  C   UNL     1      47.572   5.037  18.014  0.00  0.00    +0.000 C 
BRANCH  12  18
ATOM     18  N   UNL     1      46.257   4.083  16.190  0.00  0.00    +0.000 NA
ATOM     19  H   UNL     1      45.316   3.749  16.395  0.00  0.00    +0.000 HD
ATOM     20  H   UNL     1      46.552   3.576  15.354  0.00  0.00    +0.000 HD
ENDBRANCH  12  18
ENDBRANCH   8  15
ENDBRANCH   7  10
ENDBRANCH   1   7
BRANCH   4  21
ATOM     21  C   UNL     1      48.395   8.187  11.807  0.00  0.00    +0.000 C 
BRANCH  21  22
ATOM     22  N   UNL     1      47.689   7.031  11.316  0.00  0.00    +0.000 N 
ATOM     23  C   UNL     1      46.317   6.982  11.338  0.00  0.00    +0.000 C 
ATOM     24  O   UNL     1      45.644   7.932  11.727  0.00  0.00    +0.000 OA
ATOM     25  H   UNL     1      48.214   6.166  11.220  0.00  0.00    +0.000 HD
BRANCH  23  26
ATOM     26  C   UNL     1      45.688   5.764  10.812  0.00  0.00    +0.000 A 
ATOM     27  C   UNL     1      45.800   5.465   9.459  0.00  0.00    +0.000 A 
ATOM     28  S   UNL     1      45.067   3.990   9.021  0.00  0.00    +0.000 S 
ATOM     29  C   UNL     1      44.525   3.724  10.611  0.00  0.00    +0.000 A 
ATOM     30  N   UNL     1      43.793   2.621  10.923  0.00  0.00    +0.000 NA
ATOM     31  C   UNL     1      43.415   2.564  12.157  0.00  0.00    +0.000 A 
ATOM     32  N   UNL     1      43.709   3.506  13.108  0.00  0.00    +0.000 N 
ATOM     33  C   UNL     1      44.475   4.619  12.846  0.00  0.00    +0.000 A 
ATOM     34  O   UNL     1      44.755   5.420  13.730  0.00  0.00    +0.000 OA
ATOM     35  C   UNL     1      44.913   4.738  11.470  0.00  0.00    +0.000 A 
ATOM     36  H   UNL     1      43.387   3.398  14.058  0.00  0.00    +0.000 HD
ENDBRANCH  23  26
ENDBRANCH  21  22
ENDBRANCH   4  21
TORSDOF 7
ENDMDL
MODEL 4
REMARK VINA RESULT:    -7.002      2.054      3.151
REMARK INTER + INTRA:         -10.606
REMARK INTER:                  -9.703
REMARK INTRA:                  -0.903
REMARK UNBOUND:                -0.944
REMARK  Name = 
REMARK  7 active torsions:
REMARK  status: ('A' for Active; 'I' for Inactive)
REMARK    1  A    between atoms: N_1  and  C_2
REMARK    2  A    between atoms: C_5  and  C_6
REMARK    3  A    between atoms: N_8  and  C_9
REMARK    4  A    between atoms: C_9  and  C_10
REMARK    5  A    between atoms: C_13  and  C_14
REMARK    6  A    between atoms: C_14  and  N_15
REMARK    7  A    between atoms: C_16  and  C_18
REMARK                            x       y       z     vdW  Elec       q    Type
REMARK                         _______ _______ _______ _____ _____    ______ ____
ROOT
ATOM      1  C   UNL     1      48.097   5.684  15.175  0.00  0.00    +0.000 A 
ATOM      2  C   UNL     1      48.692   6.772  15.810  0.00  0.00    +0.000 A 
ATOM      3  C   UNL     1      49.140   6.630  17.121  0.00  0.00    +0.000 A 
ATOM      4  C   UNL     1      48.970   5.414  17.784  0.00  0.00    +0.000 A 
ATOM      5  C   UNL     1      48.367   4.382  17.074  0.00  0.00    +0.000 A 
ATOM      6  N   UNL     1      47.920   4.491  15.799  0.00  0.00    +0.000 NA
ENDROOT
BRANCH   1   7
ATOM      7  C   UNL     1      47.599   5.808  13.753  0.00  0.00    +0.000 C 
BRANCH   7  10
ATOM      8  C   UNL     1      45.655   4.360  13.310  0.00  0.00    +0.000 C 
ATOM      9  O   UNL     1      46.371   3.370  13.183  0.00  0.00    +0.000 OA
ATOM     10  N   UNL     1      46.168   5.588  13.650  0.00  0.00    +0.000 N 
ATOM     11  H   UNL     1      45.591   6.416  13.601  0.00  0.00    +0.000 HD
BRANCH   8  15
ATOM     12  C   UNL     1      43.452   4.451  10.268  0.00  0.00    +0.000 C 
ATOM     13  C   UNL     1      43.997   3.161  10.892  0.00  0.00    +0.000 C 
ATOM     14  C   UNL     1      43.673   3.065  12.386  0.00  0.00    +0.000 C 
ATOM     15  C   UNL     1      44.125   4.307  13.174  0.00  0.00    +0.000 C 
ATOM     16  C   UNL     1      43.520   5.566  12.539  0.00  0.00    +0.000 C 
ATOM     17  C   UNL     1      43.875   5.692  11.058  0.00  0.00    +0.000 C 
BRANCH  12  18
ATOM     18  N   UNL     1      43.906   4.578   8.884  0.00  0.00    +0.000 NA
ATOM     19  H   UNL     1      43.192   5.052   8.333  0.00  0.00    +0.000 HD
ATOM     20  H   UNL     1      44.001   3.649   8.469  0.00  0.00    +0.000 HD
ENDBRANCH  12  18
ENDBRANCH   8  15
ENDBRANCH   7  10
ENDBRANCH   1   7
BRANCH   4  21
ATOM     21  C   UNL     1      49.447   5.215  19.192  0.00  0.00    +0.000 C 
BRANCH  21  22
ATOM     22  N   UNL     1      50.546   4.284  19.252  0.00  0.00    +0.000 N 
ATOM     23  C   UNL     1      51.833   4.697  19.015  0.00  0.00    +0.000 C 
ATOM     24  O   UNL     1      52.102   5.874  18.793  0.00  0.00    +0.000 OA
ATOM     25  H   UNL     1      50.325   3.293  19.195  0.00  0.00    +0.000 HD
BRANCH  23  26
ATOM     26  C   UNL     1      52.885   3.677  19.105  0.00  0.00    +0.000 A 
ATOM     27  C   UNL     1      54.011   3.921  19.880  0.00  0.00    +0.000 A 
ATOM     28  S   UNL     1      55.107   2.615  19.927  0.00  0.00    +0.000 S 
ATOM     29  C   UNL     1      54.142   1.697  18.868  0.00  0.00    +0.000 A 
ATOM     30  N   UNL     1      54.529   0.456  18.472  0.00  0.00    +0.000 NA
ATOM     31  C   UNL     1      53.723  -0.113  17.638  0.00  0.00    +0.000 A 
ATOM     32  N   UNL     1      52.562   0.444  17.171  0.00  0.00    +0.000 N 
ATOM     33  C   UNL     1      52.114   1.683  17.571  0.00  0.00    +0.000 A 
ATOM     34  O   UNL     1      51.048   2.134  17.167  0.00  0.00    +0.000 OA
ATOM     35  C   UNL     1      52.991   2.370  18.497  0.00  0.00    +0.000 A 
ATOM     36  H   UNL     1      51.972  -0.057  16.523  0.00  0.00    +0.000 HD
ENDBRANCH  23  26
ENDBRANCH  21  22
ENDBRANCH   4  21
TORSDOF 7
ENDMDL
MODEL 5
REMARK VINA RESULT:    -6.381      5.822      9.816
REMARK INTER + INTRA:          -9.749
REMARK INTER:                  -8.864
REMARK INTRA:                  -0.885
REMARK UNBOUND:                -0.944
REMARK  Name = 
REMARK  7 active torsions:
REMARK  status: ('A' for Active; 'I' for Inactive)
REMARK    1  A    between atoms: N_1  and  C_2
REMARK    2  A    between atoms: C_5  and  C_6
REMARK    3  A    between atoms: N_8  and  C_9
REMARK    4  A    between atoms: C_9  and  C_10
REMARK    5  A    between atoms: C_13  and  C_14
REMARK    6  A    between atoms: C_14  and  N_15
REMARK    7  A    between atoms: C_16  and  C_18
REMARK                            x       y       z     vdW  Elec       q    Type
REMARK                         _______ _______ _______ _____ _____    ______ ____
ROOT
ATOM      1  C   UNL     1      50.750   8.542  12.146  0.00  0.00    +0.000 A 
ATOM      2  C   UNL     1      50.007   9.603  11.635  0.00  0.00    +0.000 A 
ATOM      3  C   UNL     1      48.617   9.508  11.613  0.00  0.00    +0.000 A 
ATOM      4  C   UNL     1      47.993   8.351  12.082  0.00  0.00    +0.000 A 
ATOM      5  C   UNL     1      48.813   7.343  12.574  0.00  0.00    +0.000 A 
ATOM      6  N   UNL     1      50.167   7.406  12.608  0.00  0.00    +0.000 NA
ENDROOT
BRANCH   1   7
ATOM      7  C   UNL     1      52.260   8.614  12.181  0.00  0.00    +0.000 C 
BRANCH   7  10
ATOM      8  C   UNL     1      53.920   7.883  10.513  0.00  0.00    +0.000 C 
ATOM      9  O   UNL     1      54.443   8.995  10.489  0.00  0.00    +0.000 OA
ATOM     10  N   UNL     1      52.879   7.589  11.361  0.00  0.00    +0.000 N 
ATOM     11  H   UNL     1      52.365   6.726  11.261  0.00  0.00    +0.000 HD
BRANCH   8  15
ATOM     12  C   UNL     1      53.547   7.170   6.844  0.00  0.00    +0.000 C 
ATOM     13  C   UNL     1      54.718   7.952   7.449  0.00  0.00    +0.000 C 
ATOM     14  C   UNL     1      55.405   7.175   8.577  0.00  0.00    +0.000 C 
ATOM     15  C   UNL     1      54.420   6.706   9.661  0.00  0.00    +0.000 C 
ATOM     16  C   UNL     1      53.292   5.893   9.014  0.00  0.00    +0.000 C 
ATOM     17  C   UNL     1      52.572   6.677   7.917  0.00  0.00    +0.000 C 
BRANCH  12  18
ATOM     18  N   UNL     1      52.826   7.999   5.878  0.00  0.00    +0.000 NA
ATOM     19  H   UNL     1      53.087   8.975   6.004  0.00  0.00    +0.000 HD
ATOM     20  H   UNL     1      51.824   7.956   6.073  0.00  0.00    +0.000 HD
ENDBRANCH  12  18
ENDBRANCH   8  15
ENDBRANCH   7  10
ENDBRANCH   1   7
BRANCH   4  21
ATOM     21  C   UNL     1      46.500   8.212  12.086  0.00  0.00    +0.000 C 
BRANCH  21  22
ATOM     22  N   UNL     1      46.094   6.852  11.833  0.00  0.00    +0.000 N 
ATOM     23  C   UNL     1      44.797   6.556  11.495  0.00  0.00    +0.000 C 
ATOM     24  O   UNL     1      43.952   7.434  11.348  0.00  0.00    +0.000 OA
ATOM     25  H   UNL     1      46.699   6.111  12.177  0.00  0.00    +0.000 HD
BRANCH  23  26
ATOM     26  C   UNL     1      44.482   5.143  11.252  0.00  0.00    +0.000 A 
ATOM     27  C   UNL     1      43.724   4.441  12.181  0.00  0.00    +0.000 A 
ATOM     28  S   UNL     1      43.397   2.831  11.722  0.00  0.00    +0.000 S 
ATOM     29  C   UNL     1      44.302   2.997  10.292  0.00  0.00    +0.000 A 
ATOM     30  N   UNL     1      44.449   1.953   9.433  0.00  0.00    +0.000 NA
ATOM     31  C   UNL     1      45.192   2.206   8.408  0.00  0.00    +0.000 A 
ATOM     32  N   UNL     1      45.796   3.411   8.159  0.00  0.00    +0.000 N 
ATOM     33  C   UNL     1      45.649   4.504   8.981  0.00  0.00    +0.000 A 
ATOM     34  O   UNL     1      46.168   5.580   8.708  0.00  0.00    +0.000 OA
ATOM     35  C   UNL     1      44.834   4.268  10.156  0.00  0.00    +0.000 A 
ATOM     36  H   UNL     1      46.362   3.545   7.334  0.00  0.00    +0.000 HD
ENDBRANCH  23  26
ENDBRANCH  21  22
ENDBRANCH   4  21
TORSDOF 7
ENDMDL
MODEL 6
REMARK VINA RESULT:    -6.201      3.508      8.386
REMARK INTER + INTRA:          -9.502
REMARK INTER:                  -7.978
REMARK INTRA:                  -1.524
REMARK UNBOUND:                -0.944
REMARK  Name = 
REMARK  7 active torsions:
REMARK  status: ('A' for Active; 'I' for Inactive)
REMARK    1  A    between atoms: N_1  and  C_2
REMARK    2  A    between atoms: C_5  and  C_6
REMARK    3  A    between atoms: N_8  and  C_9
REMARK    4  A    between atoms: C_9  and  C_10
REMARK    5  A    between atoms: C_13  and  C_14
REMARK    6  A    between atoms: C_14  and  N_15
REMARK    7  A    between atoms: C_16  and  C_18
REMARK                            x       y       z     vdW  Elec       q    Type
REMARK                         _______ _______ _______ _____ _____    ______ ____
ROOT
ATOM      1  C   UNL     1      50.502   8.017  17.077  0.00  0.00    +0.000 A 
ATOM      2  C   UNL     1      51.063   9.014  16.283  0.00  0.00    +0.000 A 
ATOM      3  C   UNL     1      50.295   9.583  15.268  0.00  0.00    +0.000 A 
ATOM      4  C   UNL     1      48.992   9.135  15.050  0.00  0.00    +0.000 A 
ATOM      5  C   UNL     1      48.514   8.136  15.891  0.00  0.00    +0.000 A 
ATOM      6  N   UNL     1      49.236   7.564  16.885  0.00  0.00    +0.000 NA
ENDROOT
BRANCH   1   7
ATOM      7  C   UNL     1      51.310   7.378  18.184  0.00  0.00    +0.000 C 
BRANCH   7  10
ATOM      8  C   UNL     1      50.774   4.979  18.011  0.00  0.00    +0.000 C 
ATOM      9  O   UNL     1      51.467   4.857  17.004  0.00  0.00    +0.000 OA
ATOM     10  N   UNL     1      50.688   6.169  18.693  0.00  0.00    +0.000 N 
ATOM     11  H   UNL     1      50.002   6.293  19.423  0.00  0.00    +0.000 HD
BRANCH   8  15
ATOM     12  C   UNL     1      47.350   3.614  17.292  0.00  0.00    +0.000 C 
ATOM     13  C   UNL     1      48.628   3.126  16.600  0.00  0.00    +0.000 C 
ATOM     14  C   UNL     1      49.703   2.711  17.609  0.00  0.00    +0.000 C 
ATOM     15  C   UNL     1      50.005   3.808  18.643  0.00  0.00    +0.000 C 
ATOM     16  C   UNL     1      48.705   4.231  19.338  0.00  0.00    +0.000 C 
ATOM     17  C   UNL     1      47.641   4.690  18.341  0.00  0.00    +0.000 C 
BRANCH  12  18
ATOM     18  N   UNL     1      46.406   4.140  16.306  0.00  0.00    +0.000 NA
ATOM     19  H   UNL     1      46.605   3.735  15.392  0.00  0.00    +0.000 HD
ATOM     20  H   UNL     1      46.552   5.145  16.198  0.00  0.00    +0.000 HD
ENDBRANCH  12  18
ENDBRANCH   8  15
ENDBRANCH   7  10
ENDBRANCH   1   7
BRANCH   4  21
ATOM     21  C   UNL     1      48.129   9.727  13.976  0.00  0.00    +0.000 C 
BRANCH  21  22
ATOM     22  N   UNL     1      47.062   8.834  13.601  0.00  0.00    +0.000 N 
ATOM     23  C   UNL     1      47.149   8.070  12.464  0.00  0.00    +0.000 C 
ATOM     24  O   UNL     1      48.151   8.082  11.755  0.00  0.00    +0.000 OA
ATOM     25  H   UNL     1      46.151   8.986  14.028  0.00  0.00    +0.000 HD
BRANCH  23  26
ATOM     26  C   UNL     1      46.015   7.187  12.170  0.00  0.00    +0.000 A 
ATOM     27  C   UNL     1      44.889   7.704  11.541  0.00  0.00    +0.000 A 
ATOM     28  S   UNL     1      43.688   6.538  11.218  0.00  0.00    +0.000 S 
ATOM     29  C   UNL     1      44.605   5.310  11.954  0.00  0.00    +0.000 A 
ATOM     30  N   UNL     1      44.129   4.039  12.038  0.00  0.00    +0.000 NA
ATOM     31  C   UNL     1      44.910   3.216  12.656  0.00  0.00    +0.000 A 
ATOM     32  N   UNL     1      46.128   3.548  13.190  0.00  0.00    +0.000 N 
ATOM     33  C   UNL     1      46.665   4.812  13.099  0.00  0.00    +0.000 A 
ATOM     34  O   UNL     1      47.776   5.065  13.550  0.00  0.00    +0.000 OA
ATOM     35  C   UNL     1      45.819   5.777  12.426  0.00  0.00    +0.000 A 
ATOM     36  H   UNL     1      46.694   2.855  13.656  0.00  0.00    +0.000 HD
ENDBRANCH  23  26
ENDBRANCH  21  22
ENDBRANCH   4  21
TORSDOF 7
ENDMDL
MODEL 7
REMARK VINA RESULT:    -6.147      4.204      9.288
REMARK INTER + INTRA:          -9.427
REMARK INTER:                  -8.803
REMARK INTRA:                  -0.623
REMARK UNBOUND:                -0.944
REMARK  Name = 
REMARK  7 active torsions:
REMARK  status: ('A' for Active; 'I' for Inactive)
REMARK    1  A    between atoms: N_1  and  C_2
REMARK    2  A    between atoms: C_5  and  C_6
REMARK    3  A    between atoms: N_8  and  C_9
REMARK    4  A    between atoms: C_9  and  C_10
REMARK    5  A    between atoms: C_13  and  C_14
REMARK    6  A    between atoms: C_14  and  N_15
REMARK    7  A    between atoms: C_16  and  C_18
REMARK                            x       y       z     vdW  Elec       q    Type
REMARK                         _______ _______ _______ _____ _____    ______ ____
ROOT
ATOM      1  C   UNL     1      50.277   8.690  15.284  0.00  0.00    +0.000 A 
ATOM      2  C   UNL     1      49.283   9.640  15.062  0.00  0.00    +0.000 A 
ATOM      3  C   UNL     1      48.499   9.544  13.914  0.00  0.00    +0.000 A 
ATOM      4  C   UNL     1      48.731   8.515  13.000  0.00  0.00    +0.000 A 
ATOM      5  C   UNL     1      49.743   7.612  13.303  0.00  0.00    +0.000 A 
ATOM      6  N   UNL     1      50.522   7.680  14.410  0.00  0.00    +0.000 NA
ENDROOT
BRANCH   1   7
ATOM      7  C   UNL     1      51.146   8.769  16.519  0.00  0.00    +0.000 C 
BRANCH   7  10
ATOM      8  C   UNL     1      49.621   7.720  18.147  0.00  0.00    +0.000 C 
ATOM      9  O   UNL     1      49.669   6.643  17.557  0.00  0.00    +0.000 OA
ATOM     10  N   UNL     1      50.364   8.803  17.741  0.00  0.00    +0.000 N 
ATOM     11  H   UNL     1      50.199   9.716  18.141  0.00  0.00    +0.000 HD
BRANCH   8  15
ATOM     12  C   UNL     1      48.296   5.267  20.664  0.00  0.00    +0.000 C 
ATOM     13  C   UNL     1      49.666   5.947  20.771  0.00  0.00    +0.000 C 
ATOM     14  C   UNL     1      49.558   7.473  20.675  0.00  0.00    +0.000 C 
ATOM     15  C   UNL     1      48.794   7.937  19.424  0.00  0.00    +0.000 C 
ATOM     16  C   UNL     1      47.416   7.266  19.384  0.00  0.00    +0.000 C 
ATOM     17  C   UNL     1      47.516   5.741  19.435  0.00  0.00    +0.000 C 
BRANCH  12  18
ATOM     18  N   UNL     1      48.451   3.814  20.610  0.00  0.00    +0.000 NA
ATOM     19  H   UNL     1      47.748   3.373  21.201  0.00  0.00    +0.000 HD
ATOM     20  H   UNL     1      49.352   3.553  21.014  0.00  0.00    +0.000 HD
ENDBRANCH  12  18
ENDBRANCH   8  15
ENDBRANCH   7  10
ENDBRANCH   1   7
BRANCH   4  21
ATOM     21  C   UNL     1      47.903   8.369  11.758  0.00  0.00    +0.000 C 
BRANCH  21  22
ATOM     22  N   UNL     1      47.103   7.171  11.793  0.00  0.00    +0.000 N 
ATOM     23  C   UNL     1      45.733   7.240  11.855  0.00  0.00    +0.000 C 
ATOM     24  O   UNL     1      45.140   8.315  11.835  0.00  0.00    +0.000 OA
ATOM     25  H   UNL     1      47.568   6.304  12.049  0.00  0.00    +0.000 HD
BRANCH  23  26
ATOM     26  C   UNL     1      45.005   5.966  11.881  0.00  0.00    +0.000 A 
ATOM     27  C   UNL     1      44.293   5.607  13.019  0.00  0.00    +0.000 A 
ATOM     28  S   UNL     1      43.457   4.128  12.866  0.00  0.00    +0.000 S 
ATOM     29  C   UNL     1      44.060   3.887  11.294  0.00  0.00    +0.000 A 
ATOM     30  N   UNL     1      43.739   2.771  10.588  0.00  0.00    +0.000 NA
ATOM     31  C   UNL     1      44.296   2.697   9.425  0.00  0.00    +0.000 A 
ATOM     32  N   UNL     1      45.139   3.643   8.901  0.00  0.00    +0.000 N 
ATOM     33  C   UNL     1      45.464   4.804   9.565  0.00  0.00    +0.000 A 
ATOM     34  O   UNL     1      46.186   5.650   9.051  0.00  0.00    +0.000 OA
ATOM     35  C   UNL     1      44.875   4.928  10.883  0.00  0.00    +0.000 A 
ATOM     36  H   UNL     1      45.537   3.527   7.981  0.00  0.00    +0.000 HD
ENDBRANCH  23  26
ENDBRANCH  21  22
ENDBRANCH   4  21
TORSDOF 7
ENDMDL
MODEL 8
REMARK VINA RESULT:    -6.027      6.133      9.407
REMARK INTER + INTRA:          -9.261
REMARK INTER:                  -8.673
REMARK INTRA:                  -0.588
REMARK UNBOUND:                -0.944
REMARK  Name = 
REMARK  7 active torsions:
REMARK  status: ('A' for Active; 'I' for Inactive)
REMARK    1  A    between atoms: N_1  and  C_2
REMARK    2  A    between atoms: C_5  and  C_6
REMARK    3  A    between atoms: N_8  and  C_9
REMARK    4  A    between atoms: C_9  and  C_10
REMARK    5  A    between atoms: C_13  and  C_14
REMARK    6  A    between atoms: C_14  and  N_15
REMARK    7  A    between atoms: C_16  and  C_18
REMARK                            x       y       z     vdW  Elec       q    Type
REMARK                         _______ _______ _______ _____ _____    ______ ____
ROOT
ATOM      1  C   UNL     1      51.973   9.493  10.955  0.00  0.00    +0.000 A 
ATOM      2  C   UNL     1      51.433   8.271  10.562  0.00  0.00    +0.000 A 
ATOM      3  C   UNL     1      50.572   7.601  11.428  0.00  0.00    +0.000 A 
ATOM      4  C   UNL     1      50.280   8.150  12.677  0.00  0.00    +0.000 A 
ATOM      5  C   UNL     1      50.864   9.373  12.986  0.00  0.00    +0.000 A 
ATOM      6  N   UNL     1      51.705  10.047  12.165  0.00  0.00    +0.000 NA
ENDROOT
BRANCH   1   7
ATOM      7  C   UNL     1      52.913  10.243  10.038  0.00  0.00    +0.000 C 
BRANCH   7  10
ATOM      8  C   UNL     1      54.166   9.095   8.253  0.00  0.00    +0.000 C 
ATOM      9  O   UNL     1      55.163   8.995   8.964  0.00  0.00    +0.000 OA
ATOM     10  N   UNL     1      52.994   9.641   8.720  0.00  0.00    +0.000 N 
ATOM     11  H   UNL     1      52.239   9.854   8.084  0.00  0.00    +0.000 HD
BRANCH   8  15
ATOM     12  C   UNL     1      53.798   5.593   6.946  0.00  0.00    +0.000 C 
ATOM     13  C   UNL     1      52.617   6.527   7.235  0.00  0.00    +0.000 C 
ATOM     14  C   UNL     1      52.763   7.874   6.522  0.00  0.00    +0.000 C 
ATOM     15  C   UNL     1      54.109   8.560   6.814  0.00  0.00    +0.000 C 
ATOM     16  C   UNL     1      55.258   7.604   6.468  0.00  0.00    +0.000 C 
ATOM     17  C   UNL     1      55.144   6.273   7.210  0.00  0.00    +0.000 C 
BRANCH  12  18
ATOM     18  N   UNL     1      53.699   4.380   7.757  0.00  0.00    +0.000 NA
ATOM     19  H   UNL     1      54.164   4.529   8.652  0.00  0.00    +0.000 HD
ATOM     20  H   UNL     1      54.215   3.623   7.304  0.00  0.00    +0.000 HD
ENDBRANCH  12  18
ENDBRANCH   8  15
ENDBRANCH   7  10
ENDBRANCH   1   7
BRANCH   4  21
ATOM     21  C   UNL     1      49.350   7.466  13.636  0.00  0.00    +0.000 C 
BRANCH  21  22
ATOM     22  N   UNL     1      48.066   7.207  13.033  0.00  0.00    +0.000 N 
ATOM     23  C   UNL     1      47.274   6.180  13.480  0.00  0.00    +0.000 C 
ATOM     24  O   UNL     1      47.602   5.479  14.433  0.00  0.00    +0.000 OA
ATOM     25  H   UNL     1      47.890   7.607  12.115  0.00  0.00    +0.000 HD
BRANCH  23  26
ATOM     26  C   UNL     1      45.981   5.999  12.808  0.00  0.00    +0.000 A 
ATOM     27  C   UNL     1      45.280   7.112  12.361  0.00  0.00    +0.000 A 
ATOM     28  S   UNL     1      43.830   6.728  11.550  0.00  0.00    +0.000 S 
ATOM     29  C   UNL     1      44.059   5.063  11.815  0.00  0.00    +0.000 A 
ATOM     30  N   UNL     1      43.144   4.156  11.382  0.00  0.00    +0.000 NA
ATOM     31  C   UNL     1      43.423   2.931  11.684  0.00  0.00    +0.000 A 
ATOM     32  N   UNL     1      44.539   2.532  12.372  0.00  0.00    +0.000 N 
ATOM     33  C   UNL     1      45.508   3.411  12.799  0.00  0.00    +0.000 A 
ATOM     34  O   UNL     1      46.515   3.016  13.375  0.00  0.00    +0.000 OA
ATOM     35  C   UNL     1      45.234   4.801  12.498  0.00  0.00    +0.000 A 
ATOM     36  H   UNL     1      44.701   1.556  12.571  0.00  0.00    +0.000 HD
ENDBRANCH  23  26
ENDBRANCH  21  22
ENDBRANCH   4  21
TORSDOF 7
ENDMDL
MODEL 9
REMARK VINA RESULT:    -6.024      4.782      6.376
REMARK INTER + INTRA:          -9.256
REMARK INTER:                  -8.405
REMARK INTRA:                  -0.851
REMARK UNBOUND:                -0.944
REMARK  Name = 
REMARK  7 active torsions:
REMARK  status: ('A' for Active; 'I' for Inactive)
REMARK    1  A    between atoms: N_1  and  C_2
REMARK    2  A    between atoms: C_5  and  C_6
REMARK    3  A    between atoms: N_8  and  C_9
REMARK    4  A    between atoms: C_9  and  C_10
REMARK    5  A    between atoms: C_13  and  C_14
REMARK    6  A    between atoms: C_14  and  N_15
REMARK    7  A    between atoms: C_16  and  C_18
REMARK                            x       y       z     vdW  Elec       q    Type
REMARK                         _______ _______ _______ _____ _____    ______ ____
ROOT
ATOM      1  C   UNL     1      47.905   5.408  14.977  0.00  0.00    +0.000 A 
ATOM      2  C   UNL     1      48.541   5.592  16.202  0.00  0.00    +0.000 A 
ATOM      3  C   UNL     1      49.566   6.531  16.300  0.00  0.00    +0.000 A 
ATOM      4  C   UNL     1      49.952   7.255  15.171  0.00  0.00    +0.000 A 
ATOM      5  C   UNL     1      49.263   7.007  13.990  0.00  0.00    +0.000 A 
ATOM      6  N   UNL     1      48.263   6.100  13.865  0.00  0.00    +0.000 NA
ENDROOT
BRANCH   1   7
ATOM      7  C   UNL     1      46.791   4.395  14.839  0.00  0.00    +0.000 C 
BRANCH   7  10
ATOM      8  C   UNL     1      45.246   4.117  12.940  0.00  0.00    +0.000 C 
ATOM      9  O   UNL     1      45.634   2.968  12.742  0.00  0.00    +0.000 OA
ATOM     10  N   UNL     1      45.717   4.871  13.987  0.00  0.00    +0.000 N 
ATOM     11  H   UNL     1      45.504   5.857  14.045  0.00  0.00    +0.000 HD
BRANCH   8  15
ATOM     12  C   UNL     1      45.037   4.722   9.238  0.00  0.00    +0.000 C 
ATOM     13  C   UNL     1      44.502   3.464   9.931  0.00  0.00    +0.000 C 
ATOM     14  C   UNL     1      43.545   3.804  11.078  0.00  0.00    +0.000 C 
ATOM     15  C   UNL     1      44.155   4.788  12.090  0.00  0.00    +0.000 C 
ATOM     16  C   UNL     1      44.636   6.047  11.357  0.00  0.00    +0.000 C 
ATOM     17  C   UNL     1      45.625   5.721  10.239  0.00  0.00    +0.000 C 
BRANCH  12  18
ATOM     18  N   UNL     1      46.057   4.366   8.252  0.00  0.00    +0.000 NA
ATOM     19  H   UNL     1      45.767   4.688   7.330  0.00  0.00    +0.000 HD
ATOM     20  H   UNL     1      46.121   3.349   8.180  0.00  0.00    +0.000 HD
ENDBRANCH  12  18
ENDBRANCH   8  15
ENDBRANCH   7  10
ENDBRANCH   1   7
BRANCH   4  21
ATOM     21  C   UNL     1      51.043   8.282  15.235  0.00  0.00    +0.000 C 
BRANCH  21  22
ATOM     22  N   UNL     1      52.056   8.042  14.237  0.00  0.00    +0.000 N 
ATOM     23  C   UNL     1      52.277   8.943  13.227  0.00  0.00    +0.000 C 
ATOM     24  O   UNL     1      51.660  10.003  13.161  0.00  0.00    +0.000 OA
ATOM     25  H   UNL     1      52.397   7.089  14.136  0.00  0.00    +0.000 HD
BRANCH  23  26
ATOM     26  C   UNL     1      53.333   8.613  12.262  0.00  0.00    +0.000 A 
ATOM     27  C   UNL     1      54.644   8.986  12.528  0.00  0.00    +0.000 A 
ATOM     28  S   UNL     1      55.756   8.476  11.340  0.00  0.00    +0.000 S 
ATOM     29  C   UNL     1      54.518   7.785  10.400  0.00  0.00    +0.000 A 
ATOM     30  N   UNL     1      54.796   7.188   9.211  0.00  0.00    +0.000 NA
ATOM     31  C   UNL     1      53.760   6.740   8.584  0.00  0.00    +0.000 A 
ATOM     32  N   UNL     1      52.471   6.830   9.042  0.00  0.00    +0.000 N 
ATOM     33  C   UNL     1      52.146   7.395  10.254  0.00  0.00    +0.000 A 
ATOM     34  O   UNL     1      50.988   7.420  10.654  0.00  0.00    +0.000 OA
ATOM     35  C   UNL     1      53.275   7.926  10.991  0.00  0.00    +0.000 A 
ATOM     36  H   UNL     1      51.704   6.454   8.504  0.00  0.00    +0.000 HD
ENDBRANCH  23  26
ENDBRANCH  21  22
ENDBRANCH   4  21
TORSDOF 7
ENDMDL
