MODEL 1
REMARK VINA RESULT:    -7.546      0.000      0.000
REMARK INTER + INTRA:         -11.125
REMARK INTER:                 -10.193
REMARK INTRA:                  -0.932
REMARK UNBOUND:                -0.932
REMARK  Name = 
REMARK  8 active torsions:
REMARK  status: ('A' for Active; 'I' for Inactive)
REMARK    1  A    between atoms: C_1  and  O_2
REMARK    2  A    between atoms: O_2  and  C_3
REMARK    3  A    between atoms: C_7  and  N_8
REMARK    4  A    between atoms: N_8  and  C_9
REMARK    5  A    between atoms: C_9  and  C_10
REMARK    6  A    between atoms: C_14  and  C_15
REMARK    7  A    between atoms: C_19  and  O_20
REMARK    8  A    between atoms: O_20  and  C_21
REMARK                            x       y       z     vdW  Elec       q    Type
REMARK                         _______ _______ _______ _____ _____    ______ ____
ROOT
ATOM      1  C   UNL     1      44.699   4.791  11.531  0.00  0.00    +0.000 A 
ATOM      2  C   UNL     1      45.147   3.791  12.399  0.00  0.00    +0.000 A 
ATOM      3  C   UNL     1      46.228   4.031  13.242  0.00  0.00    +0.000 A 
ATOM      4  C   UNL     1      46.879   5.268  13.216  0.00  0.00    +0.000 A 
ATOM      5  C   UNL     1      46.469   6.293  12.346  0.00  0.00    +0.000 A 
ATOM      6  C   UNL     1      45.344   6.039  11.538  0.00  0.00    +0.000 A 
ENDROOT
BRANCH   5   7
ATOM      7  C   UNL     1      47.245   7.546  12.184  0.00  0.00    +0.000 A 
ATOM      8  C   UNL     1      48.627   7.506  11.930  0.00  0.00    +0.000 A 
ATOM      9  C   UNL     1      49.350   8.667  11.649  0.00  0.00    +0.000 A 
ATOM     10  C   UNL     1      48.704   9.900  11.595  0.00  0.00    +0.000 A 
ATOM     11  C   UNL     1      47.338   9.979  11.848  0.00  0.00    +0.000 A 
ATOM     12  C   UNL     1      46.628   8.811  12.168  0.00  0.00    +0.000 A 
BRANCH  11  13
ATOM     13  O   UNL     1      46.577  11.115  11.795  0.00  0.00    +0.000 OA
ATOM     14  C   UNL     1      45.170  10.940  11.677  0.00  0.00    +0.000 C 
ENDBRANCH  11  13
ENDBRANCH   5   7
BRANCH   1  15
ATOM     15  C   UNL     1      43.588   4.521  10.546  0.00  0.00    +0.000 C 
BRANCH  15  16
ATOM     16  N   UNL     1      44.078   4.583   9.180  0.00  0.00    +0.000 N 
ATOM     17  H   UNL     1      44.414   5.506   8.911  0.00  0.00    +0.000 HD
BRANCH  16  22
ATOM     18  C   UNL     1      46.804   2.668   7.482  0.00  0.00    +0.000 A 
ATOM     19  C   UNL     1      46.452   1.404   7.939  0.00  0.00    +0.000 A 
ATOM     20  N   UNL     1      45.388   1.153   8.733  0.00  0.00    +0.000 NA
ATOM     21  C   UNL     1      44.641   2.229   9.089  0.00  0.00    +0.000 A 
ATOM     22  C   UNL     1      44.872   3.544   8.679  0.00  0.00    +0.000 A 
ATOM     23  C   UNL     1      46.004   3.743   7.879  0.00  0.00    +0.000 A 
BRANCH  18  25
ATOM     24  C   UNL     1      47.716   2.538   5.290  0.00  0.00    +0.000 C 
ATOM     25  O   UNL     1      47.911   2.733   6.687  0.00  0.00    +0.000 OA
ENDBRANCH  18  25
ENDBRANCH  16  22
ENDBRANCH  15  16
ENDBRANCH   1  15
TORSDOF 6
ENDMDL
MODEL 2
REMARK VINA RESULT:    -7.442      1.521      1.845
REMARK INTER + INTRA:         -10.985
REMARK INTER:                  -9.948
REMARK INTRA:                  -1.037
REMARK UNBOUND:                -0.932
REMARK  Name = 
REMARK  8 active torsions:
REMARK  status: ('A' for Active; 'I' for Inactive)
REMARK    1  A    between atoms: C_1  and  O_2
REMARK    2  A    between atoms: O_2  and  C_3
REMARK    3  A    between atoms: C_7  and  N_8
REMARK    4  A    between atoms: N_8  and  C_9
REMARK    5  A    between atoms: C_9  and  C_10
REMARK    6  A    between atoms: C_14  and  C_15
REMARK    7  A    between atoms: C_19  and  O_20
REMARK    8  A    between atoms: O_20  and  C_21
REMARK                            x       y       z     vdW  Elec       q    Type
REMARK                         _______ _______ _______ _____ _____    ______ ____
ROOT
ATOM      1  C   UNL     1      44.784   4.613  12.567  0.00  0.00    +0.000 A 
ATOM      2  C   UNL     1      45.784   3.820  13.138  0.00  0.00    +0.000 A 
ATOM      3  C   UNL     1      46.964   4.403  13.592  0.00  0.00    +0.000 A 
ATOM      4  C   UNL     1      47.160   5.783  13.468  0.00  0.00    +0.000 A 
ATOM      5  C   UNL     1      46.185   6.611  12.884  0.00  0.00    +0.000 A 
ATOM      6  C   UNL     1      44.983   6.001  12.477  0.00  0.00    +0.000 A 
ENDROOT
BRANCH   5   7
ATOM      7  C   UNL     1      46.440   8.042  12.593  0.00  0.00    +0.000 A 
ATOM      8  C   UNL     1      47.735   8.490  12.281  0.00  0.00    +0.000 A 
ATOM      9  C   UNL     1      47.973   9.807  11.881  0.00  0.00    +0.000 A 
ATOM     10  C   UNL     1      46.916  10.707  11.761  0.00  0.00    +0.000 A 
ATOM     11  C   UNL     1      45.622  10.299  12.069  0.00  0.00    +0.000 A 
ATOM     12  C   UNL     1      45.399   8.986  12.508  0.00  0.00    +0.000 A 
BRANCH  11  13
ATOM     13  O   UNL     1      44.494  11.067  11.963  0.00  0.00    +0.000 OA
ATOM     14  C   UNL     1      43.385  10.487  11.287  0.00  0.00    +0.000 C 
ENDBRANCH  11  13
ENDBRANCH   5   7
BRANCH   1  15
ATOM     15  C   UNL     1      43.538   3.990  11.987  0.00  0.00    +0.000 C 
BRANCH  15  16
ATOM     16  N   UNL     1      43.429   4.272  10.567  0.00  0.00    +0.000 N 
ATOM     17  H   UNL     1      43.154   5.232  10.364  0.00  0.00    +0.000 HD
BRANCH  16  22
ATOM     18  C   UNL     1      45.619   1.994   8.567  0.00  0.00    +0.000 A 
ATOM     19  C   UNL     1      46.196   2.962   7.756  0.00  0.00    +0.000 A 
ATOM     20  N   UNL     1      45.929   4.283   7.841  0.00  0.00    +0.000 NA
ATOM     21  C   UNL     1      45.031   4.651   8.790  0.00  0.00    +0.000 A 
ATOM     22  C   UNL     1      44.399   3.783   9.684  0.00  0.00    +0.000 A 
ATOM     23  C   UNL     1      44.698   2.423   9.527  0.00  0.00    +0.000 A 
BRANCH  18  25
ATOM     24  C   UNL     1      47.036   0.504   7.374  0.00  0.00    +0.000 C 
ATOM     25  O   UNL     1      46.008   0.707   8.338  0.00  0.00    +0.000 OA
ENDBRANCH  18  25
ENDBRANCH  16  22
ENDBRANCH  15  16
ENDBRANCH   1  15
TORSDOF 6
ENDMDL
MODEL 3
REMARK VINA RESULT:    -7.273      1.043      1.915
REMARK INTER + INTRA:         -10.756
REMARK INTER:                  -9.798
REMARK INTRA:                  -0.958
REMARK UNBOUND:                -0.932
REMARK  Name = 
REMARK  8 active torsions:
REMARK  status: ('A' for Active; 'I' for Inactive)
REMARK    1  A    between atoms: C_1  and  O_2
REMARK    2  A    between atoms: O_2  and  C_3
REMARK    3  A    between atoms: C_7  and  N_8
REMARK    4  A    between atoms: N_8  and  C_9
REMARK    5  A    between atoms: C_9  and  C_10
REMARK    6  A    between atoms: C_14  and  C_15
REMARK    7  A    between atoms: C_19  and  O_20
REMARK    8  A    between atoms: O_20  and  C_21
REMARK                            x       y       z     vdW  Elec       q    Type
REMARK                         _______ _______ _______ _____ _____    ______ ____
ROOT
ATOM      1  C   UNL     1      44.668   4.681  11.820  0.00  0.00    +0.000 A 
ATOM      2  C   UNL     1      45.304   3.782  12.681  0.00  0.00    +0.000 A 
ATOM      3  C   UNL     1      46.431   4.178  13.396  0.00  0.00    +0.000 A 
ATOM      4  C   UNL     1      46.939   5.473  13.248  0.00  0.00    +0.000 A 
ATOM      5  C   UNL     1      46.337   6.401  12.380  0.00  0.00    +0.000 A 
ATOM      6  C   UNL     1      45.173   5.988  11.705  0.00  0.00    +0.000 A 
ENDROOT
BRANCH   5   7
ATOM      7  C   UNL     1      46.953   7.716  12.084  0.00  0.00    +0.000 A 
ATOM      8  C   UNL     1      46.218   8.904  12.242  0.00  0.00    +0.000 A 
ATOM      9  C   UNL     1      46.817  10.156  12.090  0.00  0.00    +0.000 A 
ATOM     10  C   UNL     1      48.175  10.254  11.795  0.00  0.00    +0.000 A 
ATOM     11  C   UNL     1      48.932   9.099  11.624  0.00  0.00    +0.000 A 
ATOM     12  C   UNL     1      48.312   7.846  11.740  0.00  0.00    +0.000 A 
BRANCH  11  13
ATOM     13  O   UNL     1      50.275   9.052  11.367  0.00  0.00    +0.000 OA
ATOM     14  C   UNL     1      50.853   7.761  11.209  0.00  0.00    +0.000 C 
ENDBRANCH  11  13
ENDBRANCH   5   7
BRANCH   1  15
ATOM     15  C   UNL     1      43.502   4.244  10.968  0.00  0.00    +0.000 C 
BRANCH  15  16
ATOM     16  N   UNL     1      43.784   4.448   9.557  0.00  0.00    +0.000 N 
ATOM     17  H   UNL     1      43.941   5.424   9.312  0.00  0.00    +0.000 HD
BRANCH  16  22
ATOM     18  C   UNL     1      46.469   3.060   7.357  0.00  0.00    +0.000 A 
ATOM     19  C   UNL     1      46.409   1.746   7.802  0.00  0.00    +0.000 A 
ATOM     20  N   UNL     1      45.547   1.300   8.742  0.00  0.00    +0.000 NA
ATOM     21  C   UNL     1      44.703   2.226   9.264  0.00  0.00    +0.000 A 
ATOM     22  C   UNL     1      44.644   3.570   8.887  0.00  0.00    +0.000 A 
ATOM     23  C   UNL     1      45.581   3.975   7.927  0.00  0.00    +0.000 A 
BRANCH  18  25
ATOM     24  C   UNL     1      47.937   2.217   5.687  0.00  0.00    +0.000 C 
ATOM     25  O   UNL     1      47.404   3.328   6.401  0.00  0.00    +0.000 OA
ENDBRANCH  18  25
ENDBRANCH  16  22
ENDBRANCH  15  16
ENDBRANCH   1  15
TORSDOF 6
ENDMDL
MODEL 4
REMARK VINA RESULT:    -7.070      2.370      7.019
REMARK INTER + INTRA:         -10.483
REMARK INTER:                  -9.533
REMARK INTRA:                  -0.949
REMARK UNBOUND:                -0.932
REMARK  Name = 
REMARK  8 active torsions:
REMARK  status: ('A' for Active; 'I' for Inactive)
REMARK    1  A    between atoms: C_1  and  O_2
REMARK    2  A    between atoms: O_2  and  C_3
REMARK    3  A    between atoms: C_7  and  N_8
REMARK    4  A    between atoms: N_8  and  C_9
REMARK    5  A    between atoms: C_9  and  C_10
REMARK    6  A    between atoms: C_14  and  C_15
REMARK    7  A    between atoms: C_19  and  O_20
REMARK    8  A    between atoms: O_20  and  C_21
REMARK                            x       y       z     vdW  Elec       q    Type
REMARK                         _______ _______ _______ _____ _____    ______ ____
ROOT
ATOM      1  C   UNL     1      44.214   5.261  11.338  0.00  0.00    +0.000 A 
ATOM      2  C   UNL     1      43.371   4.317  11.930  0.00  0.00    +0.000 A 
ATOM      3  C   UNL     1      43.333   3.012  11.445  0.00  0.00    +0.000 A 
ATOM      4  C   UNL     1      44.130   2.644  10.355  0.00  0.00    +0.000 A 
ATOM      5  C   UNL     1      44.979   3.569   9.723  0.00  0.00    +0.000 A 
ATOM      6  C   UNL     1      45.031   4.868  10.264  0.00  0.00    +0.000 A 
ENDROOT
BRANCH   5   7
ATOM      7  C   UNL     1      45.702   3.246   8.470  0.00  0.00    +0.000 A 
ATOM      8  C   UNL     1      46.107   4.266   7.592  0.00  0.00    +0.000 A 
ATOM      9  C   UNL     1      46.898   3.993   6.474  0.00  0.00    +0.000 A 
ATOM     10  C   UNL     1      47.321   2.691   6.214  0.00  0.00    +0.000 A 
ATOM     11  C   UNL     1      46.932   1.655   7.058  0.00  0.00    +0.000 A 
ATOM     12  C   UNL     1      46.106   1.934   8.156  0.00  0.00    +0.000 A 
BRANCH  11  13
ATOM     13  O   UNL     1      47.303   0.343   6.938  0.00  0.00    +0.000 OA
ATOM     14  C   UNL     1      46.515  -0.612   7.640  0.00  0.00    +0.000 C 
ENDBRANCH  11  13
ENDBRANCH   5   7
BRANCH   1  15
ATOM     15  C   UNL     1      44.202   6.701  11.790  0.00  0.00    +0.000 C 
BRANCH  15  16
ATOM     16  N   UNL     1      45.007   6.877  12.987  0.00  0.00    +0.000 N 
ATOM     17  H   UNL     1      44.696   6.307  13.772  0.00  0.00    +0.000 HD
BRANCH  16  22
ATOM     18  C   UNL     1      48.473   7.998  12.146  0.00  0.00    +0.000 A 
ATOM     19  C   UNL     1      49.157   7.086  12.940  0.00  0.00    +0.000 A 
ATOM     20  N   UNL     1      48.561   6.140  13.696  0.00  0.00    +0.000 NA
ATOM     21  C   UNL     1      47.205   6.110  13.655  0.00  0.00    +0.000 A 
ATOM     22  C   UNL     1      46.400   6.951  12.882  0.00  0.00    +0.000 A 
ATOM     23  C   UNL     1      47.078   7.928  12.141  0.00  0.00    +0.000 A 
BRANCH  18  25
ATOM     24  C   UNL     1      50.641   8.875  11.715  0.00  0.00    +0.000 C 
ATOM     25  O   UNL     1      49.242   8.884  11.450  0.00  0.00    +0.000 OA
ENDBRANCH  18  25
ENDBRANCH  16  22
ENDBRANCH  15  16
ENDBRANCH   1  15
TORSDOF 6
ENDMDL
MODEL 5
REMARK VINA RESULT:    -6.890      3.286      4.846
REMARK INTER + INTRA:         -10.239
REMARK INTER:                  -9.377
REMARK INTRA:                  -0.862
REMARK UNBOUND:                -0.932
REMARK  Name = 
REMARK  8 active torsions:
REMARK  status: ('A' for Active; 'I' for Inactive)
REMARK    1  A    between atoms: C_1  and  O_2
REMARK    2  A    between atoms: O_2  and  C_3
REMARK    3  A    between atoms: C_7  and  N_8
REMARK    4  A    between atoms: N_8  and  C_9
REMARK    5  A    between atoms: C_9  and  C_10
REMARK    6  A    between atoms: C_14  and  C_15
REMARK    7  A    between atoms: C_19  and  O_20
REMARK    8  A    between atoms: O_20  and  C_21
REMARK                            x       y       z     vdW  Elec       q    Type
REMARK                         _______ _______ _______ _____ _____    ______ ____
ROOT
ATOM      1  C   UNL     1      45.665   5.651  12.494  0.00  0.00    +0.000 A 
ATOM      2  C   UNL     1      46.444   6.650  11.903  0.00  0.00    +0.000 A 
ATOM      3  C   UNL     1      47.655   7.025  12.480  0.00  0.00    +0.000 A 
ATOM      4  C   UNL     1      48.092   6.411  13.658  0.00  0.00    +0.000 A 
ATOM      5  C   UNL     1      47.330   5.414  14.291  0.00  0.00    +0.000 A 
ATOM      6  C   UNL     1      46.133   5.023  13.661  0.00  0.00    +0.000 A 
ENDROOT
BRANCH   5   7
ATOM      7  C   UNL     1      47.693   4.872  15.622  0.00  0.00    +0.000 A 
ATOM      8  C   UNL     1      47.163   3.648  16.067  0.00  0.00    +0.000 A 
ATOM      9  C   UNL     1      47.590   3.061  17.260  0.00  0.00    +0.000 A 
ATOM     10  C   UNL     1      48.573   3.674  18.032  0.00  0.00    +0.000 A 
ATOM     11  C   UNL     1      49.114   4.891  17.627  0.00  0.00    +0.000 A 
ATOM     12  C   UNL     1      48.651   5.491  16.446  0.00  0.00    +0.000 A 
BRANCH  11  13
ATOM     13  O   UNL     1      50.105   5.581  18.270  0.00  0.00    +0.000 OA
ATOM     14  C   UNL     1      50.944   4.832  19.142  0.00  0.00    +0.000 C 
ENDBRANCH  11  13
ENDBRANCH   5   7
BRANCH   1  15
ATOM     15  C   UNL     1      44.309   5.295  11.938  0.00  0.00    +0.000 C 
BRANCH  15  16
ATOM     16  N   UNL     1      44.289   5.427  10.491  0.00  0.00    +0.000 N 
ATOM     17  H   UNL     1      44.634   6.327  10.161  0.00  0.00    +0.000 HD
BRANCH  16  22
ATOM     18  C   UNL     1      46.025   3.360   7.903  0.00  0.00    +0.000 A 
ATOM     19  C   UNL     1      45.584   2.117   8.336  0.00  0.00    +0.000 A 
ATOM     20  N   UNL     1      44.756   1.927   9.387  0.00  0.00    +0.000 NA
ATOM     21  C   UNL     1      44.353   3.048  10.039  0.00  0.00    +0.000 A 
ATOM     22  C   UNL     1      44.703   4.355   9.691  0.00  0.00    +0.000 A 
ATOM     23  C   UNL     1      45.584   4.483   8.609  0.00  0.00    +0.000 A 
BRANCH  18  25
ATOM     24  C   UNL     1      47.856   2.345   6.777  0.00  0.00    +0.000 C 
ATOM     25  O   UNL     1      46.858   3.360   6.823  0.00  0.00    +0.000 OA
ENDBRANCH  18  25
ENDBRANCH  16  22
ENDBRANCH  15  16
ENDBRANCH   1  15
TORSDOF 6
ENDMDL
MODEL 6
REMARK VINA RESULT:    -6.747      4.041      7.596
REMARK INTER + INTRA:         -10.045
REMARK INTER:                  -9.307
REMARK INTRA:                  -0.738
REMARK UNBOUND:                -0.932
REMARK  Name = 
REMARK  8 active torsions:
REMARK  status: ('A' for Active; 'I' for Inactive)
REMARK    1  A    between atoms: C_1  and  O_2
REMARK    2  A    between atoms: O_2  and  C_3
REMARK    3  A    between atoms: C_7  and  N_8
REMARK    4  A    between atoms: N_8  and  C_9
REMARK    5  A    between atoms: C_9  and  C_10
REMARK    6  A    between atoms: C_14  and  C_15
REMARK    7  A    between atoms: C_19  and  O_20
REMARK    8  A    between atoms: O_20  and  C_21
REMARK                            x       y       z     vdW  Elec       q    Type
REMARK                         _______ _______ _______ _____ _____    ______ ____
ROOT
ATOM      1  C   UNL     1      47.097   7.162  13.170  0.00  0.00    +0.000 A 
ATOM      2  C   UNL     1      46.385   8.357  13.030  0.00  0.00    +0.000 A 
ATOM      3  C   UNL     1      45.298   8.425  12.164  0.00  0.00    +0.000 A 
ATOM      4  C   UNL     1      44.919   7.302  11.421  0.00  0.00    +0.000 A 
ATOM      5  C   UNL     1      45.619   6.087  11.522  0.00  0.00    +0.000 A 
ATOM      6  C   UNL     1      46.686   6.034  12.440  0.00  0.00    +0.000 A 
ENDROOT
BRANCH   5   7
ATOM      7  C   UNL     1      45.340   4.941  10.625  0.00  0.00    +0.000 A 
ATOM      8  C   UNL     1      44.543   3.867  11.060  0.00  0.00    +0.000 A 
ATOM      9  C   UNL     1      44.166   2.842  10.190  0.00  0.00    +0.000 A 
ATOM     10  C   UNL     1      44.559   2.873   8.854  0.00  0.00    +0.000 A 
ATOM     11  C   UNL     1      45.355   3.917   8.391  0.00  0.00    +0.000 A 
ATOM     12  C   UNL     1      45.761   4.921   9.282  0.00  0.00    +0.000 A 
BRANCH  11  13
ATOM     13  O   UNL     1      45.782   4.087   7.102  0.00  0.00    +0.000 OA
ATOM     14  C   UNL     1      46.492   3.003   6.515  0.00  0.00    +0.000 C 
ENDBRANCH  11  13
ENDBRANCH   5   7
BRANCH   1  15
ATOM     15  C   UNL     1      48.333   7.093  14.034  0.00  0.00    +0.000 C 
BRANCH  15  16
ATOM     16  N   UNL     1      47.987   6.811  15.416  0.00  0.00    +0.000 N 
ATOM     17  H   UNL     1      47.076   7.179  15.689  0.00  0.00    +0.000 HD
BRANCH  16  22
ATOM     18  C   UNL     1      49.471   4.004  17.391  0.00  0.00    +0.000 A 
ATOM     19  C   UNL     1      48.514   3.043  17.090  0.00  0.00    +0.000 A 
ATOM     20  N   UNL     1      47.452   3.255  16.282  0.00  0.00    +0.000 NA
ATOM     21  C   UNL     1      47.345   4.499  15.751  0.00  0.00    +0.000 A 
ATOM     22  C   UNL     1      48.249   5.545  15.953  0.00  0.00    +0.000 A 
ATOM     23  C   UNL     1      49.314   5.271  16.822  0.00  0.00    +0.000 A 
BRANCH  18  25
ATOM     24  C   UNL     1      51.477   2.762  17.678  0.00  0.00    +0.000 C 
ATOM     25  O   UNL     1      50.475   3.612  18.227  0.00  0.00    +0.000 OA
ENDBRANCH  18  25
ENDBRANCH  16  22
ENDBRANCH  15  16
ENDBRANCH   1  15
TORSDOF 6
ENDMDL
MODEL 7
REMARK VINA RESULT:    -6.726      2.032      2.699
REMARK INTER + INTRA:         -10.018
REMARK INTER:                  -9.092
REMARK INTRA:                  -0.926
REMARK UNBOUND:                -0.932
REMARK  Name = 
REMARK  8 active torsions:
REMARK  status: ('A' for Active; 'I' for Inactive)
REMARK    1  A    between atoms: C_1  and  O_2
REMARK    2  A    between atoms: O_2  and  C_3
REMARK    3  A    between atoms: C_7  and  N_8
REMARK    4  A    between atoms: N_8  and  C_9
REMARK    5  A    between atoms: C_9  and  C_10
REMARK    6  A    between atoms: C_14  and  C_15
REMARK    7  A    between atoms: C_19  and  O_20
REMARK    8  A    between atoms: O_20  and  C_21
REMARK                            x       y       z     vdW  Elec       q    Type
REMARK                         _______ _______ _______ _____ _____    ______ ____
ROOT
ATOM      1  C   UNL     1      45.060   5.679  12.170  0.00  0.00    +0.000 A 
ATOM      2  C   UNL     1      44.985   4.647  13.109  0.00  0.00    +0.000 A 
ATOM      3  C   UNL     1      46.035   4.432  13.997  0.00  0.00    +0.000 A 
ATOM      4  C   UNL     1      47.175   5.240  13.947  0.00  0.00    +0.000 A 
ATOM      5  C   UNL     1      47.296   6.279  13.007  0.00  0.00    +0.000 A 
ATOM      6  C   UNL     1      46.200   6.502  12.151  0.00  0.00    +0.000 A 
ENDROOT
BRANCH   5   7
ATOM      7  C   UNL     1      48.557   7.035  12.827  0.00  0.00    +0.000 A 
ATOM      8  C   UNL     1      48.888   7.592  11.579  0.00  0.00    +0.000 A 
ATOM      9  C   UNL     1      50.007   8.413  11.422  0.00  0.00    +0.000 A 
ATOM     10  C   UNL     1      50.815   8.716  12.516  0.00  0.00    +0.000 A 
ATOM     11  C   UNL     1      50.522   8.175  13.764  0.00  0.00    +0.000 A 
ATOM     12  C   UNL     1      49.419   7.320  13.903  0.00  0.00    +0.000 A 
BRANCH  11  13
ATOM     13  O   UNL     1      51.211   8.416  14.922  0.00  0.00    +0.000 OA
ATOM     14  C   UNL     1      51.640   7.278  15.661  0.00  0.00    +0.000 C 
ENDBRANCH  11  13
ENDBRANCH   5   7
BRANCH   1  15
ATOM     15  C   UNL     1      43.975   5.870  11.139  0.00  0.00    +0.000 C 
BRANCH  15  16
ATOM     16  N   UNL     1      43.471   4.591  10.671  0.00  0.00    +0.000 N 
ATOM     17  H   UNL     1      42.472   4.596  10.473  0.00  0.00    +0.000 HD
BRANCH  16  22
ATOM     18  C   UNL     1      45.727   3.641   7.843  0.00  0.00    +0.000 A 
ATOM     19  C   UNL     1      45.782   2.278   8.104  0.00  0.00    +0.000 A 
ATOM     20  N   UNL     1      45.122   1.670   9.114  0.00  0.00    +0.000 NA
ATOM     21  C   UNL     1      44.370   2.475   9.906  0.00  0.00    +0.000 A 
ATOM     22  C   UNL     1      44.210   3.853   9.738  0.00  0.00    +0.000 A 
ATOM     23  C   UNL     1      44.940   4.428   8.690  0.00  0.00    +0.000 A 
BRANCH  18  25
ATOM     24  C   UNL     1      46.894   3.098   5.845  0.00  0.00    +0.000 C 
ATOM     25  O   UNL     1      46.458   4.080   6.780  0.00  0.00    +0.000 OA
ENDBRANCH  18  25
ENDBRANCH  16  22
ENDBRANCH  15  16
ENDBRANCH   1  15
TORSDOF 6
ENDMDL
MODEL 8
REMARK VINA RESULT:    -6.423      2.273      3.345
REMARK INTER + INTRA:          -9.608
REMARK INTER:                  -8.723
REMARK INTRA:                  -0.885
REMARK UNBOUND:                -0.932
REMARK  Name = 
REMARK  8 active torsions:
REMARK  status: ('A' for Active; 'I' for Inactive)
REMARK    1  A    between atoms: C_1  and  O_2
REMARK    2  A    between atoms: O_2  and  C_3
REMARK    3  A    between atoms: C_7  and  N_8
REMARK    4  A    between atoms: N_8  and  C_9
REMARK    5  A    between atoms: C_9  and  C_10
REMARK    6  A    between atoms: C_14  and  C_15
REMARK    7  A    between atoms: C_19  and  O_20
REMARK    8  A    between atoms: O_20  and  C_21
REMARK                            x       y       z     vdW  Elec       q    Type
REMARK                         _______ _______ _______ _____ _____    ______ ____
ROOT
ATOM      1  C   UNL     1      46.023   6.647  12.096  0.00  0.00    +0.000 A 
ATOM      2  C   UNL     1      46.256   5.842  13.214  0.00  0.00    +0.000 A 
ATOM      3  C   UNL     1      47.499   5.861  13.841  0.00  0.00    +0.000 A 
ATOM      4  C   UNL     1      48.523   6.676  13.348  0.00  0.00    +0.000 A 
ATOM      5  C   UNL     1      48.333   7.488  12.216  0.00  0.00    +0.000 A 
ATOM      6  C   UNL     1      47.052   7.483  11.631  0.00  0.00    +0.000 A 
ENDROOT
BRANCH   5   7
ATOM      7  C   UNL     1      49.448   8.228  11.581  0.00  0.00    +0.000 A 
ATOM      8  C   UNL     1      49.418   9.630  11.490  0.00  0.00    +0.000 A 
ATOM      9  C   UNL     1      50.514  10.352  11.010  0.00  0.00    +0.000 A 
ATOM     10  C   UNL     1      51.678   9.690  10.628  0.00  0.00    +0.000 A 
ATOM     11  C   UNL     1      51.741   8.302  10.698  0.00  0.00    +0.000 A 
ATOM     12  C   UNL     1      50.622   7.583  11.144  0.00  0.00    +0.000 A 
BRANCH  11  13
ATOM     13  O   UNL     1      52.829   7.532  10.388  0.00  0.00    +0.000 OA
ATOM     14  C   UNL     1      52.998   7.185   9.018  0.00  0.00    +0.000 C 
ENDBRANCH  11  13
ENDBRANCH   5   7
BRANCH   1  15
ATOM     15  C   UNL     1      44.714   6.573  11.348  0.00  0.00    +0.000 C 
BRANCH  15  16
ATOM     16  N   UNL     1      44.219   5.208  11.301  0.00  0.00    +0.000 N 
ATOM     17  H   UNL     1      43.236   5.124  11.559  0.00  0.00    +0.000 HD
BRANCH  16  22
ATOM     18  C   UNL     1      45.774   3.878   8.171  0.00  0.00    +0.000 A 
ATOM     19  C   UNL     1      45.365   2.558   8.312  0.00  0.00    +0.000 A 
ATOM     20  N   UNL     1      44.612   2.100   9.336  0.00  0.00    +0.000 NA
ATOM     21  C   UNL     1      44.254   3.017  10.270  0.00  0.00    +0.000 A 
ATOM     22  C   UNL     1      44.577   4.376  10.235  0.00  0.00    +0.000 A 
ATOM     23  C   UNL     1      45.381   4.783   9.162  0.00  0.00    +0.000 A 
BRANCH  18  25
ATOM     24  C   UNL     1      46.704   3.114   6.121  0.00  0.00    +0.000 C 
ATOM     25  O   UNL     1      46.530   4.160   7.072  0.00  0.00    +0.000 OA
ENDBRANCH  18  25
ENDBRANCH  16  22
ENDBRANCH  15  16
ENDBRANCH   1  15
TORSDOF 6
ENDMDL
MODEL 9
REMARK VINA RESULT:    -6.248      3.940      7.794
REMARK INTER + INTRA:          -9.372
REMARK INTER:                  -8.530
REMARK INTRA:                  -0.842
REMARK UNBOUND:                -0.932
REMARK  Name = 
REMARK  8 active torsions:
REMARK  status: ('A' for Active; 'I' for Inactive)
REMARK    1  A    between atoms: C_1  and  O_2
REMARK    2  A    between atoms: O_2  and  C_3
REMARK    3  A    between atoms: C_7  and  N_8
REMARK    4  A    between atoms: N_8  and  C_9
REMARK    5  A    between atoms: C_9  and  C_10
REMARK    6  A    between atoms: C_14  and  C_15
REMARK    7  A    between atoms: C_19  and  O_20
REMARK    8  A    between atoms: O_20  and  C_21
REMARK                            x       y       z     vdW  Elec       q    Type
REMARK                         _______ _______ _______ _____ _____    ______ ____
ROOT
ATOM      1  C   UNL     1      47.325   7.856  12.565  0.00  0.00    +0.000 A 
ATOM      2  C   UNL     1      46.405   8.908  12.596  0.00  0.00    +0.000 A 
ATOM      3  C   UNL     1      45.128   8.735  12.068  0.00  0.00    +0.000 A 
ATOM      4  C   UNL     1      44.765   7.513  11.493  0.00  0.00    +0.000 A 
ATOM      5  C   UNL     1      45.667   6.437  11.428  0.00  0.00    +0.000 A 
ATOM      6  C   UNL     1      46.935   6.625  12.011  0.00  0.00    +0.000 A 
ENDROOT
BRANCH   5   7
ATOM      7  C   UNL     1      45.360   5.196  10.678  0.00  0.00    +0.000 A 
ATOM      8  C   UNL     1      44.611   4.166  11.273  0.00  0.00    +0.000 A 
ATOM      9  C   UNL     1      44.204   3.047  10.542  0.00  0.00    +0.000 A 
ATOM     10  C   UNL     1      44.519   2.938   9.190  0.00  0.00    +0.000 A 
ATOM     11  C   UNL     1      45.266   3.936   8.570  0.00  0.00    +0.000 A 
ATOM     12  C   UNL     1      45.703   5.037   9.322  0.00  0.00    +0.000 A 
BRANCH  11  13
ATOM     13  O   UNL     1      45.615   3.971   7.247  0.00  0.00    +0.000 OA
ATOM     14  C   UNL     1      46.769   3.230   6.870  0.00  0.00    +0.000 C 
ENDBRANCH  11  13
ENDBRANCH   5   7
BRANCH   1  15
ATOM     15  C   UNL     1      48.741   8.051  13.049  0.00  0.00    +0.000 C 
BRANCH  15  16
ATOM     16  N   UNL     1      48.760   8.612  14.389  0.00  0.00    +0.000 N 
ATOM     17  H   UNL     1      48.198   9.456  14.483  0.00  0.00    +0.000 HD
BRANCH  16  22
ATOM     18  C   UNL     1      48.680   5.576  16.571  0.00  0.00    +0.000 A 
ATOM     19  C   UNL     1      48.671   6.231  17.795  0.00  0.00    +0.000 A 
ATOM     20  N   UNL     1      48.669   7.575  17.938  0.00  0.00    +0.000 NA
ATOM     21  C   UNL     1      48.680   8.297  16.789  0.00  0.00    +0.000 A 
ATOM     22  C   UNL     1      48.665   7.763  15.498  0.00  0.00    +0.000 A 
ATOM     23  C   UNL     1      48.694   6.365  15.417  0.00  0.00    +0.000 A 
BRANCH  18  25
ATOM     24  C   UNL     1      47.457   3.578  16.976  0.00  0.00    +0.000 C 
ATOM     25  O   UNL     1      48.681   4.213  16.618  0.00  0.00    +0.000 OA
ENDBRANCH  18  25
ENDBRANCH  16  22
ENDBRANCH  15  16
ENDBRANCH   1  15
TORSDOF 6
ENDMDL
