MODEL 1
REMARK VINA RESULT:    -8.118      0.000      0.000
REMARK INTER + INTRA:         -11.427
REMARK INTER:                 -10.491
REMARK INTRA:                  -0.936
REMARK UNBOUND:                -0.936
REMARK  Name = 
REMARK  8 active torsions:
REMARK  status: ('A' for Active; 'I' for Inactive)
REMARK    1  A    between atoms: C_1  and  O_2
REMARK    2  A    between atoms: O_2  and  C_3
REMARK    3  A    between atoms: C_5  and  C_6
REMARK    4  A    between atoms: C_6  and  N_7
REMARK    5  A    between atoms: C_12  and  C_13
REMARK    6  A    between atoms: N_15  and  C_16
REMARK    7  A    between atoms: N_15  and  C_17
REMARK    8  A    between atoms: C_23  and  C_24
REMARK                            x       y       z     vdW  Elec       q    Type
REMARK                         _______ _______ _______ _____ _____    ______ ____
ROOT
ATOM      1  C   UNL     1      43.808   3.056  10.596  0.00  0.00    +0.000 C 
ENDROOT
BRANCH   1   2
ATOM      2  N   UNL     1      44.155   4.210  11.418  0.00  0.00    +0.000 N 
ATOM      3  C   UNL     1      43.546   5.439  11.337  0.00  0.00    +0.000 A 
ATOM      4  C   UNL     1      44.120   6.257  12.287  0.00  0.00    +0.000 A 
ATOM      5  C   UNL     1      45.119   5.501  12.953  0.00  0.00    +0.000 A 
ATOM      6  C   UNL     1      46.017   5.748  14.004  0.00  0.00    +0.000 A 
ATOM      7  C   UNL     1      46.912   4.735  14.381  0.00  0.00    +0.000 A 
ATOM      8  C   UNL     1      46.902   3.564  13.635  0.00  0.00    +0.000 A 
ATOM      9  N   UNL     1      46.024   3.244  12.639  0.00  0.00    +0.000 NA
ATOM     10  C   UNL     1      45.160   4.245  12.355  0.00  0.00    +0.000 A 
BRANCH   7  11
ATOM     11  C   UNL     1      47.876   5.051  15.468  0.00  0.00    +0.000 C 
ATOM     12  O   UNL     1      48.657   5.973  15.224  0.00  0.00    +0.000 OA
ATOM     13  N   UNL     1      47.886   4.403  16.708  0.00  0.00    +0.000 N 
ATOM     14  C   UNL     1      47.029   3.321  17.169  0.00  0.00    +0.000 C 
ATOM     15  C   UNL     1      48.847   4.873  17.701  0.00  0.00    +0.000 C 
ENDBRANCH   7  11
ENDBRANCH   1   2
BRANCH   1  18
ATOM     16  C   UNL     1      46.311   1.575   8.106  0.00  0.00    +0.000 A 
ATOM     17  C   UNL     1      45.433   1.727   9.191  0.00  0.00    +0.000 A 
ATOM     18  C   UNL     1      44.724   2.921   9.403  0.00  0.00    +0.000 A 
ATOM     19  C   UNL     1      44.886   3.972   8.494  0.00  0.00    +0.000 A 
ATOM     20  C   UNL     1      45.750   3.831   7.407  0.00  0.00    +0.000 A 
ATOM     21  C   UNL     1      46.473   2.642   7.202  0.00  0.00    +0.000 A 
BRANCH  21  22
ATOM     22  C   UNL     1      47.362   2.609   5.996  0.00  0.00    +0.000 C 
ATOM     23  N   UNL     1      48.695   2.377   6.176  0.00  0.00    +0.000 N 
ATOM     24  O   UNL     1      46.918   2.782   4.865  0.00  0.00    +0.000 OA
ATOM     25  H   UNL     1      49.091   2.298   7.105  0.00  0.00    +0.000 HD
ATOM     26  H   UNL     1      49.304   2.380   5.371  0.00  0.00    +0.000 HD
ENDBRANCH  21  22
BRANCH  16  28
ATOM     27  C   UNL     1      46.425  -0.695   7.366  0.00  0.00    +0.000 C 
ATOM     28  O   UNL     1      47.071   0.446   7.922  0.00  0.00    +0.000 OA
ENDBRANCH  16  28
ENDBRANCH   1  18
TORSDOF 5
ENDMDL
MODEL 2
REMARK VINA RESULT:    -6.694      2.219      3.022
REMARK INTER + INTRA:          -9.587
REMARK INTER:                  -9.555
REMARK INTRA:                  -0.032
REMARK UNBOUND:                -0.936
REMARK  Name = 
REMARK  8 active torsions:
REMARK  status: ('A' for Active; 'I' for Inactive)
REMARK    1  A    between atoms: C_1  and  O_2
REMARK    2  A    between atoms: O_2  and  C_3
REMARK    3  A    between atoms: C_5  and  C_6
REMARK    4  A    between atoms: C_6  and  N_7
REMARK    5  A    between atoms: C_12  and  C_13
REMARK    6  A    between atoms: N_15  and  C_16
REMARK    7  A    between atoms: N_15  and  C_17
REMARK    8  A    between atoms: C_23  and  C_24
REMARK                            x       y       z     vdW  Elec       q    Type
REMARK                         _______ _______ _______ _____ _____    ______ ____
ROOT
ATOM      1  C   UNL     1      43.637   4.836   9.655  0.00  0.00    +0.000 C 
ENDROOT
BRANCH   1   2
ATOM      2  N   UNL     1      43.907   5.069  11.070  0.00  0.00    +0.000 N 
ATOM      3  C   UNL     1      43.029   4.789  12.089  0.00  0.00    +0.000 A 
ATOM      4  C   UNL     1      43.647   5.113  13.278  0.00  0.00    +0.000 A 
ATOM      5  C   UNL     1      44.934   5.620  12.965  0.00  0.00    +0.000 A 
ATOM      6  C   UNL     1      46.027   6.088  13.713  0.00  0.00    +0.000 A 
ATOM      7  C   UNL     1      47.161   6.559  13.032  0.00  0.00    +0.000 A 
ATOM      8  C   UNL     1      47.102   6.599  11.645  0.00  0.00    +0.000 A 
ATOM      9  N   UNL     1      46.094   6.114  10.862  0.00  0.00    +0.000 NA
ATOM     10  C   UNL     1      45.051   5.635  11.578  0.00  0.00    +0.000 A 
BRANCH   7  11
ATOM     11  C   UNL     1      48.279   7.086  13.858  0.00  0.00    +0.000 C 
ATOM     12  O   UNL     1      48.975   6.229  14.407  0.00  0.00    +0.000 OA
ATOM     13  N   UNL     1      48.577   8.447  13.981  0.00  0.00    +0.000 N 
ATOM     14  C   UNL     1      47.882   9.582  13.390  0.00  0.00    +0.000 C 
ATOM     15  C   UNL     1      49.750   8.807  14.771  0.00  0.00    +0.000 C 
ENDBRANCH   7  11
ENDBRANCH   1   2
BRANCH   1  18
ATOM     16  C   UNL     1      46.340   3.135   7.543  0.00  0.00    +0.000 A 
ATOM     17  C   UNL     1      45.502   4.104   8.116  0.00  0.00    +0.000 A 
ATOM     18  C   UNL     1      44.538   3.769   9.081  0.00  0.00    +0.000 A 
ATOM     19  C   UNL     1      44.433   2.436   9.494  0.00  0.00    +0.000 A 
ATOM     20  C   UNL     1      45.266   1.463   8.938  0.00  0.00    +0.000 A 
ATOM     21  C   UNL     1      46.220   1.795   7.959  0.00  0.00    +0.000 A 
BRANCH  21  22
ATOM     22  C   UNL     1      47.059   0.664   7.445  0.00  0.00    +0.000 C 
ATOM     23  N   UNL     1      46.606  -0.611   7.613  0.00  0.00    +0.000 N 
ATOM     24  O   UNL     1      48.130   0.865   6.880  0.00  0.00    +0.000 OA
ATOM     25  H   UNL     1      45.759  -0.801   8.134  0.00  0.00    +0.000 HD
ATOM     26  H   UNL     1      47.179  -1.379   7.292  0.00  0.00    +0.000 HD
ENDBRANCH  21  22
BRANCH  16  28
ATOM     27  C   UNL     1      46.814   3.205   5.201  0.00  0.00    +0.000 C 
ATOM     28  O   UNL     1      47.235   3.426   6.544  0.00  0.00    +0.000 OA
ENDBRANCH  16  28
ENDBRANCH   1  18
TORSDOF 5
ENDMDL
MODEL 3
REMARK VINA RESULT:    -6.663      1.706      7.569
REMARK INTER + INTRA:          -9.547
REMARK INTER:                  -9.049
REMARK INTRA:                  -0.498
REMARK UNBOUND:                -0.936
REMARK  Name = 
REMARK  8 active torsions:
REMARK  status: ('A' for Active; 'I' for Inactive)
REMARK    1  A    between atoms: C_1  and  O_2
REMARK    2  A    between atoms: O_2  and  C_3
REMARK    3  A    between atoms: C_5  and  C_6
REMARK    4  A    between atoms: C_6  and  N_7
REMARK    5  A    between atoms: C_12  and  C_13
REMARK    6  A    between atoms: N_15  and  C_16
REMARK    7  A    between atoms: N_15  and  C_17
REMARK    8  A    between atoms: C_23  and  C_24
REMARK                            x       y       z     vdW  Elec       q    Type
REMARK                         _______ _______ _______ _____ _____    ______ ____
ROOT
ATOM      1  C   UNL     1      44.052   6.042  12.351  0.00  0.00    +0.000 C 
ENDROOT
BRANCH   1   2
ATOM      2  N   UNL     1      44.053   4.825  11.547  0.00  0.00    +0.000 N 
ATOM      3  C   UNL     1      43.359   3.681  11.862  0.00  0.00    +0.000 A 
ATOM      4  C   UNL     1      43.580   2.764  10.856  0.00  0.00    +0.000 A 
ATOM      5  C   UNL     1      44.449   3.369   9.911  0.00  0.00    +0.000 A 
ATOM      6  C   UNL     1      45.016   2.976   8.689  0.00  0.00    +0.000 A 
ATOM      7  C   UNL     1      45.887   3.859   8.031  0.00  0.00    +0.000 A 
ATOM      8  C   UNL     1      46.192   5.052   8.675  0.00  0.00    +0.000 A 
ATOM      9  N   UNL     1      45.638   5.512   9.835  0.00  0.00    +0.000 NA
ATOM     10  C   UNL     1      44.775   4.633  10.394  0.00  0.00    +0.000 A 
BRANCH   7  11
ATOM     11  C   UNL     1      46.501   3.389   6.761  0.00  0.00    +0.000 C 
ATOM     12  O   UNL     1      46.533   4.224   5.854  0.00  0.00    +0.000 OA
ATOM     13  N   UNL     1      47.058   2.117   6.594  0.00  0.00    +0.000 N 
ATOM     14  C   UNL     1      47.128   1.027   7.556  0.00  0.00    +0.000 C 
ATOM     15  C   UNL     1      47.688   1.827   5.310  0.00  0.00    +0.000 C 
ENDBRANCH   7  11
ENDBRANCH   1   2
BRANCH   1  18
ATOM     16  C   UNL     1      47.333   5.521  14.255  0.00  0.00    +0.000 A 
ATOM     17  C   UNL     1      46.083   5.298  13.656  0.00  0.00    +0.000 A 
ATOM     18  C   UNL     1      45.407   6.313  12.959  0.00  0.00    +0.000 A 
ATOM     19  C   UNL     1      46.013   7.570  12.844  0.00  0.00    +0.000 A 
ATOM     20  C   UNL     1      47.259   7.803  13.428  0.00  0.00    +0.000 A 
ATOM     21  C   UNL     1      47.929   6.792  14.139  0.00  0.00    +0.000 A 
BRANCH  21  22
ATOM     22  C   UNL     1      49.264   7.161  14.713  0.00  0.00    +0.000 C 
ATOM     23  N   UNL     1      49.426   7.113  16.067  0.00  0.00    +0.000 N 
ATOM     24  O   UNL     1      50.200   7.500  13.996  0.00  0.00    +0.000 OA
ATOM     25  H   UNL     1      48.648   6.902  16.680  0.00  0.00    +0.000 HD
ATOM     26  H   UNL     1      50.314   7.387  16.462  0.00  0.00    +0.000 HD
ENDBRANCH  21  22
BRANCH  16  28
ATOM     27  C   UNL     1      47.352   4.155  16.215  0.00  0.00    +0.000 C 
ATOM     28  O   UNL     1      47.977   4.568  15.004  0.00  0.00    +0.000 OA
ENDBRANCH  16  28
ENDBRANCH   1  18
TORSDOF 5
ENDMDL
MODEL 4
REMARK VINA RESULT:    -6.435      2.074      2.580
REMARK INTER + INTRA:          -9.252
REMARK INTER:                  -9.102
REMARK INTRA:                  -0.150
REMARK UNBOUND:                -0.936
REMARK  Name = 
REMARK  8 active torsions:
REMARK  status: ('A' for Active; 'I' for Inactive)
REMARK    1  A    between atoms: C_1  and  O_2
REMARK    2  A    between atoms: O_2  and  C_3
REMARK    3  A    between atoms: C_5  and  C_6
REMARK    4  A    between atoms: C_6  and  N_7
REMARK    5  A    between atoms: C_12  and  C_13
REMARK    6  A    between atoms: N_15  and  C_16
REMARK    7  A    between atoms: N_15  and  C_17
REMARK    8  A    between atoms: C_23  and  C_24
REMARK                            x       y       z     vdW  Elec       q    Type
REMARK                         _______ _______ _______ _____ _____    ______ ____
ROOT
ATOM      1  C   UNL     1      43.903   3.360  10.602  0.00  0.00    +0.000 C 
ENDROOT
BRANCH   1   2
ATOM      2  N   UNL     1      43.983   4.738  11.071  0.00  0.00    +0.000 N 
ATOM      3  C   UNL     1      43.000   5.683  10.891  0.00  0.00    +0.000 A 
ATOM      4  C   UNL     1      43.421   6.848  11.495  0.00  0.00    +0.000 A 
ATOM      5  C   UNL     1      44.706   6.604  12.045  0.00  0.00    +0.000 A 
ATOM      6  C   UNL     1      45.631   7.359  12.783  0.00  0.00    +0.000 A 
ATOM      7  C   UNL     1      46.857   6.773  13.135  0.00  0.00    +0.000 A 
ATOM      8  C   UNL     1      47.110   5.491  12.662  0.00  0.00    +0.000 A 
ATOM      9  N   UNL     1      46.236   4.690  11.986  0.00  0.00    +0.000 NA
ATOM     10  C   UNL     1      45.058   5.298  11.718  0.00  0.00    +0.000 A 
BRANCH   7  11
ATOM     11  C   UNL     1      47.827   7.619  13.878  0.00  0.00    +0.000 C 
ATOM     12  O   UNL     1      48.114   7.217  15.008  0.00  0.00    +0.000 OA
ATOM     13  N   UNL     1      48.428   8.763  13.343  0.00  0.00    +0.000 N 
ATOM     14  C   UNL     1      48.225   9.361  12.031  0.00  0.00    +0.000 C 
ATOM     15  C   UNL     1      49.415   9.450  14.170  0.00  0.00    +0.000 C 
ENDBRANCH   7  11
ENDBRANCH   1   2
BRANCH   1  18
ATOM     16  C   UNL     1      46.308   1.591   8.203  0.00  0.00    +0.000 A 
ATOM     17  C   UNL     1      45.426   1.851   9.264  0.00  0.00    +0.000 A 
ATOM     18  C   UNL     1      44.827   3.111   9.434  0.00  0.00    +0.000 A 
ATOM     19  C   UNL     1      45.103   4.120   8.504  0.00  0.00    +0.000 A 
ATOM     20  C   UNL     1      45.973   3.872   7.440  0.00  0.00    +0.000 A 
ATOM     21  C   UNL     1      46.586   2.616   7.279  0.00  0.00    +0.000 A 
BRANCH  21  22
ATOM     22  C   UNL     1      47.492   2.471   6.094  0.00  0.00    +0.000 C 
ATOM     23  N   UNL     1      47.161   3.116   4.938  0.00  0.00    +0.000 N 
ATOM     24  O   UNL     1      48.514   1.794   6.146  0.00  0.00    +0.000 OA
ATOM     25  H   UNL     1      46.289   3.624   4.854  0.00  0.00    +0.000 HD
ATOM     26  H   UNL     1      47.753   3.001   4.128  0.00  0.00    +0.000 HD
ENDBRANCH  21  22
BRANCH  16  28
ATOM     27  C   UNL     1      46.295  -0.637   7.341  0.00  0.00    +0.000 C 
ATOM     28  O   UNL     1      46.963   0.394   8.061  0.00  0.00    +0.000 OA
ENDBRANCH  16  28
ENDBRANCH   1  18
TORSDOF 5
ENDMDL
MODEL 5
REMARK VINA RESULT:    -6.165      2.275      7.727
REMARK INTER + INTRA:          -8.903
REMARK INTER:                  -8.616
REMARK INTRA:                  -0.287
REMARK UNBOUND:                -0.936
REMARK  Name = 
REMARK  8 active torsions:
REMARK  status: ('A' for Active; 'I' for Inactive)
REMARK    1  A    between atoms: C_1  and  O_2
REMARK    2  A    between atoms: O_2  and  C_3
REMARK    3  A    between atoms: C_5  and  C_6
REMARK    4  A    between atoms: C_6  and  N_7
REMARK    5  A    between atoms: C_12  and  C_13
REMARK    6  A    between atoms: N_15  and  C_16
REMARK    7  A    between atoms: N_15  and  C_17
REMARK    8  A    between atoms: C_23  and  C_24
REMARK                            x       y       z     vdW  Elec       q    Type
REMARK                         _______ _______ _______ _____ _____    ______ ____
ROOT
ATOM      1  C   UNL     1      44.102   6.387  12.508  0.00  0.00    +0.000 C 
ENDROOT
BRANCH   1   2
ATOM      2  N   UNL     1      44.020   5.157  11.729  0.00  0.00    +0.000 N 
ATOM      3  C   UNL     1      43.238   4.075  12.059  0.00  0.00    +0.000 A 
ATOM      4  C   UNL     1      43.399   3.124  11.074  0.00  0.00    +0.000 A 
ATOM      5  C   UNL     1      44.321   3.642  10.127  0.00  0.00    +0.000 A 
ATOM      6  C   UNL     1      44.869   3.182   8.919  0.00  0.00    +0.000 A 
ATOM      7  C   UNL     1      45.810   3.984   8.255  0.00  0.00    +0.000 A 
ATOM      8  C   UNL     1      46.198   5.163   8.879  0.00  0.00    +0.000 A 
ATOM      9  N   UNL     1      45.669   5.687  10.022  0.00  0.00    +0.000 NA
ATOM     10  C   UNL     1      44.736   4.888  10.589  0.00  0.00    +0.000 A 
BRANCH   7  11
ATOM     11  C   UNL     1      46.400   3.442   7.002  0.00  0.00    +0.000 C 
ATOM     12  O   UNL     1      46.547   4.265   6.094  0.00  0.00    +0.000 OA
ATOM     13  N   UNL     1      46.816   2.116   6.851  0.00  0.00    +0.000 N 
ATOM     14  C   UNL     1      46.740   1.029   7.816  0.00  0.00    +0.000 C 
ATOM     15  C   UNL     1      47.443   1.751   5.584  0.00  0.00    +0.000 C 
ENDBRANCH   7  11
ENDBRANCH   1   2
BRANCH   1  18
ATOM     16  C   UNL     1      47.360   8.207  13.366  0.00  0.00    +0.000 A 
ATOM     17  C   UNL     1      46.051   7.937  12.937  0.00  0.00    +0.000 A 
ATOM     18  C   UNL     1      45.505   6.644  13.004  0.00  0.00    +0.000 A 
ATOM     19  C   UNL     1      46.284   5.610  13.535  0.00  0.00    +0.000 A 
ATOM     20  C   UNL     1      47.585   5.867  13.973  0.00  0.00    +0.000 A 
ATOM     21  C   UNL     1      48.138   7.158  13.891  0.00  0.00    +0.000 A 
BRANCH  21  22
ATOM     22  C   UNL     1      49.540   7.309  14.400  0.00  0.00    +0.000 C 
ATOM     23  N   UNL     1      50.529   7.597  13.506  0.00  0.00    +0.000 N 
ATOM     24  O   UNL     1      49.808   7.182  15.590  0.00  0.00    +0.000 OA
ATOM     25  H   UNL     1      50.340   7.639  12.512  0.00  0.00    +0.000 HD
ATOM     26  H   UNL     1      51.480   7.674  13.838  0.00  0.00    +0.000 HD
ENDBRANCH  21  22
BRANCH  16  28
ATOM     27  C   UNL     1      48.201   9.914  11.920  0.00  0.00    +0.000 C 
ATOM     28  O   UNL     1      47.940   9.445  13.239  0.00  0.00    +0.000 OA
ENDBRANCH  16  28
ENDBRANCH   1  18
TORSDOF 5
ENDMDL
MODEL 6
REMARK VINA RESULT:    -6.142      2.304      3.360
REMARK INTER + INTRA:          -8.873
REMARK INTER:                  -7.949
REMARK INTRA:                  -0.924
REMARK UNBOUND:                -0.936
REMARK  Name = 
REMARK  8 active torsions:
REMARK  status: ('A' for Active; 'I' for Inactive)
REMARK    1  A    between atoms: C_1  and  O_2
REMARK    2  A    between atoms: O_2  and  C_3
REMARK    3  A    between atoms: C_5  and  C_6
REMARK    4  A    between atoms: C_6  and  N_7
REMARK    5  A    between atoms: C_12  and  C_13
REMARK    6  A    between atoms: N_15  and  C_16
REMARK    7  A    between atoms: N_15  and  C_17
REMARK    8  A    between atoms: C_23  and  C_24
REMARK                            x       y       z     vdW  Elec       q    Type
REMARK                         _______ _______ _______ _____ _____    ______ ____
ROOT
ATOM      1  C   UNL     1      45.243   7.223  11.780  0.00  0.00    +0.000 C 
ENDROOT
BRANCH   1   2
ATOM      2  N   UNL     1      46.455   7.318  12.586  0.00  0.00    +0.000 N 
ATOM      3  C   UNL     1      47.430   8.274  12.421  0.00  0.00    +0.000 A 
ATOM      4  C   UNL     1      48.395   8.059  13.381  0.00  0.00    +0.000 A 
ATOM      5  C   UNL     1      47.999   6.929  14.141  0.00  0.00    +0.000 A 
ATOM      6  C   UNL     1      48.526   6.237  15.243  0.00  0.00    +0.000 A 
ATOM      7  C   UNL     1      47.850   5.101  15.716  0.00  0.00    +0.000 A 
ATOM      8  C   UNL     1      46.727   4.687  15.010  0.00  0.00    +0.000 A 
ATOM      9  N   UNL     1      46.139   5.341  13.967  0.00  0.00    +0.000 NA
ATOM     10  C   UNL     1      46.814   6.450  13.589  0.00  0.00    +0.000 A 
BRANCH   7  11
ATOM     11  C   UNL     1      48.463   4.371  16.857  0.00  0.00    +0.000 C 
ATOM     12  O   UNL     1      49.294   3.515  16.545  0.00  0.00    +0.000 OA
ATOM     13  N   UNL     1      48.179   4.650  18.198  0.00  0.00    +0.000 N 
ATOM     14  C   UNL     1      47.253   5.633  18.740  0.00  0.00    +0.000 C 
ATOM     15  C   UNL     1      48.915   3.895  19.208  0.00  0.00    +0.000 C 
ENDBRANCH   7  11
ENDBRANCH   1   2
BRANCH   1  18
ATOM     16  C   UNL     1      44.567   3.826  10.147  0.00  0.00    +0.000 A 
ATOM     17  C   UNL     1      44.517   4.927  11.018  0.00  0.00    +0.000 A 
ATOM     18  C   UNL     1      45.306   6.070  10.807  0.00  0.00    +0.000 A 
ATOM     19  C   UNL     1      46.142   6.115   9.686  0.00  0.00    +0.000 A 
ATOM     20  C   UNL     1      46.196   5.031   8.808  0.00  0.00    +0.000 A 
ATOM     21  C   UNL     1      45.419   3.879   9.027  0.00  0.00    +0.000 A 
BRANCH  21  22
ATOM     22  C   UNL     1      45.558   2.786   8.011  0.00  0.00    +0.000 C 
ATOM     23  N   UNL     1      45.630   1.496   8.447  0.00  0.00    +0.000 N 
ATOM     24  O   UNL     1      45.605   3.030   6.809  0.00  0.00    +0.000 OA
ATOM     25  H   UNL     1      45.659   1.280   9.436  0.00  0.00    +0.000 HD
ATOM     26  H   UNL     1      45.750   0.758   7.770  0.00  0.00    +0.000 HD
ENDBRANCH  21  22
BRANCH  16  28
ATOM     27  C   UNL     1      43.308   2.485  11.672  0.00  0.00    +0.000 C 
ATOM     28  O   UNL     1      43.864   2.670  10.374  0.00  0.00    +0.000 OA
ENDBRANCH  16  28
ENDBRANCH   1  18
TORSDOF 5
ENDMDL
MODEL 7
REMARK VINA RESULT:    -6.101      3.443      8.954
REMARK INTER + INTRA:          -8.820
REMARK INTER:                  -8.455
REMARK INTRA:                  -0.365
REMARK UNBOUND:                -0.936
REMARK  Name = 
REMARK  8 active torsions:
REMARK  status: ('A' for Active; 'I' for Inactive)
REMARK    1  A    between atoms: C_1  and  O_2
REMARK    2  A    between atoms: O_2  and  C_3
REMARK    3  A    between atoms: C_5  and  C_6
REMARK    4  A    between atoms: C_6  and  N_7
REMARK    5  A    between atoms: C_12  and  C_13
REMARK    6  A    between atoms: N_15  and  C_16
REMARK    7  A    between atoms: N_15  and  C_17
REMARK    8  A    between atoms: C_23  and  C_24
REMARK                            x       y       z     vdW  Elec       q    Type
REMARK                         _______ _______ _______ _____ _____    ______ ____
ROOT
ATOM      1  C   UNL     1      48.235   4.765  17.320  0.00  0.00    +0.000 C 
ENDROOT
BRANCH   1   2
ATOM      2  N   UNL     1      48.273   5.530  16.079  0.00  0.00    +0.000 N 
ATOM      3  C   UNL     1      49.094   6.608  15.850  0.00  0.00    +0.000 A 
ATOM      4  C   UNL     1      48.867   7.044  14.562  0.00  0.00    +0.000 A 
ATOM      5  C   UNL     1      47.865   6.212  14.000  0.00  0.00    +0.000 A 
ATOM      6  C   UNL     1      47.228   6.127  12.752  0.00  0.00    +0.000 A 
ATOM      7  C   UNL     1      46.225   5.163  12.568  0.00  0.00    +0.000 A 
ATOM      8  C   UNL     1      45.872   4.391  13.668  0.00  0.00    +0.000 A 
ATOM      9  N   UNL     1      46.484   4.391  14.887  0.00  0.00    +0.000 NA
ATOM     10  C   UNL     1      47.470   5.311  14.985  0.00  0.00    +0.000 A 
BRANCH   7  11
ATOM     11  C   UNL     1      45.544   5.134  11.246  0.00  0.00    +0.000 C 
ATOM     12  O   UNL     1      45.959   5.956  10.425  0.00  0.00    +0.000 OA
ATOM     13  N   UNL     1      44.541   4.219  10.911  0.00  0.00    +0.000 N 
ATOM     14  C   UNL     1      43.954   3.177  11.740  0.00  0.00    +0.000 C 
ATOM     15  C   UNL     1      44.017   4.269   9.549  0.00  0.00    +0.000 C 
ENDBRANCH   7  11
ENDBRANCH   1   2
BRANCH   1  18
ATOM     16  C   UNL     1      51.758   3.546  18.194  0.00  0.00    +0.000 A 
ATOM     17  C   UNL     1      50.612   4.347  18.067  0.00  0.00    +0.000 A 
ATOM     18  C   UNL     1      49.440   3.865  17.461  0.00  0.00    +0.000 A 
ATOM     19  C   UNL     1      49.414   2.546  16.996  0.00  0.00    +0.000 A 
ATOM     20  C   UNL     1      50.544   1.736  17.123  0.00  0.00    +0.000 A 
ATOM     21  C   UNL     1      51.724   2.222  17.714  0.00  0.00    +0.000 A 
BRANCH  21  22
ATOM     22  C   UNL     1      52.866   1.256  17.800  0.00  0.00    +0.000 C 
ATOM     23  N   UNL     1      54.075   1.630  17.291  0.00  0.00    +0.000 N 
ATOM     24  O   UNL     1      52.735   0.150  18.315  0.00  0.00    +0.000 OA
ATOM     25  H   UNL     1      54.187   2.511  16.803  0.00  0.00    +0.000 HD
ATOM     26  H   UNL     1      54.842   0.974  17.321  0.00  0.00    +0.000 HD
ENDBRANCH  21  22
BRANCH  16  28
ATOM     27  C   UNL     1      53.068   4.038  20.131  0.00  0.00    +0.000 C 
ATOM     28  O   UNL     1      52.938   4.018  18.713  0.00  0.00    +0.000 OA
ENDBRANCH  16  28
ENDBRANCH   1  18
TORSDOF 5
ENDMDL
MODEL 8
REMARK VINA RESULT:    -5.753      4.814      6.391
REMARK INTER + INTRA:          -8.370
REMARK INTER:                  -7.377
REMARK INTRA:                  -0.993
REMARK UNBOUND:                -0.936
REMARK  Name = 
REMARK  8 active torsions:
REMARK  status: ('A' for Active; 'I' for Inactive)
REMARK    1  A    between atoms: C_1  and  O_2
REMARK    2  A    between atoms: O_2  and  C_3
REMARK    3  A    between atoms: C_5  and  C_6
REMARK    4  A    between atoms: C_6  and  N_7
REMARK    5  A    between atoms: C_12  and  C_13
REMARK    6  A    between atoms: N_15  and  C_16
REMARK    7  A    between atoms: N_15  and  C_17
REMARK    8  A    between atoms: C_23  and  C_24
REMARK                            x       y       z     vdW  Elec       q    Type
REMARK                         _______ _______ _______ _____ _____    ______ ____
ROOT
ATOM      1  C   UNL     1      45.912   8.518  13.254  0.00  0.00    +0.000 C 
ENDROOT
BRANCH   1   2
ATOM      2  N   UNL     1      46.908   9.253  12.483  0.00  0.00    +0.000 N 
ATOM      3  C   UNL     1      46.641  10.366  11.721  0.00  0.00    +0.000 A 
ATOM      4  C   UNL     1      47.830  10.795  11.171  0.00  0.00    +0.000 A 
ATOM      5  C   UNL     1      48.846   9.903  11.603  0.00  0.00    +0.000 A 
ATOM      6  C   UNL     1      50.234   9.810  11.413  0.00  0.00    +0.000 A 
ATOM      7  C   UNL     1      50.925   8.732  11.987  0.00  0.00    +0.000 A 
ATOM      8  C   UNL     1      50.172   7.774  12.655  0.00  0.00    +0.000 A 
ATOM      9  N   UNL     1      48.834   7.832  12.916  0.00  0.00    +0.000 NA
ATOM     10  C   UNL     1      48.236   8.917  12.373  0.00  0.00    +0.000 A 
BRANCH   7  11
ATOM     11  C   UNL     1      52.386   8.646  11.726  0.00  0.00    +0.000 C 
ATOM     12  O   UNL     1      53.098   9.265  12.521  0.00  0.00    +0.000 OA
ATOM     13  N   UNL     1      52.946   7.883  10.696  0.00  0.00    +0.000 N 
ATOM     14  C   UNL     1      52.264   7.079   9.693  0.00  0.00    +0.000 C 
ATOM     15  C   UNL     1      54.403   7.841  10.611  0.00  0.00    +0.000 C 
ENDBRANCH   7  11
ENDBRANCH   1   2
BRANCH   1  18
ATOM     16  C   UNL     1      45.642   4.741  12.689  0.00  0.00    +0.000 A 
ATOM     17  C   UNL     1      45.918   5.992  13.263  0.00  0.00    +0.000 A 
ATOM     18  C   UNL     1      45.575   7.192  12.617  0.00  0.00    +0.000 A 
ATOM     19  C   UNL     1      44.921   7.129  11.381  0.00  0.00    +0.000 A 
ATOM     20  C   UNL     1      44.633   5.891  10.803  0.00  0.00    +0.000 A 
ATOM     21  C   UNL     1      44.991   4.690  11.441  0.00  0.00    +0.000 A 
BRANCH  21  22
ATOM     22  C   UNL     1      44.622   3.426  10.724  0.00  0.00    +0.000 C 
ATOM     23  N   UNL     1      43.862   2.504  11.381  0.00  0.00    +0.000 N 
ATOM     24  O   UNL     1      44.985   3.212   9.572  0.00  0.00    +0.000 OA
ATOM     25  H   UNL     1      43.608   2.632  12.354  0.00  0.00    +0.000 HD
ATOM     26  H   UNL     1      43.632   1.639  10.914  0.00  0.00    +0.000 HD
ENDBRANCH  21  22
BRANCH  16  28
ATOM     27  C   UNL     1      47.146   3.601  14.155  0.00  0.00    +0.000 C 
ATOM     28  O   UNL     1      46.035   3.559  13.265  0.00  0.00    +0.000 OA
ENDBRANCH  16  28
ENDBRANCH   1  18
TORSDOF 5
ENDMDL
MODEL 9
REMARK VINA RESULT:    -5.701      3.765      5.860
REMARK INTER + INTRA:          -8.303
REMARK INTER:                  -7.285
REMARK INTRA:                  -1.018
REMARK UNBOUND:                -0.936
REMARK  Name = 
REMARK  8 active torsions:
REMARK  status: ('A' for Active; 'I' for Inactive)
REMARK    1  A    between atoms: C_1  and  O_2
REMARK    2  A    between atoms: O_2  and  C_3
REMARK    3  A    between atoms: C_5  and  C_6
REMARK    4  A    between atoms: C_6  and  N_7
REMARK    5  A    between atoms: C_12  and  C_13
REMARK    6  A    between atoms: N_15  and  C_16
REMARK    7  A    between atoms: N_15  and  C_17
REMARK    8  A    between atoms: C_23  and  C_24
REMARK                            x       y       z     vdW  Elec       q    Type
REMARK                         _______ _______ _______ _____ _____    ______ ____
ROOT
ATOM      1  C   UNL     1      46.557   8.351  12.614  0.00  0.00    +0.000 C 
ENDROOT
BRANCH   1   2
ATOM      2  N   UNL     1      48.011   8.243  12.642  0.00  0.00    +0.000 N 
ATOM      3  C   UNL     1      48.805   8.097  11.530  0.00  0.00    +0.000 A 
ATOM      4  C   UNL     1      50.118   8.062  11.952  0.00  0.00    +0.000 A 
ATOM      5  C   UNL     1      50.115   8.175  13.366  0.00  0.00    +0.000 A 
ATOM      6  C   UNL     1      51.103   8.225  14.362  0.00  0.00    +0.000 A 
ATOM      7  C   UNL     1      50.707   8.307  15.705  0.00  0.00    +0.000 A 
ATOM      8  C   UNL     1      49.345   8.262  15.973  0.00  0.00    +0.000 A 
ATOM      9  N   UNL     1      48.337   8.264  15.053  0.00  0.00    +0.000 NA
ATOM     10  C   UNL     1      48.786   8.230  13.777  0.00  0.00    +0.000 A 
BRANCH   7  11
ATOM     11  C   UNL     1      51.783   8.314  16.732  0.00  0.00    +0.000 C 
ATOM     12  O   UNL     1      52.137   9.432  17.113  0.00  0.00    +0.000 OA
ATOM     13  N   UNL     1      52.335   7.153  17.284  0.00  0.00    +0.000 N 
ATOM     14  C   UNL     1      52.021   5.766  16.972  0.00  0.00    +0.000 C 
ATOM     15  C   UNL     1      53.334   7.321  18.335  0.00  0.00    +0.000 C 
ENDBRANCH   7  11
ENDBRANCH   1   2
BRANCH   1  18
ATOM     16  C   UNL     1      45.695   4.627  12.830  0.00  0.00    +0.000 A 
ATOM     17  C   UNL     1      46.266   5.885  13.078  0.00  0.00    +0.000 A 
ATOM     18  C   UNL     1      45.901   7.020  12.335  0.00  0.00    +0.000 A 
ATOM     19  C   UNL     1      44.925   6.890  11.340  0.00  0.00    +0.000 A 
ATOM     20  C   UNL     1      44.343   5.646  11.089  0.00  0.00    +0.000 A 
ATOM     21  C   UNL     1      44.720   4.505  11.821  0.00  0.00    +0.000 A 
BRANCH  21  22
ATOM     22  C   UNL     1      44.018   3.230  11.464  0.00  0.00    +0.000 C 
ATOM     23  N   UNL     1      43.709   2.355  12.463  0.00  0.00    +0.000 N 
ATOM     24  O   UNL     1      43.719   2.965  10.303  0.00  0.00    +0.000 OA
ATOM     25  H   UNL     1      44.006   2.524  13.417  0.00  0.00    +0.000 HD
ATOM     26  H   UNL     1      43.261   1.482  12.227  0.00  0.00    +0.000 HD
ENDBRANCH  21  22
BRANCH  16  28
ATOM     27  C   UNL     1      47.111   3.626  14.474  0.00  0.00    +0.000 C 
ATOM     28  O   UNL     1      46.090   3.490  13.491  0.00  0.00    +0.000 OA
ENDBRANCH  16  28
ENDBRANCH   1  18
TORSDOF 5
ENDMDL
