MODEL 1
REMARK VINA RESULT:    -6.997      0.000      0.000
REMARK INTER + INTRA:         -11.148
REMARK INTER:                  -9.861
REMARK INTRA:                  -1.287
REMARK UNBOUND:                -1.287
REMARK  Name = 
REMARK  7 active torsions:
REMARK  status: ('A' for Active; 'I' for Inactive)
REMARK    1  A    between atoms: C_2  and  C_3
REMARK    2  A    between atoms: C_7  and  C_8
REMARK    3  A    between atoms: N_10  and  C_11
REMARK    4  A    between atoms: C_11  and  C_12
REMARK    5  A    between atoms: C_15  and  C_16
REMARK    6  A    between atoms: C_16  and  N_17
REMARK    7  A    between atoms: C_18  and  C_20
REMARK                            x       y       z     vdW  Elec       q    Type
REMARK                         _______ _______ _______ _____ _____    ______ ____
ROOT
ATOM      1  C   UNL     1      50.230   7.381  15.150  0.00  0.00    +0.000 A 
ATOM      2  C   UNL     1      50.528   8.168  14.030  0.00  0.00    +0.000 A 
ATOM      3  C   UNL     1      49.617   8.283  12.970  0.00  0.00    +0.000 A 
ATOM      4  C   UNL     1      48.378   7.629  13.016  0.00  0.00    +0.000 A 
ATOM      5  C   UNL     1      48.092   6.820  14.125  0.00  0.00    +0.000 A 
ATOM      6  C   UNL     1      48.998   6.711  15.185  0.00  0.00    +0.000 A 
ENDROOT
BRANCH   1   7
ATOM      7  C   UNL     1      51.210   7.241  16.287  0.00  0.00    +0.000 C 
BRANCH   7  10
ATOM      8  C   UNL     1      50.789   5.454  17.928  0.00  0.00    +0.000 C 
ATOM      9  O   UNL     1      50.171   6.208  18.677  0.00  0.00    +0.000 OA
ATOM     10  N   UNL     1      51.355   5.873  16.748  0.00  0.00    +0.000 N 
ATOM     11  H   UNL     1      51.963   5.258  16.227  0.00  0.00    +0.000 HD
BRANCH   8  16
ATOM     12  C   UNL     1      50.291   3.090  17.179  0.00  0.00    +0.000 C 
ATOM     13  C   UNL     1      51.003   1.743  17.290  0.00  0.00    +0.000 C 
ATOM     14  C   UNL     1      52.368   2.032  17.912  0.00  0.00    +0.000 C 
ATOM     15  C   UNL     1      52.424   3.536  18.156  0.00  0.00    +0.000 C 
ATOM     16  C   UNL     1      50.966   3.976  18.238  0.00  0.00    +0.000 C 
BRANCH  12  18
ATOM     17  N   UNL     1      47.571   2.857  17.714  0.00  0.00    +0.000 NA
ATOM     18  C   UNL     1      48.804   2.963  17.471  0.00  0.00    +0.000 C 
ENDBRANCH  12  18
ENDBRANCH   8  16
ENDBRANCH   7  10
ENDBRANCH   1   7
BRANCH   4  19
ATOM     19  C   UNL     1      47.369   7.781  11.902  0.00  0.00    +0.000 C 
BRANCH  19  20
ATOM     20  N   UNL     1      46.698   6.540  11.613  0.00  0.00    +0.000 N 
ATOM     21  C   UNL     1      45.331   6.422  11.709  0.00  0.00    +0.000 C 
ATOM     22  O   UNL     1      44.607   7.375  11.987  0.00  0.00    +0.000 OA
ATOM     23  H   UNL     1      47.263   5.699  11.661  0.00  0.00    +0.000 HD
BRANCH  21  24
ATOM     24  C   UNL     1      44.771   5.100  11.396  0.00  0.00    +0.000 A 
ATOM     25  C   UNL     1      44.003   4.425  12.334  0.00  0.00    +0.000 A 
ATOM     26  S   UNL     1      43.398   2.929  11.773  0.00  0.00    +0.000 S 
ATOM     27  C   UNL     1      44.190   3.108  10.276  0.00  0.00    +0.000 A 
ATOM     28  N   UNL     1      44.108   2.146   9.316  0.00  0.00    +0.000 NA
ATOM     29  C   UNL     1      44.779   2.404   8.244  0.00  0.00    +0.000 A 
ATOM     30  N   UNL     1      45.520   3.538   8.040  0.00  0.00    +0.000 N 
ATOM     31  C   UNL     1      45.608   4.548   8.969  0.00  0.00    +0.000 A 
ATOM     32  O   UNL     1      46.239   5.573   8.731  0.00  0.00    +0.000 OA
ATOM     33  C   UNL     1      44.884   4.302  10.198  0.00  0.00    +0.000 A 
ATOM     34  H   UNL     1      46.015   3.689   7.171  0.00  0.00    +0.000 HD
ENDBRANCH  21  24
ENDBRANCH  19  20
ENDBRANCH   4  19
TORSDOF 7
ENDMDL
MODEL 2
REMARK VINA RESULT:    -6.774      1.748      2.441
REMARK INTER + INTRA:         -10.833
REMARK INTER:                  -9.642
REMARK INTRA:                  -1.191
REMARK UNBOUND:                -1.287
REMARK  Name = 
REMARK  7 active torsions:
REMARK  status: ('A' for Active; 'I' for Inactive)
REMARK    1  A    between atoms: C_2  and  C_3
REMARK    2  A    between atoms: C_7  and  C_8
REMARK    3  A    between atoms: N_10  and  C_11
REMARK    4  A    between atoms: C_11  and  C_12
REMARK    5  A    between atoms: C_15  and  C_16
REMARK    6  A    between atoms: C_16  and  N_17
REMARK    7  A    between atoms: C_18  and  C_20
REMARK                            x       y       z     vdW  Elec       q    Type
REMARK                         _______ _______ _______ _____ _____    ______ ____
ROOT
ATOM      1  C   UNL     1      48.272   7.283  14.435  0.00  0.00    +0.000 A 
ATOM      2  C   UNL     1      47.788   5.991  14.192  0.00  0.00    +0.000 A 
ATOM      3  C   UNL     1      46.806   5.764  13.218  0.00  0.00    +0.000 A 
ATOM      4  C   UNL     1      46.300   6.821  12.449  0.00  0.00    +0.000 A 
ATOM      5  C   UNL     1      46.765   8.117  12.711  0.00  0.00    +0.000 A 
ATOM      6  C   UNL     1      47.749   8.344  13.680  0.00  0.00    +0.000 A 
ENDROOT
BRANCH   1   7
ATOM      7  C   UNL     1      49.316   7.538  15.492  0.00  0.00    +0.000 C 
BRANCH   7  10
ATOM      8  C   UNL     1      49.228   5.923  17.350  0.00  0.00    +0.000 C 
ATOM      9  O   UNL     1      48.376   6.574  17.951  0.00  0.00    +0.000 OA
ATOM     10  N   UNL     1      49.766   6.327  16.152  0.00  0.00    +0.000 N 
ATOM     11  H   UNL     1      50.554   5.835  15.755  0.00  0.00    +0.000 HD
BRANCH   8  16
ATOM     12  C   UNL     1      49.289   3.419  17.004  0.00  0.00    +0.000 C 
ATOM     13  C   UNL     1      50.298   2.308  17.287  0.00  0.00    +0.000 C 
ATOM     14  C   UNL     1      51.565   3.000  17.787  0.00  0.00    +0.000 C 
ATOM     15  C   UNL     1      51.270   4.495  17.791  0.00  0.00    +0.000 C 
ATOM     16  C   UNL     1      49.751   4.596  17.877  0.00  0.00    +0.000 C 
BRANCH  12  18
ATOM     17  N   UNL     1      46.706   2.658  17.704  0.00  0.00    +0.000 NA
ATOM     18  C   UNL     1      47.877   3.003  17.386  0.00  0.00    +0.000 C 
ENDBRANCH  12  18
ENDBRANCH   8  16
ENDBRANCH   7  10
ENDBRANCH   1   7
BRANCH   4  19
ATOM     19  C   UNL     1      45.276   6.583  11.365  0.00  0.00    +0.000 C 
BRANCH  19  20
ATOM     20  N   UNL     1      45.530   5.362  10.645  0.00  0.00    +0.000 N 
ATOM     21  C   UNL     1      44.512   4.650  10.055  0.00  0.00    +0.000 C 
ATOM     22  O   UNL     1      43.348   5.041  10.060  0.00  0.00    +0.000 OA
ATOM     23  H   UNL     1      46.397   4.884  10.861  0.00  0.00    +0.000 HD
BRANCH  21  24
ATOM     24  C   UNL     1      44.903   3.416   9.360  0.00  0.00    +0.000 A 
ATOM     25  C   UNL     1      44.287   2.212   9.668  0.00  0.00    +0.000 A 
ATOM     26  S   UNL     1      44.837   0.901   8.722  0.00  0.00    +0.000 S 
ATOM     27  C   UNL     1      45.959   1.889   7.906  0.00  0.00    +0.000 A 
ATOM     28  N   UNL     1      46.791   1.376   6.959  0.00  0.00    +0.000 NA
ATOM     29  C   UNL     1      47.606   2.234   6.442  0.00  0.00    +0.000 A 
ATOM     30  N   UNL     1      47.661   3.561   6.783  0.00  0.00    +0.000 N 
ATOM     31  C   UNL     1      46.822   4.127   7.712  0.00  0.00    +0.000 A 
ATOM     32  O   UNL     1      46.865   5.329   7.954  0.00  0.00    +0.000 OA
ATOM     33  C   UNL     1      45.896   3.203   8.332  0.00  0.00    +0.000 A 
ATOM     34  H   UNL     1      48.315   4.188   6.333  0.00  0.00    +0.000 HD
ENDBRANCH  21  24
ENDBRANCH  19  20
ENDBRANCH   4  19
TORSDOF 7
ENDMDL
MODEL 3
REMARK VINA RESULT:    -6.728      1.765      2.452
REMARK INTER + INTRA:         -10.768
REMARK INTER:                  -9.474
REMARK INTRA:                  -1.295
REMARK UNBOUND:                -1.287
REMARK  Name = 
REMARK  7 active torsions:
REMARK  status: ('A' for Active; 'I' for Inactive)
REMARK    1  A    between atoms: C_2  and  C_3
REMARK    2  A    between atoms: C_7  and  C_8
REMARK    3  A    between atoms: N_10  and  C_11
REMARK    4  A    between atoms: C_11  and  C_12
REMARK    5  A    between atoms: C_15  and  C_16
REMARK    6  A    between atoms: C_16  and  N_17
REMARK    7  A    between atoms: C_18  and  C_20
REMARK                            x       y       z     vdW  Elec       q    Type
REMARK                         _______ _______ _______ _____ _____    ______ ____
ROOT
ATOM      1  C   UNL     1      48.727   7.671  16.347  0.00  0.00    +0.000 A 
ATOM      2  C   UNL     1      48.394   8.922  15.813  0.00  0.00    +0.000 A 
ATOM      3  C   UNL     1      48.242   9.095  14.431  0.00  0.00    +0.000 A 
ATOM      4  C   UNL     1      48.400   8.015  13.551  0.00  0.00    +0.000 A 
ATOM      5  C   UNL     1      48.760   6.769  14.084  0.00  0.00    +0.000 A 
ATOM      6  C   UNL     1      48.905   6.595  15.464  0.00  0.00    +0.000 A 
ENDROOT
BRANCH   1   7
ATOM      7  C   UNL     1      48.907   7.480  17.832  0.00  0.00    +0.000 C 
BRANCH   7  10
ATOM      8  C   UNL     1      49.396   5.264  18.788  0.00  0.00    +0.000 C 
ATOM      9  O   UNL     1      48.231   5.096  19.142  0.00  0.00    +0.000 OA
ATOM     10  N   UNL     1      49.827   6.408  18.161  0.00  0.00    +0.000 N 
ATOM     11  H   UNL     1      50.813   6.563  18.004  0.00  0.00    +0.000 HD
BRANCH   8  16
ATOM     12  C   UNL     1      51.115   3.783  17.670  0.00  0.00    +0.000 C 
ATOM     13  C   UNL     1      52.468   3.197  18.071  0.00  0.00    +0.000 C 
ATOM     14  C   UNL     1      52.811   3.805  19.430  0.00  0.00    +0.000 C 
ATOM     15  C   UNL     1      51.654   4.726  19.798  0.00  0.00    +0.000 C 
ATOM     16  C   UNL     1      50.465   4.203  18.998  0.00  0.00    +0.000 C 
BRANCH  12  18
ATOM     17  N   UNL     1      49.528   1.900  16.376  0.00  0.00    +0.000 NA
ATOM     18  C   UNL     1      50.248   2.754  16.963  0.00  0.00    +0.000 C 
ENDBRANCH  12  18
ENDBRANCH   8  16
ENDBRANCH   7  10
ENDBRANCH   1   7
BRANCH   4  19
ATOM     19  C   UNL     1      48.195   8.177  12.064  0.00  0.00    +0.000 C 
BRANCH  19  20
ATOM     20  N   UNL     1      47.513   7.046  11.489  0.00  0.00    +0.000 N 
ATOM     21  C   UNL     1      46.142   7.017  11.371  0.00  0.00    +0.000 C 
ATOM     22  O   UNL     1      45.434   7.968  11.691  0.00  0.00    +0.000 OA
ATOM     23  H   UNL     1      48.021   6.169  11.484  0.00  0.00    +0.000 HD
BRANCH  21  24
ATOM     24  C   UNL     1      45.571   5.801  10.777  0.00  0.00    +0.000 A 
ATOM     25  C   UNL     1      45.725   5.543   9.422  0.00  0.00    +0.000 A 
ATOM     26  S   UNL     1      45.037   4.061   8.925  0.00  0.00    +0.000 S 
ATOM     27  C   UNL     1      44.462   3.738  10.495  0.00  0.00    +0.000 A 
ATOM     28  N   UNL     1      43.746   2.613  10.765  0.00  0.00    +0.000 NA
ATOM     29  C   UNL     1      43.353   2.511  11.990  0.00  0.00    +0.000 A 
ATOM     30  N   UNL     1      43.614   3.431  12.973  0.00  0.00    +0.000 N 
ATOM     31  C   UNL     1      44.356   4.567  12.752  0.00  0.00    +0.000 A 
ATOM     32  O   UNL     1      44.614   5.342  13.667  0.00  0.00    +0.000 OA
ATOM     33  C   UNL     1      44.811   4.735  11.388  0.00  0.00    +0.000 A 
ATOM     34  H   UNL     1      43.288   3.290  13.920  0.00  0.00    +0.000 HD
ENDBRANCH  21  24
ENDBRANCH  19  20
ENDBRANCH   4  19
TORSDOF 7
ENDMDL
MODEL 4
REMARK VINA RESULT:    -6.702      3.125      9.522
REMARK INTER + INTRA:         -10.731
REMARK INTER:                  -9.749
REMARK INTRA:                  -0.982
REMARK UNBOUND:                -1.287
REMARK  Name = 
REMARK  7 active torsions:
REMARK  status: ('A' for Active; 'I' for Inactive)
REMARK    1  A    between atoms: C_2  and  C_3
REMARK    2  A    between atoms: C_7  and  C_8
REMARK    3  A    between atoms: N_10  and  C_11
REMARK    4  A    between atoms: C_11  and  C_12
REMARK    5  A    between atoms: C_15  and  C_16
REMARK    6  A    between atoms: C_16  and  N_17
REMARK    7  A    between atoms: C_18  and  C_20
REMARK                            x       y       z     vdW  Elec       q    Type
REMARK                         _______ _______ _______ _____ _____    ______ ____
ROOT
ATOM      1  C   UNL     1      47.840   5.968  14.943  0.00  0.00    +0.000 A 
ATOM      2  C   UNL     1      48.692   6.283  16.010  0.00  0.00    +0.000 A 
ATOM      3  C   UNL     1      48.911   5.368  17.048  0.00  0.00    +0.000 A 
ATOM      4  C   UNL     1      48.299   4.106  17.033  0.00  0.00    +0.000 A 
ATOM      5  C   UNL     1      47.427   3.801  15.979  0.00  0.00    +0.000 A 
ATOM      6  C   UNL     1      47.213   4.713  14.939  0.00  0.00    +0.000 A 
ENDROOT
BRANCH   1   7
ATOM      7  C   UNL     1      47.588   6.954  13.830  0.00  0.00    +0.000 C 
BRANCH   7  10
ATOM      8  C   UNL     1      46.328   6.592  11.745  0.00  0.00    +0.000 C 
ATOM      9  O   UNL     1      47.327   6.743  11.047  0.00  0.00    +0.000 OA
ATOM     10  N   UNL     1      46.351   6.700  13.115  0.00  0.00    +0.000 N 
ATOM     11  H   UNL     1      45.489   6.699  13.642  0.00  0.00    +0.000 HD
BRANCH   8  16
ATOM     12  C   UNL     1      44.937   4.817  10.599  0.00  0.00    +0.000 C 
ATOM     13  C   UNL     1      43.455   4.447  10.574  0.00  0.00    +0.000 C 
ATOM     14  C   UNL     1      42.773   5.350  11.601  0.00  0.00    +0.000 C 
ATOM     15  C   UNL     1      43.864   6.229  12.199  0.00  0.00    +0.000 C 
ATOM     16  C   UNL     1      44.970   6.252  11.150  0.00  0.00    +0.000 C 
BRANCH  12  18
ATOM     17  N   UNL     1      46.054   4.738   8.053  0.00  0.00    +0.000 NA
ATOM     18  C   UNL     1      45.548   4.774   9.207  0.00  0.00    +0.000 C 
ENDBRANCH  12  18
ENDBRANCH   8  16
ENDBRANCH   7  10
ENDBRANCH   1   7
BRANCH   4  19
ATOM     19  C   UNL     1      48.563   3.093  18.121  0.00  0.00    +0.000 C 
BRANCH  19  20
ATOM     20  N   UNL     1      49.968   2.808  18.261  0.00  0.00    +0.000 N 
ATOM     21  C   UNL     1      50.654   2.088  17.310  0.00  0.00    +0.000 C 
ATOM     22  O   UNL     1      50.127   1.702  16.270  0.00  0.00    +0.000 OA
ATOM     23  H   UNL     1      50.347   2.859  19.200  0.00  0.00    +0.000 HD
BRANCH  21  24
ATOM     24  C   UNL     1      52.080   1.858  17.578  0.00  0.00    +0.000 A 
ATOM     25  C   UNL     1      52.571   0.565  17.700  0.00  0.00    +0.000 A 
ATOM     26  S   UNL     1      54.258   0.496  17.959  0.00  0.00    +0.000 S 
ATOM     27  C   UNL     1      54.381   2.195  17.971  0.00  0.00    +0.000 A 
ATOM     28  N   UNL     1      55.576   2.812  18.178  0.00  0.00    +0.000 NA
ATOM     29  C   UNL     1      55.516   4.102  18.187  0.00  0.00    +0.000 A 
ATOM     30  N   UNL     1      54.370   4.832  18.004  0.00  0.00    +0.000 N 
ATOM     31  C   UNL     1      53.147   4.251  17.764  0.00  0.00    +0.000 A 
ATOM     32  O   UNL     1      52.152   4.936  17.552  0.00  0.00    +0.000 OA
ATOM     33  C   UNL     1      53.158   2.803  17.756  0.00  0.00    +0.000 A 
ATOM     34  H   UNL     1      54.389   5.842  18.010  0.00  0.00    +0.000 HD
ENDBRANCH  21  24
ENDBRANCH  19  20
ENDBRANCH   4  19
TORSDOF 7
ENDMDL
MODEL 5
REMARK VINA RESULT:    -6.625      1.962      2.336
REMARK INTER + INTRA:         -10.622
REMARK INTER:                  -9.280
REMARK INTRA:                  -1.343
REMARK UNBOUND:                -1.287
REMARK  Name = 
REMARK  7 active torsions:
REMARK  status: ('A' for Active; 'I' for Inactive)
REMARK    1  A    between atoms: C_2  and  C_3
REMARK    2  A    between atoms: C_7  and  C_8
REMARK    3  A    between atoms: N_10  and  C_11
REMARK    4  A    between atoms: C_11  and  C_12
REMARK    5  A    between atoms: C_15  and  C_16
REMARK    6  A    between atoms: C_16  and  N_17
REMARK    7  A    between atoms: C_18  and  C_20
REMARK                            x       y       z     vdW  Elec       q    Type
REMARK                         _______ _______ _______ _____ _____    ______ ____
ROOT
ATOM      1  C   UNL     1      49.033   8.368  15.538  0.00  0.00    +0.000 A 
ATOM      2  C   UNL     1      48.839   7.095  14.987  0.00  0.00    +0.000 A 
ATOM      3  C   UNL     1      48.250   6.941  13.725  0.00  0.00    +0.000 A 
ATOM      4  C   UNL     1      47.860   8.059  12.974  0.00  0.00    +0.000 A 
ATOM      5  C   UNL     1      48.031   9.331  13.536  0.00  0.00    +0.000 A 
ATOM      6  C   UNL     1      48.624   9.485  14.794  0.00  0.00    +0.000 A 
ENDROOT
BRANCH   1   7
ATOM      7  C   UNL     1      49.652   8.541  16.902  0.00  0.00    +0.000 C 
BRANCH   7  10
ATOM      8  C   UNL     1      48.185   7.457  18.557  0.00  0.00    +0.000 C 
ATOM      9  O   UNL     1      47.379   8.384  18.535  0.00  0.00    +0.000 OA
ATOM     10  N   UNL     1      49.339   7.454  17.811  0.00  0.00    +0.000 N 
ATOM     11  H   UNL     1      50.037   6.739  17.953  0.00  0.00    +0.000 HD
BRANCH   8  16
ATOM     12  C   UNL     1      48.522   4.956  18.723  0.00  0.00    +0.000 C 
ATOM     13  C   UNL     1      48.743   3.963  19.863  0.00  0.00    +0.000 C 
ATOM     14  C   UNL     1      48.891   4.799  21.133  0.00  0.00    +0.000 C 
ATOM     15  C   UNL     1      48.748   6.257  20.713  0.00  0.00    +0.000 C 
ATOM     16  C   UNL     1      47.964   6.214  19.406  0.00  0.00    +0.000 C 
BRANCH  12  18
ATOM     17  N   UNL     1      46.700   3.984  16.859  0.00  0.00    +0.000 NA
ATOM     18  C   UNL     1      47.526   4.425  17.704  0.00  0.00    +0.000 C 
ENDBRANCH  12  18
ENDBRANCH   8  16
ENDBRANCH   7  10
ENDBRANCH   1   7
BRANCH   4  19
ATOM     19  C   UNL     1      47.267   7.909  11.593  0.00  0.00    +0.000 C 
BRANCH  19  20
ATOM     20  N   UNL     1      46.622   6.633  11.421  0.00  0.00    +0.000 N 
ATOM     21  C   UNL     1      45.253   6.522  11.353  0.00  0.00    +0.000 C 
ATOM     22  O   UNL     1      44.512   7.502  11.376  0.00  0.00    +0.000 OA
ATOM     23  H   UNL     1      47.165   5.816  11.679  0.00  0.00    +0.000 HD
BRANCH  21  24
ATOM     24  C   UNL     1      44.721   5.163  11.187  0.00  0.00    +0.000 A 
ATOM     25  C   UNL     1      43.955   4.582  12.187  0.00  0.00    +0.000 A 
ATOM     26  S   UNL     1      43.384   3.021  11.793  0.00  0.00    +0.000 S 
ATOM     27  C   UNL     1      44.189   3.046  10.292  0.00  0.00    +0.000 A 
ATOM     28  N   UNL     1      44.136   1.981   9.447  0.00  0.00    +0.000 NA
ATOM     29  C   UNL     1      44.813   2.129   8.358  0.00  0.00    +0.000 A 
ATOM     30  N   UNL     1      45.536   3.248   8.034  0.00  0.00    +0.000 N 
ATOM     31  C   UNL     1      45.595   4.357   8.844  0.00  0.00    +0.000 A 
ATOM     32  O   UNL     1      46.210   5.361   8.498  0.00  0.00    +0.000 OA
ATOM     33  C   UNL     1      44.862   4.237  10.087  0.00  0.00    +0.000 A 
ATOM     34  H   UNL     1      46.038   3.309   7.159  0.00  0.00    +0.000 HD
ENDBRANCH  21  24
ENDBRANCH  19  20
ENDBRANCH   4  19
TORSDOF 7
ENDMDL
MODEL 6
REMARK VINA RESULT:    -6.439      2.823      8.796
REMARK INTER + INTRA:         -10.361
REMARK INTER:                  -9.310
REMARK INTRA:                  -1.051
REMARK UNBOUND:                -1.287
REMARK  Name = 
REMARK  7 active torsions:
REMARK  status: ('A' for Active; 'I' for Inactive)
REMARK    1  A    between atoms: C_2  and  C_3
REMARK    2  A    between atoms: C_7  and  C_8
REMARK    3  A    between atoms: N_10  and  C_11
REMARK    4  A    between atoms: C_11  and  C_12
REMARK    5  A    between atoms: C_15  and  C_16
REMARK    6  A    between atoms: C_16  and  N_17
REMARK    7  A    between atoms: C_18  and  C_20
REMARK                            x       y       z     vdW  Elec       q    Type
REMARK                         _______ _______ _______ _____ _____    ______ ____
ROOT
ATOM      1  C   UNL     1      48.519   7.207  12.980  0.00  0.00    +0.000 A 
ATOM      2  C   UNL     1      49.583   8.117  13.007  0.00  0.00    +0.000 A 
ATOM      3  C   UNL     1      50.279   8.372  14.196  0.00  0.00    +0.000 A 
ATOM      4  C   UNL     1      49.940   7.707  15.383  0.00  0.00    +0.000 A 
ATOM      5  C   UNL     1      48.858   6.816  15.361  0.00  0.00    +0.000 A 
ATOM      6  C   UNL     1      48.166   6.557  14.172  0.00  0.00    +0.000 A 
ENDROOT
BRANCH   1   7
ATOM      7  C   UNL     1      47.755   6.939  11.707  0.00  0.00    +0.000 C 
BRANCH   7  10
ATOM      8  C   UNL     1      45.742   5.776  10.896  0.00  0.00    +0.000 C 
ATOM      9  O   UNL     1      46.090   5.870   9.721  0.00  0.00    +0.000 OA
ATOM     10  N   UNL     1      46.478   6.290  11.936  0.00  0.00    +0.000 N 
ATOM     11  H   UNL     1      46.096   6.308  12.871  0.00  0.00    +0.000 HD
BRANCH   8  16
ATOM     12  C   UNL     1      44.683   3.548  11.457  0.00  0.00    +0.000 C 
ATOM     13  C   UNL     1      43.552   3.083  12.373  0.00  0.00    +0.000 C 
ATOM     14  C   UNL     1      43.112   4.313  13.165  0.00  0.00    +0.000 C 
ATOM     15  C   UNL     1      43.987   5.469  12.694  0.00  0.00    +0.000 C 
ATOM     16  C   UNL     1      44.462   5.061  11.304  0.00  0.00    +0.000 C 
BRANCH  12  18
ATOM     17  N   UNL     1      44.565   2.302   8.972  0.00  0.00    +0.000 NA
ATOM     18  C   UNL     1      44.619   2.867  10.099  0.00  0.00    +0.000 C 
ENDBRANCH  12  18
ENDBRANCH   8  16
ENDBRANCH   7  10
ENDBRANCH   1   7
BRANCH   4  19
ATOM     19  C   UNL     1      50.711   7.938  16.660  0.00  0.00    +0.000 C 
BRANCH  19  20
ATOM     20  N   UNL     1      51.497   6.788  17.029  0.00  0.00    +0.000 N 
ATOM     21  C   UNL     1      51.136   5.978  18.081  0.00  0.00    +0.000 C 
ATOM     22  O   UNL     1      50.102   6.152  18.720  0.00  0.00    +0.000 OA
ATOM     23  H   UNL     1      52.463   6.785  16.721  0.00  0.00    +0.000 HD
BRANCH  21  24
ATOM     24  C   UNL     1      52.028   4.844  18.359  0.00  0.00    +0.000 A 
ATOM     25  C   UNL     1      53.233   5.046  19.018  0.00  0.00    +0.000 A 
ATOM     26  S   UNL     1      54.109   3.607  19.298  0.00  0.00    +0.000 S 
ATOM     27  C   UNL     1      52.933   2.670  18.497  0.00  0.00    +0.000 A 
ATOM     28  N   UNL     1      53.082   1.326  18.352  0.00  0.00    +0.000 NA
ATOM     29  C   UNL     1      52.127   0.749  17.703  0.00  0.00    +0.000 A 
ATOM     30  N   UNL     1      51.032   1.394  17.188  0.00  0.00    +0.000 N 
ATOM     31  C   UNL     1      50.826   2.745  17.335  0.00  0.00    +0.000 A 
ATOM     32  O   UNL     1      49.808   3.280  16.907  0.00  0.00    +0.000 OA
ATOM     33  C   UNL     1      51.877   3.442  18.047  0.00  0.00    +0.000 A 
ATOM     34  H   UNL     1      50.309   0.885  16.698  0.00  0.00    +0.000 HD
ENDBRANCH  21  24
ENDBRANCH  19  20
ENDBRANCH   4  19
TORSDOF 7
ENDMDL
MODEL 7
REMARK VINA RESULT:    -6.343      3.082      9.158
REMARK INTER + INTRA:         -10.225
REMARK INTER:                  -9.333
REMARK INTRA:                  -0.892
REMARK UNBOUND:                -1.287
REMARK  Name = 
REMARK  7 active torsions:
REMARK  status: ('A' for Active; 'I' for Inactive)
REMARK    1  A    between atoms: C_2  and  C_3
REMARK    2  A    between atoms: C_7  and  C_8
REMARK    3  A    between atoms: N_10  and  C_11
REMARK    4  A    between atoms: C_11  and  C_12
REMARK    5  A    between atoms: C_15  and  C_16
REMARK    6  A    between atoms: C_16  and  N_17
REMARK    7  A    between atoms: C_18  and  C_20
REMARK                            x       y       z     vdW  Elec       q    Type
REMARK                         _______ _______ _______ _____ _____    ______ ____
ROOT
ATOM      1  C   UNL     1      44.922   4.402  11.631  0.00  0.00    +0.000 A 
ATOM      2  C   UNL     1      45.359   4.219  12.950  0.00  0.00    +0.000 A 
ATOM      3  C   UNL     1      46.280   5.101  13.529  0.00  0.00    +0.000 A 
ATOM      4  C   UNL     1      46.771   6.200  12.810  0.00  0.00    +0.000 A 
ATOM      5  C   UNL     1      46.354   6.367  11.482  0.00  0.00    +0.000 A 
ATOM      6  C   UNL     1      45.430   5.490  10.906  0.00  0.00    +0.000 A 
ENDROOT
BRANCH   1   7
ATOM      7  C   UNL     1      43.942   3.448  10.995  0.00  0.00    +0.000 C 
BRANCH   7  10
ATOM      8  C   UNL     1      44.657   2.973   8.687  0.00  0.00    +0.000 C 
ATOM      9  O   UNL     1      44.211   4.039   8.268  0.00  0.00    +0.000 OA
ATOM     10  N   UNL     1      44.551   2.585  10.001  0.00  0.00    +0.000 N 
ATOM     11  H   UNL     1      44.812   1.650  10.279  0.00  0.00    +0.000 HD
BRANCH   8  16
ATOM     12  C   UNL     1      46.814   2.463   7.469  0.00  0.00    +0.000 C 
ATOM     13  C   UNL     1      47.562   1.191   7.072  0.00  0.00    +0.000 C 
ATOM     14  C   UNL     1      46.798   0.031   7.708  0.00  0.00    +0.000 C 
ATOM     15  C   UNL     1      45.621   0.644   8.457  0.00  0.00    +0.000 C 
ATOM     16  C   UNL     1      45.385   1.991   7.782  0.00  0.00    +0.000 C 
BRANCH  12  18
ATOM     17  N   UNL     1      46.783   4.320   5.398  0.00  0.00    +0.000 NA
ATOM     18  C   UNL     1      46.797   3.478   6.337  0.00  0.00    +0.000 C 
ENDBRANCH  12  18
ENDBRANCH   8  16
ENDBRANCH   7  10
ENDBRANCH   1   7
BRANCH   4  19
ATOM     19  C   UNL     1      47.729   7.184  13.438  0.00  0.00    +0.000 C 
BRANCH  19  20
ATOM     20  N   UNL     1      47.920   6.927  14.842  0.00  0.00    +0.000 N 
ATOM     21  C   UNL     1      49.110   7.215  15.471  0.00  0.00    +0.000 C 
ATOM     22  O   UNL     1      50.046   7.757  14.890  0.00  0.00    +0.000 OA
ATOM     23  H   UNL     1      47.299   6.245  15.264  0.00  0.00    +0.000 HD
BRANCH  21  24
ATOM     24  C   UNL     1      49.178   6.895  16.903  0.00  0.00    +0.000 A 
ATOM     25  C   UNL     1      49.538   7.870  17.823  0.00  0.00    +0.000 A 
ATOM     26  S   UNL     1      49.513   7.325  19.441  0.00  0.00    +0.000 S 
ATOM     27  C   UNL     1      49.073   5.751  18.963  0.00  0.00    +0.000 A 
ATOM     28  N   UNL     1      48.908   4.757  19.878  0.00  0.00    +0.000 NA
ATOM     29  C   UNL     1      48.601   3.610  19.371  0.00  0.00    +0.000 A 
ATOM     30  N   UNL     1      48.437   3.367  18.032  0.00  0.00    +0.000 N 
ATOM     31  C   UNL     1      48.566   4.346  17.075  0.00  0.00    +0.000 A 
ATOM     32  O   UNL     1      48.362   4.103  15.890  0.00  0.00    +0.000 OA
ATOM     33  C   UNL     1      48.924   5.651  17.591  0.00  0.00    +0.000 A 
ATOM     34  H   UNL     1      48.184   2.448  17.696  0.00  0.00    +0.000 HD
ENDBRANCH  21  24
ENDBRANCH  19  20
ENDBRANCH   4  19
TORSDOF 7
ENDMDL
MODEL 8
REMARK VINA RESULT:    -6.287      5.197      8.407
REMARK INTER + INTRA:         -10.146
REMARK INTER:                  -8.955
REMARK INTRA:                  -1.191
REMARK UNBOUND:                -1.287
REMARK  Name = 
REMARK  7 active torsions:
REMARK  status: ('A' for Active; 'I' for Inactive)
REMARK    1  A    between atoms: C_2  and  C_3
REMARK    2  A    between atoms: C_7  and  C_8
REMARK    3  A    between atoms: N_10  and  C_11
REMARK    4  A    between atoms: C_11  and  C_12
REMARK    5  A    between atoms: C_15  and  C_16
REMARK    6  A    between atoms: C_16  and  N_17
REMARK    7  A    between atoms: C_18  and  C_20
REMARK                            x       y       z     vdW  Elec       q    Type
REMARK                         _______ _______ _______ _____ _____    ______ ____
ROOT
ATOM      1  C   UNL     1      47.410   8.493  12.577  0.00  0.00    +0.000 A 
ATOM      2  C   UNL     1      48.227   7.364  12.728  0.00  0.00    +0.000 A 
ATOM      3  C   UNL     1      49.591   7.418  12.412  0.00  0.00    +0.000 A 
ATOM      4  C   UNL     1      50.175   8.608  11.956  0.00  0.00    +0.000 A 
ATOM      5  C   UNL     1      49.353   9.729  11.780  0.00  0.00    +0.000 A 
ATOM      6  C   UNL     1      47.992   9.677  12.101  0.00  0.00    +0.000 A 
ENDROOT
BRANCH   1   7
ATOM      7  C   UNL     1      45.939   8.439  12.901  0.00  0.00    +0.000 C 
BRANCH   7  10
ATOM      8  C   UNL     1      44.371   7.007  11.652  0.00  0.00    +0.000 C 
ATOM      9  O   UNL     1      43.926   7.955  11.010  0.00  0.00    +0.000 OA
ATOM     10  N   UNL     1      45.340   7.148  12.616  0.00  0.00    +0.000 N 
ATOM     11  H   UNL     1      45.585   6.370  13.211  0.00  0.00    +0.000 HD
BRANCH   8  16
ATOM     12  C   UNL     1      45.065   4.642  11.084  0.00  0.00    +0.000 C 
ATOM     13  C   UNL     1      44.554   3.246  11.436  0.00  0.00    +0.000 C 
ATOM     14  C   UNL     1      43.439   3.447  12.461  0.00  0.00    +0.000 C 
ATOM     15  C   UNL     1      43.317   4.949  12.683  0.00  0.00    +0.000 C 
ATOM     16  C   UNL     1      43.896   5.581  11.421  0.00  0.00    +0.000 C 
BRANCH  12  18
ATOM     17  N   UNL     1      45.714   4.843   8.387  0.00  0.00    +0.000 NA
ATOM     18  C   UNL     1      45.420   4.752   9.610  0.00  0.00    +0.000 C 
ENDBRANCH  12  18
ENDBRANCH   8  16
ENDBRANCH   7  10
ENDBRANCH   1   7
BRANCH   4  19
ATOM     19  C   UNL     1      51.653   8.691  11.656  0.00  0.00    +0.000 C 
BRANCH  19  20
ATOM     20  N   UNL     1      51.958   8.233  10.325  0.00  0.00    +0.000 N 
ATOM     21  C   UNL     1      53.050   8.705   9.635  0.00  0.00    +0.000 C 
ATOM     22  O   UNL     1      53.852   9.491  10.131  0.00  0.00    +0.000 OA
ATOM     23  H   UNL     1      51.191   7.825   9.803  0.00  0.00    +0.000 HD
BRANCH  21  24
ATOM     24  C   UNL     1      53.243   8.165   8.282  0.00  0.00    +0.000 A 
ATOM     25  C   UNL     1      53.190   9.004   7.178  0.00  0.00    +0.000 A 
ATOM     26  S   UNL     1      53.488   8.206   5.697  0.00  0.00    +0.000 S 
ATOM     27  C   UNL     1      53.642   6.700   6.477  0.00  0.00    +0.000 A 
ATOM     28  N   UNL     1      53.880   5.562   5.770  0.00  0.00    +0.000 NA
ATOM     29  C   UNL     1      53.948   4.491   6.488  0.00  0.00    +0.000 A 
ATOM     30  N   UNL     1      53.803   4.454   7.851  0.00  0.00    +0.000 N 
ATOM     31  C   UNL     1      53.590   5.582   8.608  0.00  0.00    +0.000 A 
ATOM     32  O   UNL     1      53.518   5.518   9.831  0.00  0.00    +0.000 OA
ATOM     33  C   UNL     1      53.493   6.810   7.848  0.00  0.00    +0.000 A 
ATOM     34  H   UNL     1      53.878   3.584   8.360  0.00  0.00    +0.000 HD
ENDBRANCH  21  24
ENDBRANCH  19  20
ENDBRANCH   4  19
TORSDOF 7
ENDMDL
