MODEL 1
REMARK VINA RESULT:    -7.799      0.000      0.000
REMARK INTER + INTRA:         -11.192
REMARK INTER:                 -10.078
REMARK INTRA:                  -1.113
REMARK UNBOUND:                -1.113
REMARK  Name = 
REMARK  6 active torsions:
REMARK  status: ('A' for Active; 'I' for Inactive)
REMARK    1  A    between atoms: C_1  and  N_2
REMARK    2  A    between atoms: N_2  and  C_3
REMARK    3  A    between atoms: C_3  and  C_4
REMARK    4  A    between atoms: C_7  and  C_8
REMARK    5  A    between atoms: C_8  and  C_9
REMARK    6  A    between atoms: C_18  and  C_20
REMARK                            x       y       z     vdW  Elec       q    Type
REMARK                         _______ _______ _______ _____ _____    ______ ____
ROOT
ATOM      1  C   UNL     1      46.433   8.428  12.331  0.00  0.00    +0.000 C 
ATOM      2  N   UNL     1      46.180   7.001  12.168  0.00  0.00    +0.000 N 
ATOM      3  C   UNL     1      44.903   6.657  11.690  0.00  0.00    +0.000 C 
ATOM      4  O   UNL     1      44.079   7.524  11.407  0.00  0.00    +0.000 OA
ENDROOT
BRANCH   3   5
ATOM      5  C   UNL     1      44.530   5.240  11.562  0.00  0.00    +0.000 A 
ATOM      6  C   UNL     1      43.761   4.540  12.480  0.00  0.00    +0.000 A 
ATOM      7  S   UNL     1      43.441   2.928  12.018  0.00  0.00    +0.000 S 
ATOM      8  C   UNL     1      44.186   3.157  10.507  0.00  0.00    +0.000 A 
ATOM      9  N   UNL     1      44.168   2.184   9.560  0.00  0.00    +0.000 NA
ATOM     10  C   UNL     1      44.704   2.530   8.436  0.00  0.00    +0.000 A 
ATOM     11  N   UNL     1      45.291   3.746   8.191  0.00  0.00    +0.000 N 
ATOM     12  C   UNL     1      45.456   4.707   9.166  0.00  0.00    +0.000 A 
ATOM     13  O   UNL     1      46.187   5.673   8.979  0.00  0.00    +0.000 OA
ATOM     14  C   UNL     1      44.757   4.413  10.401  0.00  0.00    +0.000 A 
ATOM     15  H   UNL     1      45.751   3.929   7.310  0.00  0.00    +0.000 HD
ENDBRANCH   3   5
BRANCH   2  16
ATOM     16  C   UNL     1      47.215   6.015  12.477  0.00  0.00    +0.000 C 
BRANCH  16  17
ATOM     17  C   UNL     1      47.448   5.634  13.915  0.00  0.00    +0.000 A 
ATOM     18  C   UNL     1      46.860   4.470  14.436  0.00  0.00    +0.000 A 
ATOM     19  C   UNL     1      47.145   4.060  15.738  0.00  0.00    +0.000 A 
ATOM     20  C   UNL     1      48.013   4.804  16.538  0.00  0.00    +0.000 A 
ATOM     21  C   UNL     1      48.566   5.989  16.030  0.00  0.00    +0.000 A 
ATOM     22  C   UNL     1      48.284   6.403  14.728  0.00  0.00    +0.000 A 
BRANCH  20  23
ATOM     23  C   UNL     1      48.342   4.347  17.937  0.00  0.00    +0.000 C 
BRANCH  23  24
ATOM     24  C   UNL     1      49.805   4.496  18.342  0.00  0.00    +0.000 C 
ATOM     25  O   UNL     1      50.246   5.474  18.945  0.00  0.00    +0.000 OA
ATOM     26  N   UNL     1      50.630   3.449  17.974  0.00  0.00    +0.000 N 
ATOM     27  C   UNL     1      50.256   2.239  17.270  0.00  0.00    +0.000 C 
ATOM     28  C   UNL     1      51.383   1.276  17.594  0.00  0.00    +0.000 C 
ATOM     29  C   UNL     1      52.607   2.179  17.686  0.00  0.00    +0.000 C 
ATOM     30  C   UNL     1      52.064   3.514  18.186  0.00  0.00    +0.000 C 
ENDBRANCH  23  24
ENDBRANCH  20  23
ENDBRANCH  16  17
ENDBRANCH   2  16
TORSDOF 5
ENDMDL
MODEL 2
REMARK VINA RESULT:    -7.373      1.341      2.199
REMARK INTER + INTRA:         -10.642
REMARK INTER:                  -9.616
REMARK INTRA:                  -1.025
REMARK UNBOUND:                -1.113
REMARK  Name = 
REMARK  6 active torsions:
REMARK  status: ('A' for Active; 'I' for Inactive)
REMARK    1  A    between atoms: C_1  and  N_2
REMARK    2  A    between atoms: N_2  and  C_3
REMARK    3  A    between atoms: C_3  and  C_4
REMARK    4  A    between atoms: C_7  and  C_8
REMARK    5  A    between atoms: C_8  and  C_9
REMARK    6  A    between atoms: C_18  and  C_20
REMARK                            x       y       z     vdW  Elec       q    Type
REMARK                         _______ _______ _______ _____ _____    ______ ____
ROOT
ATOM      1  C   UNL     1      46.427   8.730  13.080  0.00  0.00    +0.000 C 
ATOM      2  N   UNL     1      46.341   7.467  12.356  0.00  0.00    +0.000 N 
ATOM      3  C   UNL     1      45.215   7.313  11.526  0.00  0.00    +0.000 C 
ATOM      4  O   UNL     1      44.385   8.213  11.413  0.00  0.00    +0.000 OA
ENDROOT
BRANCH   3   5
ATOM      5  C   UNL     1      45.003   6.044  10.813  0.00  0.00    +0.000 A 
ATOM      6  C   UNL     1      45.559   5.727   9.583  0.00  0.00    +0.000 A 
ATOM      7  S   UNL     1      45.182   4.151   9.046  0.00  0.00    +0.000 S 
ATOM      8  C   UNL     1      44.394   3.785  10.507  0.00  0.00    +0.000 A 
ATOM      9  N   UNL     1      43.921   2.536  10.757  0.00  0.00    +0.000 NA
ATOM     10  C   UNL     1      43.418   2.388  11.938  0.00  0.00    +0.000 A 
ATOM     11  N   UNL     1      43.309   3.386  12.873  0.00  0.00    +0.000 N 
ATOM     12  C   UNL     1      43.647   4.696  12.611  0.00  0.00    +0.000 A 
ATOM     13  O   UNL     1      43.319   5.596  13.377  0.00  0.00    +0.000 OA
ATOM     14  C   UNL     1      44.334   4.883  11.347  0.00  0.00    +0.000 A 
ATOM     15  H   UNL     1      42.846   3.219  13.755  0.00  0.00    +0.000 HD
ENDBRANCH   3   5
BRANCH   2  16
ATOM     16  C   UNL     1      47.383   6.449  12.494  0.00  0.00    +0.000 C 
BRANCH  16  17
ATOM     17  C   UNL     1      47.640   5.854  13.852  0.00  0.00    +0.000 A 
ATOM     18  C   UNL     1      48.511   6.496  14.745  0.00  0.00    +0.000 A 
ATOM     19  C   UNL     1      48.683   6.003  16.039  0.00  0.00    +0.000 A 
ATOM     20  C   UNL     1      47.993   4.864  16.456  0.00  0.00    +0.000 A 
ATOM     21  C   UNL     1      47.155   4.199  15.548  0.00  0.00    +0.000 A 
ATOM     22  C   UNL     1      46.981   4.689  14.254  0.00  0.00    +0.000 A 
BRANCH  20  23
ATOM     23  C   UNL     1      48.158   4.345  17.863  0.00  0.00    +0.000 C 
BRANCH  23  24
ATOM     24  C   UNL     1      49.558   4.490  18.450  0.00  0.00    +0.000 C 
ATOM     25  O   UNL     1      49.883   5.397  19.215  0.00  0.00    +0.000 OA
ATOM     26  N   UNL     1      50.468   3.526  18.054  0.00  0.00    +0.000 N 
ATOM     27  C   UNL     1      50.232   2.403  17.168  0.00  0.00    +0.000 C 
ATOM     28  C   UNL     1      51.361   1.446  17.500  0.00  0.00    +0.000 C 
ATOM     29  C   UNL     1      52.523   2.370  17.843  0.00  0.00    +0.000 C 
ATOM     30  C   UNL     1      51.865   3.612  18.436  0.00  0.00    +0.000 C 
ENDBRANCH  23  24
ENDBRANCH  20  23
ENDBRANCH  16  17
ENDBRANCH   2  16
TORSDOF 5
ENDMDL
MODEL 3
REMARK VINA RESULT:    -7.200      1.866      2.557
REMARK INTER + INTRA:         -10.417
REMARK INTER:                  -9.231
REMARK INTRA:                  -1.186
REMARK UNBOUND:                -1.113
REMARK  Name = 
REMARK  6 active torsions:
REMARK  status: ('A' for Active; 'I' for Inactive)
REMARK    1  A    between atoms: C_1  and  N_2
REMARK    2  A    between atoms: N_2  and  C_3
REMARK    3  A    between atoms: C_3  and  C_4
REMARK    4  A    between atoms: C_7  and  C_8
REMARK    5  A    between atoms: C_8  and  C_9
REMARK    6  A    between atoms: C_18  and  C_20
REMARK                            x       y       z     vdW  Elec       q    Type
REMARK                         _______ _______ _______ _____ _____    ______ ____
ROOT
ATOM      1  C   UNL     1      45.912   8.432  12.003  0.00  0.00    +0.000 C 
ATOM      2  N   UNL     1      45.800   6.986  11.855  0.00  0.00    +0.000 N 
ATOM      3  C   UNL     1      44.550   6.511  11.418  0.00  0.00    +0.000 C 
ATOM      4  O   UNL     1      43.634   7.288  11.156  0.00  0.00    +0.000 OA
ENDROOT
BRANCH   3   5
ATOM      5  C   UNL     1      44.318   5.063  11.309  0.00  0.00    +0.000 A 
ATOM      6  C   UNL     1      43.570   4.313  12.203  0.00  0.00    +0.000 A 
ATOM      7  S   UNL     1      43.428   2.668  11.769  0.00  0.00    +0.000 S 
ATOM      8  C   UNL     1      44.229   2.935  10.293  0.00  0.00    +0.000 A 
ATOM      9  N   UNL     1      44.353   1.944   9.372  0.00  0.00    +0.000 NA
ATOM     10  C   UNL     1      44.914   2.315   8.269  0.00  0.00    +0.000 A 
ATOM     11  N   UNL     1      45.398   3.575   8.023  0.00  0.00    +0.000 N 
ATOM     12  C   UNL     1      45.418   4.568   8.978  0.00  0.00    +0.000 A 
ATOM     13  O   UNL     1      46.066   5.595   8.805  0.00  0.00    +0.000 OA
ATOM     14  C   UNL     1      44.684   4.236  10.184  0.00  0.00    +0.000 A 
ATOM     15  H   UNL     1      45.885   3.782   7.162  0.00  0.00    +0.000 HD
ENDBRANCH   3   5
BRANCH   2  16
ATOM     16  C   UNL     1      46.938   6.111  12.137  0.00  0.00    +0.000 C 
BRANCH  16  17
ATOM     17  C   UNL     1      47.280   5.806  13.571  0.00  0.00    +0.000 A 
ATOM     18  C   UNL     1      46.751   4.663  14.189  0.00  0.00    +0.000 A 
ATOM     19  C   UNL     1      47.136   4.321  15.486  0.00  0.00    +0.000 A 
ATOM     20  C   UNL     1      48.047   5.115  16.182  0.00  0.00    +0.000 A 
ATOM     21  C   UNL     1      48.543   6.280  15.578  0.00  0.00    +0.000 A 
ATOM     22  C   UNL     1      48.161   6.625  14.282  0.00  0.00    +0.000 A 
BRANCH  20  23
ATOM     23  C   UNL     1      48.485   4.732  17.575  0.00  0.00    +0.000 C 
BRANCH  23  24
ATOM     24  C   UNL     1      47.806   5.501  18.703  0.00  0.00    +0.000 C 
ATOM     25  O   UNL     1      46.596   5.455  18.926  0.00  0.00    +0.000 OA
ATOM     26  N   UNL     1      48.646   6.283  19.475  0.00  0.00    +0.000 N 
ATOM     27  C   UNL     1      50.082   6.435  19.337  0.00  0.00    +0.000 C 
ATOM     28  C   UNL     1      50.516   6.953  20.694  0.00  0.00    +0.000 C 
ATOM     29  C   UNL     1      49.342   7.817  21.139  0.00  0.00    +0.000 C 
ATOM     30  C   UNL     1      48.120   7.162  20.502  0.00  0.00    +0.000 C 
ENDBRANCH  23  24
ENDBRANCH  20  23
ENDBRANCH  16  17
ENDBRANCH   2  16
TORSDOF 5
ENDMDL
MODEL 4
REMARK VINA RESULT:    -7.174      2.202      8.113
REMARK INTER + INTRA:         -10.385
REMARK INTER:                  -9.431
REMARK INTRA:                  -0.953
REMARK UNBOUND:                -1.113
REMARK  Name = 
REMARK  6 active torsions:
REMARK  status: ('A' for Active; 'I' for Inactive)
REMARK    1  A    between atoms: C_1  and  N_2
REMARK    2  A    between atoms: N_2  and  C_3
REMARK    3  A    between atoms: C_3  and  C_4
REMARK    4  A    between atoms: C_7  and  C_8
REMARK    5  A    between atoms: C_8  and  C_9
REMARK    6  A    between atoms: C_18  and  C_20
REMARK                            x       y       z     vdW  Elec       q    Type
REMARK                         _______ _______ _______ _____ _____    ______ ____
ROOT
ATOM      1  C   UNL     1      48.685   8.859  15.983  0.00  0.00    +0.000 C 
ATOM      2  N   UNL     1      48.634   7.402  16.012  0.00  0.00    +0.000 N 
ATOM      3  C   UNL     1      48.369   6.824  17.267  0.00  0.00    +0.000 C 
ATOM      4  O   UNL     1      48.168   7.525  18.256  0.00  0.00    +0.000 OA
ENDROOT
BRANCH   3   5
ATOM      5  C   UNL     1      48.371   5.360  17.410  0.00  0.00    +0.000 A 
ATOM      6  C   UNL     1      47.243   4.557  17.329  0.00  0.00    +0.000 A 
ATOM      7  S   UNL     1      47.578   2.889  17.468  0.00  0.00    +0.000 S 
ATOM      8  C   UNL     1      49.254   3.173  17.484  0.00  0.00    +0.000 A 
ATOM      9  N   UNL     1      50.141   2.144  17.478  0.00  0.00    +0.000 NA
ATOM     10  C   UNL     1      51.378   2.513  17.412  0.00  0.00    +0.000 A 
ATOM     11  N   UNL     1      51.805   3.817  17.392  0.00  0.00    +0.000 N 
ATOM     12  C   UNL     1      50.949   4.887  17.538  0.00  0.00    +0.000 A 
ATOM     13  O   UNL     1      51.381   6.014  17.754  0.00  0.00    +0.000 OA
ATOM     14  C   UNL     1      49.546   4.526  17.486  0.00  0.00    +0.000 A 
ATOM     15  H   UNL     1      52.792   4.037  17.405  0.00  0.00    +0.000 HD
ENDBRANCH   3   5
BRANCH   2  16
ATOM     16  C   UNL     1      48.836   6.619  14.793  0.00  0.00    +0.000 C 
BRANCH  16  17
ATOM     17  C   UNL     1      47.660   6.374  13.885  0.00  0.00    +0.000 A 
ATOM     18  C   UNL     1      46.972   5.152  13.943  0.00  0.00    +0.000 A 
ATOM     19  C   UNL     1      45.826   4.951  13.174  0.00  0.00    +0.000 A 
ATOM     20  C   UNL     1      45.354   5.962  12.336  0.00  0.00    +0.000 A 
ATOM     21  C   UNL     1      46.066   7.167  12.247  0.00  0.00    +0.000 A 
ATOM     22  C   UNL     1      47.213   7.372  13.015  0.00  0.00    +0.000 A 
BRANCH  20  23
ATOM     23  C   UNL     1      44.100   5.756  11.524  0.00  0.00    +0.000 C 
BRANCH  23  24
ATOM     24  C   UNL     1      43.855   4.325  11.057  0.00  0.00    +0.000 C 
ATOM     25  O   UNL     1      43.055   3.562  11.598  0.00  0.00    +0.000 OA
ATOM     26  N   UNL     1      44.610   3.920   9.972  0.00  0.00    +0.000 N 
ATOM     27  C   UNL     1      45.581   4.702   9.233  0.00  0.00    +0.000 C 
ATOM     28  C   UNL     1      45.693   3.972   7.909  0.00  0.00    +0.000 C 
ATOM     29  C   UNL     1      45.497   2.510   8.290  0.00  0.00    +0.000 C 
ATOM     30  C   UNL     1      44.570   2.548   9.500  0.00  0.00    +0.000 C 
ENDBRANCH  23  24
ENDBRANCH  20  23
ENDBRANCH  16  17
ENDBRANCH   2  16
TORSDOF 5
ENDMDL
MODEL 5
REMARK VINA RESULT:    -6.058      3.703      4.518
REMARK INTER + INTRA:          -8.942
REMARK INTER:                  -7.876
REMARK INTRA:                  -1.065
REMARK UNBOUND:                -1.113
REMARK  Name = 
REMARK  6 active torsions:
REMARK  status: ('A' for Active; 'I' for Inactive)
REMARK    1  A    between atoms: C_1  and  N_2
REMARK    2  A    between atoms: N_2  and  C_3
REMARK    3  A    between atoms: C_3  and  C_4
REMARK    4  A    between atoms: C_7  and  C_8
REMARK    5  A    between atoms: C_8  and  C_9
REMARK    6  A    between atoms: C_18  and  C_20
REMARK                            x       y       z     vdW  Elec       q    Type
REMARK                         _______ _______ _______ _____ _____    ______ ____
ROOT
ATOM      1  C   UNL     1      45.265   8.676  12.357  0.00  0.00    +0.000 C 
ATOM      2  N   UNL     1      45.310   7.225  12.217  0.00  0.00    +0.000 N 
ATOM      3  C   UNL     1      44.233   6.644  11.523  0.00  0.00    +0.000 C 
ATOM      4  O   UNL     1      43.338   7.339  11.047  0.00  0.00    +0.000 OA
ENDROOT
BRANCH   3   5
ATOM      5  C   UNL     1      44.154   5.181  11.395  0.00  0.00    +0.000 A 
ATOM      6  C   UNL     1      43.379   4.359  12.199  0.00  0.00    +0.000 A 
ATOM      7  S   UNL     1      43.445   2.710  11.760  0.00  0.00    +0.000 S 
ATOM      8  C   UNL     1      44.385   3.060  10.386  0.00  0.00    +0.000 A 
ATOM      9  N   UNL     1      44.708   2.091   9.491  0.00  0.00    +0.000 NA
ATOM     10  C   UNL     1      45.357   2.520   8.459  0.00  0.00    +0.000 A 
ATOM     11  N   UNL     1      45.745   3.822   8.265  0.00  0.00    +0.000 N 
ATOM     12  C   UNL     1      45.560   4.807   9.211  0.00  0.00    +0.000 A 
ATOM     13  O   UNL     1      46.124   5.890   9.109  0.00  0.00    +0.000 OA
ATOM     14  C   UNL     1      44.725   4.400  10.324  0.00  0.00    +0.000 A 
ATOM     15  H   UNL     1      46.308   4.079   7.466  0.00  0.00    +0.000 HD
ENDBRANCH   3   5
BRANCH   2  16
ATOM     16  C   UNL     1      46.425   6.452  12.764  0.00  0.00    +0.000 C 
BRANCH  16  17
ATOM     17  C   UNL     1      47.800   7.066  12.768  0.00  0.00    +0.000 A 
ATOM     18  C   UNL     1      48.497   7.215  13.977  0.00  0.00    +0.000 A 
ATOM     19  C   UNL     1      49.807   7.695  13.980  0.00  0.00    +0.000 A 
ATOM     20  C   UNL     1      50.434   8.037  12.782  0.00  0.00    +0.000 A 
ATOM     21  C   UNL     1      49.721   7.928  11.579  0.00  0.00    +0.000 A 
ATOM     22  C   UNL     1      48.411   7.447  11.572  0.00  0.00    +0.000 A 
BRANCH  20  23
ATOM     23  C   UNL     1      51.860   8.532  12.781  0.00  0.00    +0.000 C 
BRANCH  23  24
ATOM     24  C   UNL     1      52.092   9.846  13.519  0.00  0.00    +0.000 C 
ATOM     25  O   UNL     1      51.741  10.941  13.082  0.00  0.00    +0.000 OA
ATOM     26  N   UNL     1      52.746   9.735  14.732  0.00  0.00    +0.000 N 
ATOM     27  C   UNL     1      53.214   8.522  15.373  0.00  0.00    +0.000 C 
ATOM     28  C   UNL     1      53.363   8.923  16.829  0.00  0.00    +0.000 C 
ATOM     29  C   UNL     1      53.796  10.382  16.753  0.00  0.00    +0.000 C 
ATOM     30  C   UNL     1      53.142  10.913  15.481  0.00  0.00    +0.000 C 
ENDBRANCH  23  24
ENDBRANCH  20  23
ENDBRANCH  16  17
ENDBRANCH   2  16
TORSDOF 5
ENDMDL
MODEL 6
REMARK VINA RESULT:    -5.893      2.033      2.818
REMARK INTER + INTRA:          -8.729
REMARK INTER:                  -7.742
REMARK INTRA:                  -0.987
REMARK UNBOUND:                -1.113
REMARK  Name = 
REMARK  6 active torsions:
REMARK  status: ('A' for Active; 'I' for Inactive)
REMARK    1  A    between atoms: C_1  and  N_2
REMARK    2  A    between atoms: N_2  and  C_3
REMARK    3  A    between atoms: C_3  and  C_4
REMARK    4  A    between atoms: C_7  and  C_8
REMARK    5  A    between atoms: C_8  and  C_9
REMARK    6  A    between atoms: C_18  and  C_20
REMARK                            x       y       z     vdW  Elec       q    Type
REMARK                         _______ _______ _______ _____ _____    ______ ____
ROOT
ATOM      1  C   UNL     1      43.692   5.625  12.827  0.00  0.00    +0.000 C 
ATOM      2  N   UNL     1      44.395   4.612  12.048  0.00  0.00    +0.000 N 
ATOM      3  C   UNL     1      43.925   4.413  10.737  0.00  0.00    +0.000 C 
ATOM      4  O   UNL     1      42.997   5.084  10.290  0.00  0.00    +0.000 OA
ENDROOT
BRANCH   3   5
ATOM      5  C   UNL     1      44.523   3.362   9.900  0.00  0.00    +0.000 A 
ATOM      6  C   UNL     1      44.101   2.042   9.868  0.00  0.00    +0.000 A 
ATOM      7  S   UNL     1      44.950   1.077   8.744  0.00  0.00    +0.000 S 
ATOM      8  C   UNL     1      45.802   2.425   8.153  0.00  0.00    +0.000 A 
ATOM      9  N   UNL     1      46.635   2.316   7.085  0.00  0.00    +0.000 NA
ATOM     10  C   UNL     1      47.152   3.436   6.701  0.00  0.00    +0.000 A 
ATOM     11  N   UNL     1      46.940   4.646   7.314  0.00  0.00    +0.000 N 
ATOM     12  C   UNL     1      46.216   4.778   8.479  0.00  0.00    +0.000 A 
ATOM     13  O   UNL     1      46.245   5.820   9.123  0.00  0.00    +0.000 OA
ATOM     14  C   UNL     1      45.515   3.571   8.872  0.00  0.00    +0.000 A 
ATOM     15  H   UNL     1      47.426   5.475   7.001  0.00  0.00    +0.000 HD
ENDBRANCH   3   5
BRANCH   2  16
ATOM     16  C   UNL     1      45.524   3.876  12.617  0.00  0.00    +0.000 C 
BRANCH  16  17
ATOM     17  C   UNL     1      46.542   4.626  13.434  0.00  0.00    +0.000 A 
ATOM     18  C   UNL     1      47.210   5.729  12.879  0.00  0.00    +0.000 A 
ATOM     19  C   UNL     1      48.085   6.487  13.659  0.00  0.00    +0.000 A 
ATOM     20  C   UNL     1      48.307   6.153  14.995  0.00  0.00    +0.000 A 
ATOM     21  C   UNL     1      47.671   5.026  15.535  0.00  0.00    +0.000 A 
ATOM     22  C   UNL     1      46.796   4.266  14.760  0.00  0.00    +0.000 A 
BRANCH  20  23
ATOM     23  C   UNL     1      49.233   6.988  15.845  0.00  0.00    +0.000 C 
BRANCH  23  24
ATOM     24  C   UNL     1      49.057   6.823  17.351  0.00  0.00    +0.000 C 
ATOM     25  O   UNL     1      48.190   7.407  18.001  0.00  0.00    +0.000 OA
ATOM     26  N   UNL     1      49.956   5.968  17.962  0.00  0.00    +0.000 N 
ATOM     27  C   UNL     1      51.021   5.213  17.331  0.00  0.00    +0.000 C 
ATOM     28  C   UNL     1      51.317   4.113  18.332  0.00  0.00    +0.000 C 
ATOM     29  C   UNL     1      51.071   4.780  19.679  0.00  0.00    +0.000 C 
ATOM     30  C   UNL     1      49.983   5.814  19.404  0.00  0.00    +0.000 C 
ENDBRANCH  23  24
ENDBRANCH  20  23
ENDBRANCH  16  17
ENDBRANCH   2  16
TORSDOF 5
ENDMDL
MODEL 7
REMARK VINA RESULT:    -5.851      4.089      8.446
REMARK INTER + INTRA:          -8.675
REMARK INTER:                  -7.671
REMARK INTRA:                  -1.003
REMARK UNBOUND:                -1.113
REMARK  Name = 
REMARK  6 active torsions:
REMARK  status: ('A' for Active; 'I' for Inactive)
REMARK    1  A    between atoms: C_1  and  N_2
REMARK    2  A    between atoms: N_2  and  C_3
REMARK    3  A    between atoms: C_3  and  C_4
REMARK    4  A    between atoms: C_7  and  C_8
REMARK    5  A    between atoms: C_8  and  C_9
REMARK    6  A    between atoms: C_18  and  C_20
REMARK                            x       y       z     vdW  Elec       q    Type
REMARK                         _______ _______ _______ _____ _____    ______ ____
ROOT
ATOM      1  C   UNL     1      48.281   9.178  16.353  0.00  0.00    +0.000 C 
ATOM      2  N   UNL     1      49.038   8.696  15.203  0.00  0.00    +0.000 N 
ATOM      3  C   UNL     1      49.952   9.610  14.647  0.00  0.00    +0.000 C 
ATOM      4  O   UNL     1      50.106  10.727  15.135  0.00  0.00    +0.000 OA
ENDROOT
BRANCH   3   5
ATOM      5  C   UNL     1      50.708   9.241  13.440  0.00  0.00    +0.000 A 
ATOM      6  C   UNL     1      50.388   9.646  12.153  0.00  0.00    +0.000 A 
ATOM      7  S   UNL     1      51.496   9.109  10.970  0.00  0.00    +0.000 S 
ATOM      8  C   UNL     1      52.522   8.451  12.155  0.00  0.00    +0.000 A 
ATOM      9  N   UNL     1      53.729   7.922  11.824  0.00  0.00    +0.000 NA
ATOM     10  C   UNL     1      54.431   7.532  12.837  0.00  0.00    +0.000 A 
ATOM     11  N   UNL     1      54.017   7.588  14.144  0.00  0.00    +0.000 N 
ATOM     12  C   UNL     1      52.749   7.986  14.510  0.00  0.00    +0.000 A 
ATOM     13  O   UNL     1      52.336   7.800  15.649  0.00  0.00    +0.000 OA
ATOM     14  C   UNL     1      51.975   8.551  13.422  0.00  0.00    +0.000 A 
ATOM     15  H   UNL     1      54.589   7.206  14.884  0.00  0.00    +0.000 HD
ENDBRANCH   3   5
BRANCH   2  16
ATOM     16  C   UNL     1      48.846   7.339  14.692  0.00  0.00    +0.000 C 
BRANCH  16  17
ATOM     17  C   UNL     1      47.713   7.077  13.736  0.00  0.00    +0.000 A 
ATOM     18  C   UNL     1      47.403   5.761  13.360  0.00  0.00    +0.000 A 
ATOM     19  C   UNL     1      46.297   5.502  12.550  0.00  0.00    +0.000 A 
ATOM     20  C   UNL     1      45.492   6.549  12.101  0.00  0.00    +0.000 A 
ATOM     21  C   UNL     1      45.828   7.867  12.443  0.00  0.00    +0.000 A 
ATOM     22  C   UNL     1      46.932   8.130  13.253  0.00  0.00    +0.000 A 
BRANCH  20  23
ATOM     23  C   UNL     1      44.281   6.267  11.247  0.00  0.00    +0.000 C 
BRANCH  23  24
ATOM     24  C   UNL     1      43.867   4.801  11.168  0.00  0.00    +0.000 C 
ATOM     25  O   UNL     1      43.098   4.269  11.968  0.00  0.00    +0.000 OA
ATOM     26  N   UNL     1      44.429   4.083  10.128  0.00  0.00    +0.000 N 
ATOM     27  C   UNL     1      45.342   4.571   9.113  0.00  0.00    +0.000 C 
ATOM     28  C   UNL     1      45.211   3.552   7.997  0.00  0.00    +0.000 C 
ATOM     29  C   UNL     1      44.964   2.243   8.738  0.00  0.00    +0.000 C 
ATOM     30  C   UNL     1      44.222   2.653  10.006  0.00  0.00    +0.000 C 
ENDBRANCH  23  24
ENDBRANCH  20  23
ENDBRANCH  16  17
ENDBRANCH   2  16
TORSDOF 5
ENDMDL
MODEL 8
REMARK VINA RESULT:    -5.633      2.883      4.296
REMARK INTER + INTRA:          -8.393
REMARK INTER:                  -7.486
REMARK INTRA:                  -0.907
REMARK UNBOUND:                -1.113
REMARK  Name = 
REMARK  6 active torsions:
REMARK  status: ('A' for Active; 'I' for Inactive)
REMARK    1  A    between atoms: C_1  and  N_2
REMARK    2  A    between atoms: N_2  and  C_3
REMARK    3  A    between atoms: C_3  and  C_4
REMARK    4  A    between atoms: C_7  and  C_8
REMARK    5  A    between atoms: C_8  and  C_9
REMARK    6  A    between atoms: C_18  and  C_20
REMARK                            x       y       z     vdW  Elec       q    Type
REMARK                         _______ _______ _______ _____ _____    ______ ____
ROOT
ATOM      1  C   UNL     1      43.482   5.045  13.286  0.00  0.00    +0.000 C 
ATOM      2  N   UNL     1      44.438   4.715  12.235  0.00  0.00    +0.000 N 
ATOM      3  C   UNL     1      44.054   5.065  10.928  0.00  0.00    +0.000 C 
ATOM      4  O   UNL     1      42.987   5.637  10.713  0.00  0.00    +0.000 OA
ENDROOT
BRANCH   3   5
ATOM      5  C   UNL     1      44.919   4.707   9.794  0.00  0.00    +0.000 A 
ATOM      6  C   UNL     1      45.816   5.569   9.181  0.00  0.00    +0.000 A 
ATOM      7  S   UNL     1      46.728   4.839   7.936  0.00  0.00    +0.000 S 
ATOM      8  C   UNL     1      46.067   3.310   8.277  0.00  0.00    +0.000 A 
ATOM      9  N   UNL     1      46.507   2.196   7.636  0.00  0.00    +0.000 NA
ATOM     10  C   UNL     1      45.969   1.098   8.055  0.00  0.00    +0.000 A 
ATOM     11  N   UNL     1      45.005   1.021   9.028  0.00  0.00    +0.000 N 
ATOM     12  C   UNL     1      44.433   2.135   9.604  0.00  0.00    +0.000 A 
ATOM     13  O   UNL     1      43.420   2.039  10.287  0.00  0.00    +0.000 OA
ATOM     14  C   UNL     1      45.094   3.378   9.258  0.00  0.00    +0.000 A 
ATOM     15  H   UNL     1      44.579   0.135   9.264  0.00  0.00    +0.000 HD
ENDBRANCH   3   5
BRANCH   2  16
ATOM     16  C   UNL     1      45.714   4.075  12.554  0.00  0.00    +0.000 C 
BRANCH  16  17
ATOM     17  C   UNL     1      46.688   4.801  13.443  0.00  0.00    +0.000 A 
ATOM     18  C   UNL     1      47.274   6.000  13.009  0.00  0.00    +0.000 A 
ATOM     19  C   UNL     1      48.104   6.728  13.862  0.00  0.00    +0.000 A 
ATOM     20  C   UNL     1      48.363   6.268  15.154  0.00  0.00    +0.000 A 
ATOM     21  C   UNL     1      47.809   5.049  15.572  0.00  0.00    +0.000 A 
ATOM     22  C   UNL     1      46.979   4.318  14.722  0.00  0.00    +0.000 A 
BRANCH  20  23
ATOM     23  C   UNL     1      49.239   7.068  16.087  0.00  0.00    +0.000 C 
BRANCH  23  24
ATOM     24  C   UNL     1      48.774   7.110  17.539  0.00  0.00    +0.000 C 
ATOM     25  O   UNL     1      48.899   6.166  18.319  0.00  0.00    +0.000 OA
ATOM     26  N   UNL     1      48.179   8.293  17.935  0.00  0.00    +0.000 N 
ATOM     27  C   UNL     1      47.967   9.484  17.135  0.00  0.00    +0.000 C 
ATOM     28  C   UNL     1      47.775  10.577  18.169  0.00  0.00    +0.000 C 
ATOM     29  C   UNL     1      47.067   9.864  19.315  0.00  0.00    +0.000 C 
ATOM     30  C   UNL     1      47.580   8.428  19.250  0.00  0.00    +0.000 C 
ENDBRANCH  23  24
ENDBRANCH  20  23
ENDBRANCH  16  17
ENDBRANCH   2  16
TORSDOF 5
ENDMDL
MODEL 9
REMARK VINA RESULT:    -5.591      4.402      8.333
REMARK INTER + INTRA:          -8.338
REMARK INTER:                  -7.237
REMARK INTRA:                  -1.102
REMARK UNBOUND:                -1.113
REMARK  Name = 
REMARK  6 active torsions:
REMARK  status: ('A' for Active; 'I' for Inactive)
REMARK    1  A    between atoms: C_1  and  N_2
REMARK    2  A    between atoms: N_2  and  C_3
REMARK    3  A    between atoms: C_3  and  C_4
REMARK    4  A    between atoms: C_7  and  C_8
REMARK    5  A    between atoms: C_8  and  C_9
REMARK    6  A    between atoms: C_18  and  C_20
REMARK                            x       y       z     vdW  Elec       q    Type
REMARK                         _______ _______ _______ _____ _____    ______ ____
ROOT
ATOM      1  C   UNL     1      48.475   8.988  16.084  0.00  0.00    +0.000 C 
ATOM      2  N   UNL     1      49.587   8.554  15.248  0.00  0.00    +0.000 N 
ATOM      3  C   UNL     1      50.681   9.436  15.178  0.00  0.00    +0.000 C 
ATOM      4  O   UNL     1      50.687  10.488  15.815  0.00  0.00    +0.000 OA
ENDROOT
BRANCH   3   5
ATOM      5  C   UNL     1      51.819   9.119  14.302  0.00  0.00    +0.000 A 
ATOM      6  C   UNL     1      52.930   8.383  14.685  0.00  0.00    +0.000 A 
ATOM      7  S   UNL     1      54.050   8.126  13.422  0.00  0.00    +0.000 S 
ATOM      8  C   UNL     1      53.015   8.853  12.285  0.00  0.00    +0.000 A 
ATOM      9  N   UNL     1      53.325   8.868  10.963  0.00  0.00    +0.000 NA
ATOM     10  C   UNL     1      52.409   9.384  10.211  0.00  0.00    +0.000 A 
ATOM     11  N   UNL     1      51.232   9.921  10.670  0.00  0.00    +0.000 N 
ATOM     12  C   UNL     1      50.942  10.053  12.011  0.00  0.00    +0.000 A 
ATOM     13  O   UNL     1      50.002  10.744  12.386  0.00  0.00    +0.000 OA
ATOM     14  C   UNL     1      51.881   9.373  12.882  0.00  0.00    +0.000 A 
ATOM     15  H   UNL     1      50.586  10.368  10.034  0.00  0.00    +0.000 HD
ENDBRANCH   3   5
BRANCH   2  16
ATOM     16  C   UNL     1      49.545   7.270  14.548  0.00  0.00    +0.000 C 
BRANCH  16  17
ATOM     17  C   UNL     1      48.359   6.958  13.675  0.00  0.00    +0.000 A 
ATOM     18  C   UNL     1      47.532   5.865  13.980  0.00  0.00    +0.000 A 
ATOM     19  C   UNL     1      46.379   5.625  13.233  0.00  0.00    +0.000 A 
ATOM     20  C   UNL     1      46.038   6.465  12.173  0.00  0.00    +0.000 A 
ATOM     21  C   UNL     1      46.888   7.532  11.843  0.00  0.00    +0.000 A 
ATOM     22  C   UNL     1      48.042   7.776  12.588  0.00  0.00    +0.000 A 
BRANCH  20  23
ATOM     23  C   UNL     1      44.777   6.222  11.381  0.00  0.00    +0.000 C 
BRANCH  23  24
ATOM     24  C   UNL     1      44.317   4.769  11.323  0.00  0.00    +0.000 C 
ATOM     25  O   UNL     1      43.614   4.244  12.186  0.00  0.00    +0.000 OA
ATOM     26  N   UNL     1      44.754   4.054  10.223  0.00  0.00    +0.000 N 
ATOM     27  C   UNL     1      45.578   4.535   9.130  0.00  0.00    +0.000 C 
ATOM     28  C   UNL     1      45.310   3.538   8.018  0.00  0.00    +0.000 C 
ATOM     29  C   UNL     1      45.099   2.224   8.761  0.00  0.00    +0.000 C 
ATOM     30  C   UNL     1      44.496   2.631  10.101  0.00  0.00    +0.000 C 
ENDBRANCH  23  24
ENDBRANCH  20  23
ENDBRANCH  16  17
ENDBRANCH   2  16
TORSDOF 5
ENDMDL
