MODEL 1
REMARK VINA RESULT:    -7.209      0.000      0.000
REMARK INTER + INTRA:         -12.312
REMARK INTER:                 -11.423
REMARK INTRA:                  -0.889
REMARK UNBOUND:                -0.889
REMARK  Name = 
REMARK  11 active torsions:
REMARK  status: ('A' for Active; 'I' for Inactive)
REMARK    1  A    between atoms: C_1  and  O_2
REMARK    2  A    between atoms: O_2  and  C_3
REMARK    3  A    between atoms: C_3  and  C_4
REMARK    4  A    between atoms: C_4  and  N_5
REMARK    5  A    between atoms: N_5  and  C_6
REMARK    6  A    between atoms: C_6  and  C_7
REMARK    7  A    between atoms: C_10  and  C_11
REMARK    8  A    between atoms: C_11  and  N_12
REMARK    9  A    between atoms: C_15  and  C_16
REMARK   10  A    between atoms: C_16  and  N_17
REMARK   11  A    between atoms: C_18  and  C_20
REMARK                            x       y       z     vdW  Elec       q    Type
REMARK                         _______ _______ _______ _____ _____    ______ ____
ROOT
ATOM      1  N   UNL     1      46.548   7.248  12.746  0.00  0.00    +0.000 NA
ATOM      2  C   UNL     1      46.707   8.498  13.510  0.00  0.00    +0.000 C 
ATOM      3  C   UNL     1      48.157   8.990  13.540  0.00  0.00    +0.000 C 
ATOM      4  C   UNL     1      49.137   7.924  14.047  0.00  0.00    +0.000 C 
ATOM      5  C   UNL     1      48.940   6.661  13.202  0.00  0.00    +0.000 C 
ATOM      6  C   UNL     1      47.481   6.196  13.173  0.00  0.00    +0.000 C 
ENDROOT
BRANCH   1   7
ATOM      7  C   UNL     1      45.153   6.752  12.846  0.00  0.00    +0.000 C 
BRANCH   7  11
ATOM      8  C   UNL     1      44.430   3.411  10.271  0.00  0.00    +0.000 A 
ATOM      9  C   UNL     1      44.057   3.347  11.619  0.00  0.00    +0.000 A 
ATOM     10  C   UNL     1      44.253   4.440  12.451  0.00  0.00    +0.000 A 
ATOM     11  C   UNL     1      44.842   5.584  11.924  0.00  0.00    +0.000 A 
ATOM     12  N   UNL     1      45.204   5.683  10.616  0.00  0.00    +0.000 NA
ATOM     13  C   UNL     1      44.988   4.604   9.824  0.00  0.00    +0.000 A 
BRANCH   8  14
ATOM     14  C   UNL     1      44.257   2.222   9.371  0.00  0.00    +0.000 C 
BRANCH  14  15
ATOM     15  N   UNL     1      45.529   1.526   9.183  0.00  0.00    +0.000 NA
ATOM     16  H   UNL     1      46.144   1.732   9.967  0.00  0.00    +0.000 HD
BRANCH  15  17
ATOM     17  C   UNL     1      46.187   1.950   7.948  0.00  0.00    +0.000 C 
BRANCH  17  18
ATOM     18  C   UNL     1      46.968   0.783   7.340  0.00  0.00    +0.000 C 
BRANCH  18  20
ATOM     19  C   UNL     1      48.083   2.628   6.408  0.00  0.00    +0.000 C 
ATOM     20  O   UNL     1      48.206   1.276   6.831  0.00  0.00    +0.000 OA
ENDBRANCH  18  20
ENDBRANCH  17  18
ENDBRANCH  15  17
ENDBRANCH  14  15
ENDBRANCH   8  14
ENDBRANCH   7  11
ENDBRANCH   1   7
BRANCH   4  21
ATOM     21  C   UNL     1      48.997   7.605  15.545  0.00  0.00    +0.000 C 
BRANCH  21  22
ATOM     22  N   UNL     1      50.008   6.689  16.017  0.00  0.00    +0.000 N 
ATOM     23  C   UNL     1      49.971   6.093  17.254  0.00  0.00    +0.000 C 
ATOM     24  O   UNL     1      49.048   6.260  18.045  0.00  0.00    +0.000 OA
ATOM     25  H   UNL     1      50.872   6.663  15.487  0.00  0.00    +0.000 HD
BRANCH  23  26
ATOM     26  C   UNL     1      51.084   5.182  17.546  0.00  0.00    +0.000 A 
ATOM     27  C   UNL     1      52.307   5.683  17.969  0.00  0.00    +0.000 A 
ATOM     28  S   UNL     1      53.446   4.465  18.341  0.00  0.00    +0.000 S 
ATOM     29  C   UNL     1      52.357   3.234  17.894  0.00  0.00    +0.000 A 
ATOM     30  N   UNL     1      52.712   1.921  17.971  0.00  0.00    +0.000 NA
ATOM     31  C   UNL     1      51.793   1.102  17.579  0.00  0.00    +0.000 A 
ATOM     32  N   UNL     1      50.559   1.471  17.109  0.00  0.00    +0.000 N 
ATOM     33  C   UNL     1      50.152   2.780  17.029  0.00  0.00    +0.000 A 
ATOM     34  O   UNL     1      49.027   3.072  16.645  0.00  0.00    +0.000 OA
ATOM     35  C   UNL     1      51.145   3.744  17.470  0.00  0.00    +0.000 A 
ATOM     36  H   UNL     1      49.885   0.778  16.820  0.00  0.00    +0.000 HD
ENDBRANCH  23  26
ENDBRANCH  21  22
ENDBRANCH   4  21
TORSDOF 10
ENDMDL
MODEL 2
REMARK VINA RESULT:    -6.853      3.128      8.496
REMARK INTER + INTRA:         -11.749
REMARK INTER:                 -10.520
REMARK INTRA:                  -1.229
REMARK UNBOUND:                -0.889
REMARK  Name = 
REMARK  11 active torsions:
REMARK  status: ('A' for Active; 'I' for Inactive)
REMARK    1  A    between atoms: C_1  and  O_2
REMARK    2  A    between atoms: O_2  and  C_3
REMARK    3  A    between atoms: C_3  and  C_4
REMARK    4  A    between atoms: C_4  and  N_5
REMARK    5  A    between atoms: N_5  and  C_6
REMARK    6  A    between atoms: C_6  and  C_7
REMARK    7  A    between atoms: C_10  and  C_11
REMARK    8  A    between atoms: C_11  and  N_12
REMARK    9  A    between atoms: C_15  and  C_16
REMARK   10  A    between atoms: C_16  and  N_17
REMARK   11  A    between atoms: C_18  and  C_20
REMARK                            x       y       z     vdW  Elec       q    Type
REMARK                         _______ _______ _______ _____ _____    ______ ____
ROOT
ATOM      1  N   UNL     1      50.007   9.047  13.742  0.00  0.00    +0.000 NA
ATOM      2  C   UNL     1      49.639   7.676  13.346  0.00  0.00    +0.000 C 
ATOM      3  C   UNL     1      48.843   7.634  12.039  0.00  0.00    +0.000 C 
ATOM      4  C   UNL     1      47.601   8.535  12.067  0.00  0.00    +0.000 C 
ATOM      5  C   UNL     1      48.052   9.946  12.461  0.00  0.00    +0.000 C 
ATOM      6  C   UNL     1      48.858   9.963  13.763  0.00  0.00    +0.000 C 
ENDROOT
BRANCH   1   7
ATOM      7  C   UNL     1      50.670   9.044  15.070  0.00  0.00    +0.000 C 
BRANCH   7  11
ATOM      8  C   UNL     1      49.740   5.752  17.640  0.00  0.00    +0.000 A 
ATOM      9  C   UNL     1      48.810   6.784  17.464  0.00  0.00    +0.000 A 
ATOM     10  C   UNL     1      49.089   7.835  16.602  0.00  0.00    +0.000 A 
ATOM     11  C   UNL     1      50.311   7.849  15.940  0.00  0.00    +0.000 A 
ATOM     12  N   UNL     1      51.231   6.856  16.079  0.00  0.00    +0.000 NA
ATOM     13  C   UNL     1      50.925   5.835  16.917  0.00  0.00    +0.000 A 
BRANCH   8  14
ATOM     14  C   UNL     1      49.465   4.628  18.599  0.00  0.00    +0.000 C 
BRANCH  14  15
ATOM     15  N   UNL     1      49.888   3.349  18.032  0.00  0.00    +0.000 NA
ATOM     16  H   UNL     1      50.766   3.476  17.535  0.00  0.00    +0.000 HD
BRANCH  15  17
ATOM     17  C   UNL     1      48.890   2.829  17.098  0.00  0.00    +0.000 C 
BRANCH  17  18
ATOM     18  C   UNL     1      47.498   2.881  17.730  0.00  0.00    +0.000 C 
BRANCH  18  20
ATOM     19  C   UNL     1      47.269   3.903  15.629  0.00  0.00    +0.000 C 
ATOM     20  O   UNL     1      46.624   3.592  16.857  0.00  0.00    +0.000 OA
ENDBRANCH  18  20
ENDBRANCH  17  18
ENDBRANCH  15  17
ENDBRANCH  14  15
ENDBRANCH   8  14
ENDBRANCH   7  11
ENDBRANCH   1   7
BRANCH   4  21
ATOM     21  C   UNL     1      46.486   8.038  13.002  0.00  0.00    +0.000 C 
BRANCH  21  22
ATOM     22  N   UNL     1      45.982   6.738  12.626  0.00  0.00    +0.000 N 
ATOM     23  C   UNL     1      44.896   6.557  11.806  0.00  0.00    +0.000 C 
ATOM     24  O   UNL     1      44.288   7.490  11.290  0.00  0.00    +0.000 OA
ATOM     25  H   UNL     1      46.325   5.952  13.166  0.00  0.00    +0.000 HD
BRANCH  23  26
ATOM     26  C   UNL     1      44.544   5.159  11.530  0.00  0.00    +0.000 A 
ATOM     27  C   UNL     1      43.817   4.423  12.456  0.00  0.00    +0.000 A 
ATOM     28  S   UNL     1      43.432   2.849  11.918  0.00  0.00    +0.000 S 
ATOM     29  C   UNL     1      44.272   3.084  10.455  0.00  0.00    +0.000 A 
ATOM     30  N   UNL     1      44.340   2.097   9.518  0.00  0.00    +0.000 NA
ATOM     31  C   UNL     1      45.027   2.410   8.471  0.00  0.00    +0.000 A 
ATOM     32  N   UNL     1      45.662   3.610   8.276  0.00  0.00    +0.000 N 
ATOM     33  C   UNL     1      45.608   4.638   9.185  0.00  0.00    +0.000 A 
ATOM     34  O   UNL     1      46.151   5.712   8.960  0.00  0.00    +0.000 OA
ATOM     35  C   UNL     1      44.836   4.343  10.378  0.00  0.00    +0.000 A 
ATOM     36  H   UNL     1      46.183   3.791   7.431  0.00  0.00    +0.000 HD
ENDBRANCH  23  26
ENDBRANCH  21  22
ENDBRANCH   4  21
TORSDOF 10
ENDMDL
MODEL 3
REMARK VINA RESULT:    -6.389      1.891      2.608
REMARK INTER + INTRA:         -11.013
REMARK INTER:                  -9.976
REMARK INTRA:                  -1.037
REMARK UNBOUND:                -0.889
REMARK  Name = 
REMARK  11 active torsions:
REMARK  status: ('A' for Active; 'I' for Inactive)
REMARK    1  A    between atoms: C_1  and  O_2
REMARK    2  A    between atoms: O_2  and  C_3
REMARK    3  A    between atoms: C_3  and  C_4
REMARK    4  A    between atoms: C_4  and  N_5
REMARK    5  A    between atoms: N_5  and  C_6
REMARK    6  A    between atoms: C_6  and  C_7
REMARK    7  A    between atoms: C_10  and  C_11
REMARK    8  A    between atoms: C_11  and  N_12
REMARK    9  A    between atoms: C_15  and  C_16
REMARK   10  A    between atoms: C_16  and  N_17
REMARK   11  A    between atoms: C_18  and  C_20
REMARK                            x       y       z     vdW  Elec       q    Type
REMARK                         _______ _______ _______ _____ _____    ______ ____
ROOT
ATOM      1  N   UNL     1      47.894   8.091  12.070  0.00  0.00    +0.000 NA
ATOM      2  C   UNL     1      48.292   9.506  12.174  0.00  0.00    +0.000 C 
ATOM      3  C   UNL     1      49.645   9.787  11.514  0.00  0.00    +0.000 C 
ATOM      4  C   UNL     1      50.764   8.876  12.036  0.00  0.00    +0.000 C 
ATOM      5  C   UNL     1      50.300   7.423  11.881  0.00  0.00    +0.000 C 
ATOM      6  C   UNL     1      48.939   7.168  12.534  0.00  0.00    +0.000 C 
ENDROOT
BRANCH   1   7
ATOM      7  C   UNL     1      46.639   7.848  12.825  0.00  0.00    +0.000 C 
BRANCH   7  11
ATOM      8  C   UNL     1      44.625   4.304  11.522  0.00  0.00    +0.000 A 
ATOM      9  C   UNL     1      44.874   4.504  12.885  0.00  0.00    +0.000 A 
ATOM     10  C   UNL     1      45.493   5.668  13.319  0.00  0.00    +0.000 A 
ATOM     11  C   UNL     1      45.873   6.614  12.374  0.00  0.00    +0.000 A 
ATOM     12  N   UNL     1      45.634   6.457  11.043  0.00  0.00    +0.000 NA
ATOM     13  C   UNL     1      45.016   5.315  10.651  0.00  0.00    +0.000 A 
BRANCH   8  14
ATOM     14  C   UNL     1      43.991   3.032  11.038  0.00  0.00    +0.000 C 
BRANCH  14  15
ATOM     15  N   UNL     1      44.903   2.301  10.159  0.00  0.00    +0.000 NA
ATOM     16  H   UNL     1      45.851   2.638  10.305  0.00  0.00    +0.000 HD
BRANCH  15  17
ATOM     17  C   UNL     1      44.548   2.489   8.754  0.00  0.00    +0.000 C 
BRANCH  17  18
ATOM     18  C   UNL     1      45.802   2.785   7.928  0.00  0.00    +0.000 C 
BRANCH  18  20
ATOM     19  C   UNL     1      47.728   1.795   7.020  0.00  0.00    +0.000 C 
ATOM     20  O   UNL     1      46.587   1.597   7.845  0.00  0.00    +0.000 OA
ENDBRANCH  18  20
ENDBRANCH  17  18
ENDBRANCH  15  17
ENDBRANCH  14  15
ENDBRANCH   8  14
ENDBRANCH   7  11
ENDBRANCH   1   7
BRANCH   4  21
ATOM     21  C   UNL     1      51.180   9.163  13.488  0.00  0.00    +0.000 C 
BRANCH  21  22
ATOM     22  N   UNL     1      51.121   7.990  14.328  0.00  0.00    +0.000 N 
ATOM     23  C   UNL     1      51.491   7.987  15.650  0.00  0.00    +0.000 C 
ATOM     24  O   UNL     1      51.864   8.997  16.239  0.00  0.00    +0.000 OA
ATOM     25  H   UNL     1      51.001   7.104  13.850  0.00  0.00    +0.000 HD
BRANCH  23  26
ATOM     26  C   UNL     1      51.348   6.700  16.339  0.00  0.00    +0.000 A 
ATOM     27  C   UNL     1      52.471   6.000  16.758  0.00  0.00    +0.000 A 
ATOM     28  S   UNL     1      52.098   4.571  17.615  0.00  0.00    +0.000 S 
ATOM     29  C   UNL     1      50.426   4.815  17.404  0.00  0.00    +0.000 A 
ATOM     30  N   UNL     1      49.518   3.930  17.905  0.00  0.00    +0.000 NA
ATOM     31  C   UNL     1      48.289   4.233  17.649  0.00  0.00    +0.000 A 
ATOM     32  N   UNL     1      47.882   5.329  16.931  0.00  0.00    +0.000 N 
ATOM     33  C   UNL     1      48.759   6.255  16.422  0.00  0.00    +0.000 A 
ATOM     34  O   UNL     1      48.359   7.245  15.823  0.00  0.00    +0.000 OA
ATOM     35  C   UNL     1      50.157   5.968  16.693  0.00  0.00    +0.000 A 
ATOM     36  H   UNL     1      46.902   5.508  16.769  0.00  0.00    +0.000 HD
ENDBRANCH  23  26
ENDBRANCH  21  22
ENDBRANCH   4  21
TORSDOF 10
ENDMDL
MODEL 4
REMARK VINA RESULT:    -6.001      2.101      3.705
REMARK INTER + INTRA:         -10.398
REMARK INTER:                  -9.430
REMARK INTRA:                  -0.967
REMARK UNBOUND:                -0.889
REMARK  Name = 
REMARK  11 active torsions:
REMARK  status: ('A' for Active; 'I' for Inactive)
REMARK    1  A    between atoms: C_1  and  O_2
REMARK    2  A    between atoms: O_2  and  C_3
REMARK    3  A    between atoms: C_3  and  C_4
REMARK    4  A    between atoms: C_4  and  N_5
REMARK    5  A    between atoms: N_5  and  C_6
REMARK    6  A    between atoms: C_6  and  C_7
REMARK    7  A    between atoms: C_10  and  C_11
REMARK    8  A    between atoms: C_11  and  N_12
REMARK    9  A    between atoms: C_15  and  C_16
REMARK   10  A    between atoms: C_16  and  N_17
REMARK   11  A    between atoms: C_18  and  C_20
REMARK                            x       y       z     vdW  Elec       q    Type
REMARK                         _______ _______ _______ _____ _____    ______ ____
ROOT
ATOM      1  N   UNL     1      49.480   8.319  15.290  0.00  0.00    +0.000 NA
ATOM      2  C   UNL     1      48.277   8.174  16.129  0.00  0.00    +0.000 C 
ATOM      3  C   UNL     1      48.043   9.385  17.037  0.00  0.00    +0.000 C 
ATOM      4  C   UNL     1      49.263   9.725  17.903  0.00  0.00    +0.000 C 
ATOM      5  C   UNL     1      50.472   9.885  16.974  0.00  0.00    +0.000 C 
ATOM      6  C   UNL     1      50.678   8.670  16.065  0.00  0.00    +0.000 C 
ENDROOT
BRANCH   1   7
ATOM      7  C   UNL     1      49.729   7.076  14.519  0.00  0.00    +0.000 C 
BRANCH   7  11
ATOM      8  C   UNL     1      46.316   5.897  12.222  0.00  0.00    +0.000 A 
ATOM      9  C   UNL     1      47.060   7.020  11.840  0.00  0.00    +0.000 A 
ATOM     10  C   UNL     1      48.190   7.386  12.557  0.00  0.00    +0.000 A 
ATOM     11  C   UNL     1      48.551   6.629  13.667  0.00  0.00    +0.000 A 
ATOM     12  N   UNL     1      47.857   5.525  14.057  0.00  0.00    +0.000 NA
ATOM     13  C   UNL     1      46.765   5.185  13.329  0.00  0.00    +0.000 A 
BRANCH   8  14
ATOM     14  C   UNL     1      45.069   5.514  11.476  0.00  0.00    +0.000 C 
BRANCH  14  15
ATOM     15  N   UNL     1      45.251   5.695  10.037  0.00  0.00    +0.000 NA
ATOM     16  H   UNL     1      44.571   6.370   9.695  0.00  0.00    +0.000 HD
BRANCH  15  17
ATOM     17  C   UNL     1      45.067   4.436   9.317  0.00  0.00    +0.000 C 
BRANCH  17  18
ATOM     18  C   UNL     1      44.290   3.443  10.184  0.00  0.00    +0.000 C 
BRANCH  18  20
ATOM     19  C   UNL     1      45.497   1.979   8.800  0.00  0.00    +0.000 C 
ATOM     20  O   UNL     1      44.299   2.170   9.542  0.00  0.00    +0.000 OA
ENDBRANCH  18  20
ENDBRANCH  17  18
ENDBRANCH  15  17
ENDBRANCH  14  15
ENDBRANCH   8  14
ENDBRANCH   7  11
ENDBRANCH   1   7
BRANCH   4  21
ATOM     21  C   UNL     1      49.556   8.695  19.007  0.00  0.00    +0.000 C 
BRANCH  21  22
ATOM     22  N   UNL     1      49.856   7.384  18.481  0.00  0.00    +0.000 N 
ATOM     23  C   UNL     1      50.021   6.272  19.268  0.00  0.00    +0.000 C 
ATOM     24  O   UNL     1      49.884   6.295  20.488  0.00  0.00    +0.000 OA
ATOM     25  H   UNL     1      50.159   7.349  17.514  0.00  0.00    +0.000 HD
BRANCH  23  26
ATOM     26  C   UNL     1      50.309   5.028  18.547  0.00  0.00    +0.000 A 
ATOM     27  C   UNL     1      51.585   4.480  18.574  0.00  0.00    +0.000 A 
ATOM     28  S   UNL     1      51.700   2.990  17.748  0.00  0.00    +0.000 S 
ATOM     29  C   UNL     1      50.064   3.059  17.282  0.00  0.00    +0.000 A 
ATOM     30  N   UNL     1      49.505   2.068  16.531  0.00  0.00    +0.000 NA
ATOM     31  C   UNL     1      48.264   2.266  16.236  0.00  0.00    +0.000 A 
ATOM     32  N   UNL     1      47.531   3.364  16.609  0.00  0.00    +0.000 N 
ATOM     33  C   UNL     1      48.047   4.378  17.377  0.00  0.00    +0.000 A 
ATOM     34  O   UNL     1      47.353   5.323  17.729  0.00  0.00    +0.000 OA
ATOM     35  C   UNL     1      49.439   4.199  17.749  0.00  0.00    +0.000 A 
ATOM     36  H   UNL     1      46.562   3.455  16.345  0.00  0.00    +0.000 HD
ENDBRANCH  23  26
ENDBRANCH  21  22
ENDBRANCH   4  21
TORSDOF 10
ENDMDL
MODEL 5
REMARK VINA RESULT:    -5.948      1.678      2.058
REMARK INTER + INTRA:         -10.314
REMARK INTER:                  -9.826
REMARK INTRA:                  -0.488
REMARK UNBOUND:                -0.889
REMARK  Name = 
REMARK  11 active torsions:
REMARK  status: ('A' for Active; 'I' for Inactive)
REMARK    1  A    between atoms: C_1  and  O_2
REMARK    2  A    between atoms: O_2  and  C_3
REMARK    3  A    between atoms: C_3  and  C_4
REMARK    4  A    between atoms: C_4  and  N_5
REMARK    5  A    between atoms: N_5  and  C_6
REMARK    6  A    between atoms: C_6  and  C_7
REMARK    7  A    between atoms: C_10  and  C_11
REMARK    8  A    between atoms: C_11  and  N_12
REMARK    9  A    between atoms: C_15  and  C_16
REMARK   10  A    between atoms: C_16  and  N_17
REMARK   11  A    between atoms: C_18  and  C_20
REMARK                            x       y       z     vdW  Elec       q    Type
REMARK                         _______ _______ _______ _____ _____    ______ ____
ROOT
ATOM      1  N   UNL     1      47.716   7.297  13.608  0.00  0.00    +0.000 NA
ATOM      2  C   UNL     1      47.560   8.379  14.596  0.00  0.00    +0.000 C 
ATOM      3  C   UNL     1      48.598   9.491  14.422  0.00  0.00    +0.000 C 
ATOM      4  C   UNL     1      50.040   8.967  14.424  0.00  0.00    +0.000 C 
ATOM      5  C   UNL     1      50.143   7.864  13.365  0.00  0.00    +0.000 C 
ATOM      6  C   UNL     1      49.087   6.771  13.549  0.00  0.00    +0.000 C 
ENDROOT
BRANCH   1   7
ATOM      7  C   UNL     1      46.767   6.192  13.893  0.00  0.00    +0.000 C 
BRANCH   7  11
ATOM      8  C   UNL     1      44.974   4.544  10.375  0.00  0.00    +0.000 A 
ATOM      9  C   UNL     1      44.859   3.871  11.597  0.00  0.00    +0.000 A 
ATOM     10  C   UNL     1      45.405   4.418  12.750  0.00  0.00    +0.000 A 
ATOM     11  C   UNL     1      46.080   5.630  12.659  0.00  0.00    +0.000 A 
ATOM     12  N   UNL     1      46.198   6.316  11.489  0.00  0.00    +0.000 NA
ATOM     13  C   UNL     1      45.644   5.763  10.382  0.00  0.00    +0.000 A 
BRANCH   8  14
ATOM     14  C   UNL     1      44.421   3.943   9.114  0.00  0.00    +0.000 C 
BRANCH  14  15
ATOM     15  N   UNL     1      44.610   2.494   9.105  0.00  0.00    +0.000 NA
ATOM     16  H   UNL     1      44.703   2.162  10.062  0.00  0.00    +0.000 HD
BRANCH  15  17
ATOM     17  C   UNL     1      45.811   2.121   8.360  0.00  0.00    +0.000 C 
BRANCH  17  18
ATOM     18  C   UNL     1      46.138   3.192   7.318  0.00  0.00    +0.000 C 
BRANCH  18  20
ATOM     19  C   UNL     1      48.069   2.132   6.505  0.00  0.00    +0.000 C 
ATOM     20  O   UNL     1      46.752   2.566   6.193  0.00  0.00    +0.000 OA
ENDBRANCH  18  20
ENDBRANCH  17  18
ENDBRANCH  15  17
ENDBRANCH  14  15
ENDBRANCH   8  14
ENDBRANCH   7  11
ENDBRANCH   1   7
BRANCH   4  21
ATOM     21  C   UNL     1      50.518   8.454  15.793  0.00  0.00    +0.000 C 
BRANCH  21  22
ATOM     22  N   UNL     1      50.248   7.049  15.987  0.00  0.00    +0.000 N 
ATOM     23  C   UNL     1      50.035   6.483  17.219  0.00  0.00    +0.000 C 
ATOM     24  O   UNL     1      50.014   7.137  18.258  0.00  0.00    +0.000 OA
ATOM     25  H   UNL     1      50.438   6.444  15.196  0.00  0.00    +0.000 HD
BRANCH  23  26
ATOM     26  C   UNL     1      49.765   5.041  17.210  0.00  0.00    +0.000 A 
ATOM     27  C   UNL     1      48.478   4.570  16.985  0.00  0.00    +0.000 A 
ATOM     28  S   UNL     1      48.381   2.866  16.927  0.00  0.00    +0.000 S 
ATOM     29  C   UNL     1      50.044   2.704  17.255  0.00  0.00    +0.000 A 
ATOM     30  N   UNL     1      50.626   1.476  17.347  0.00  0.00    +0.000 NA
ATOM     31  C   UNL     1      51.888   1.508  17.621  0.00  0.00    +0.000 A 
ATOM     32  N   UNL     1      52.619   2.651  17.824  0.00  0.00    +0.000 N 
ATOM     33  C   UNL     1      52.080   3.909  17.726  0.00  0.00    +0.000 A 
ATOM     34  O   UNL     1      52.772   4.908  17.870  0.00  0.00    +0.000 OA
ATOM     35  C   UNL     1      50.664   3.930  17.406  0.00  0.00    +0.000 A 
ATOM     36  H   UNL     1      53.605   2.604  18.034  0.00  0.00    +0.000 HD
ENDBRANCH  23  26
ENDBRANCH  21  22
ENDBRANCH   4  21
TORSDOF 10
ENDMDL
MODEL 6
REMARK VINA RESULT:    -5.894      3.235      9.087
REMARK INTER + INTRA:         -10.228
REMARK INTER:                  -9.435
REMARK INTRA:                  -0.793
REMARK UNBOUND:                -0.889
REMARK  Name = 
REMARK  11 active torsions:
REMARK  status: ('A' for Active; 'I' for Inactive)
REMARK    1  A    between atoms: C_1  and  O_2
REMARK    2  A    between atoms: O_2  and  C_3
REMARK    3  A    between atoms: C_3  and  C_4
REMARK    4  A    between atoms: C_4  and  N_5
REMARK    5  A    between atoms: N_5  and  C_6
REMARK    6  A    between atoms: C_6  and  C_7
REMARK    7  A    between atoms: C_10  and  C_11
REMARK    8  A    between atoms: C_11  and  N_12
REMARK    9  A    between atoms: C_15  and  C_16
REMARK   10  A    between atoms: C_16  and  N_17
REMARK   11  A    between atoms: C_18  and  C_20
REMARK                            x       y       z     vdW  Elec       q    Type
REMARK                         _______ _______ _______ _____ _____    ______ ____
ROOT
ATOM      1  N   UNL     1      49.082   7.253  14.928  0.00  0.00    +0.000 NA
ATOM      2  C   UNL     1      48.652   6.359  13.839  0.00  0.00    +0.000 C 
ATOM      3  C   UNL     1      48.950   6.936  12.452  0.00  0.00    +0.000 C 
ATOM      4  C   UNL     1      48.369   8.342  12.253  0.00  0.00    +0.000 C 
ATOM      5  C   UNL     1      48.869   9.226  13.401  0.00  0.00    +0.000 C 
ATOM      6  C   UNL     1      48.574   8.623  14.777  0.00  0.00    +0.000 C 
ENDROOT
BRANCH   1   7
ATOM      7  C   UNL     1      48.665   6.706  16.244  0.00  0.00    +0.000 C 
BRANCH   7  11
ATOM      8  C   UNL     1      51.733   4.447  18.193  0.00  0.00    +0.000 A 
ATOM      9  C   UNL     1      52.078   5.439  17.266  0.00  0.00    +0.000 A 
ATOM     10  C   UNL     1      51.091   6.201  16.659  0.00  0.00    +0.000 A 
ATOM     11  C   UNL     1      49.761   5.946  16.975  0.00  0.00    +0.000 A 
ATOM     12  N   UNL     1      49.393   4.998  17.880  0.00  0.00    +0.000 NA
ATOM     13  C   UNL     1      50.380   4.278  18.467  0.00  0.00    +0.000 A 
BRANCH   8  14
ATOM     14  C   UNL     1      52.791   3.590  18.828  0.00  0.00    +0.000 C 
BRANCH  14  15
ATOM     15  N   UNL     1      53.385   2.688  17.843  0.00  0.00    +0.000 NA
ATOM     16  H   UNL     1      53.407   3.148  16.936  0.00  0.00    +0.000 HD
BRANCH  15  17
ATOM     17  C   UNL     1      52.614   1.452  17.724  0.00  0.00    +0.000 C 
BRANCH  17  18
ATOM     18  C   UNL     1      53.526   0.240  17.928  0.00  0.00    +0.000 C 
BRANCH  18  20
ATOM     19  C   UNL     1      54.783  -0.809  16.245  0.00  0.00    +0.000 C 
ATOM     20  O   UNL     1      54.644   0.354  17.051  0.00  0.00    +0.000 OA
ENDBRANCH  18  20
ENDBRANCH  17  18
ENDBRANCH  15  17
ENDBRANCH  14  15
ENDBRANCH   8  14
ENDBRANCH   7  11
ENDBRANCH   1   7
BRANCH   4  21
ATOM     21  C   UNL     1      46.835   8.379  12.164  0.00  0.00    +0.000 C 
BRANCH  21  22
ATOM     22  N   UNL     1      46.253   7.067  12.011  0.00  0.00    +0.000 N 
ATOM     23  C   UNL     1      44.980   6.853  11.542  0.00  0.00    +0.000 C 
ATOM     24  O   UNL     1      44.246   7.764  11.173  0.00  0.00    +0.000 OA
ATOM     25  H   UNL     1      46.740   6.305  12.471  0.00  0.00    +0.000 HD
BRANCH  23  26
ATOM     26  C   UNL     1      44.574   5.447  11.447  0.00  0.00    +0.000 A 
ATOM     27  C   UNL     1      43.873   4.847  12.484  0.00  0.00    +0.000 A 
ATOM     28  S   UNL     1      43.415   3.236  12.151  0.00  0.00    +0.000 S 
ATOM     29  C   UNL     1      44.187   3.272  10.634  0.00  0.00    +0.000 A 
ATOM     30  N   UNL     1      44.179   2.183   9.815  0.00  0.00    +0.000 NA
ATOM     31  C   UNL     1      44.822   2.350   8.708  0.00  0.00    +0.000 A 
ATOM     32  N   UNL     1      45.482   3.497   8.346  0.00  0.00    +0.000 N 
ATOM     33  C   UNL     1      45.504   4.623   9.131  0.00  0.00    +0.000 A 
ATOM     34  O   UNL     1      46.066   5.644   8.758  0.00  0.00    +0.000 OA
ATOM     35  C   UNL     1      44.783   4.494  10.385  0.00  0.00    +0.000 A 
ATOM     36  H   UNL     1      45.965   3.561   7.463  0.00  0.00    +0.000 HD
ENDBRANCH  23  26
ENDBRANCH  21  22
ENDBRANCH   4  21
TORSDOF 10
ENDMDL
MODEL 7
REMARK VINA RESULT:    -5.880      2.818      4.886
REMARK INTER + INTRA:         -10.206
REMARK INTER:                  -9.444
REMARK INTRA:                  -0.762
REMARK UNBOUND:                -0.889
REMARK  Name = 
REMARK  11 active torsions:
REMARK  status: ('A' for Active; 'I' for Inactive)
REMARK    1  A    between atoms: C_1  and  O_2
REMARK    2  A    between atoms: O_2  and  C_3
REMARK    3  A    between atoms: C_3  and  C_4
REMARK    4  A    between atoms: C_4  and  N_5
REMARK    5  A    between atoms: N_5  and  C_6
REMARK    6  A    between atoms: C_6  and  C_7
REMARK    7  A    between atoms: C_10  and  C_11
REMARK    8  A    between atoms: C_11  and  N_12
REMARK    9  A    between atoms: C_15  and  C_16
REMARK   10  A    between atoms: C_16  and  N_17
REMARK   11  A    between atoms: C_18  and  C_20
REMARK                            x       y       z     vdW  Elec       q    Type
REMARK                         _______ _______ _______ _____ _____    ______ ____
ROOT
ATOM      1  N   UNL     1      48.065   4.432  15.836  0.00  0.00    +0.000 NA
ATOM      2  C   UNL     1      49.302   4.874  16.503  0.00  0.00    +0.000 C 
ATOM      3  C   UNL     1      49.846   3.833  17.486  0.00  0.00    +0.000 C 
ATOM      4  C   UNL     1      48.805   3.392  18.524  0.00  0.00    +0.000 C 
ATOM      5  C   UNL     1      47.555   2.924  17.769  0.00  0.00    +0.000 C 
ATOM      6  C   UNL     1      47.038   3.974  16.781  0.00  0.00    +0.000 C 
ENDROOT
BRANCH   1   7
ATOM      7  C   UNL     1      47.517   5.519  14.986  0.00  0.00    +0.000 C 
BRANCH   7  11
ATOM      8  C   UNL     1      45.129   4.135  11.715  0.00  0.00    +0.000 A 
ATOM      9  C   UNL     1      45.403   5.502  11.850  0.00  0.00    +0.000 A 
ATOM     10  C   UNL     1      46.209   5.954  12.887  0.00  0.00    +0.000 A 
ATOM     11  C   UNL     1      46.716   5.027  13.791  0.00  0.00    +0.000 A 
ATOM     12  N   UNL     1      46.478   3.692  13.681  0.00  0.00    +0.000 NA
ATOM     13  C   UNL     1      45.699   3.278  12.651  0.00  0.00    +0.000 A 
BRANCH   8  14
ATOM     14  C   UNL     1      44.228   3.639  10.621  0.00  0.00    +0.000 C 
BRANCH  14  15
ATOM     15  N   UNL     1      44.633   2.305  10.182  0.00  0.00    +0.000 NA
ATOM     16  H   UNL     1      45.279   1.909  10.862  0.00  0.00    +0.000 HD
BRANCH  15  17
ATOM     17  C   UNL     1      45.295   2.354   8.880  0.00  0.00    +0.000 C 
BRANCH  17  18
ATOM     18  C   UNL     1      44.830   3.584   8.098  0.00  0.00    +0.000 C 
BRANCH  18  20
ATOM     19  C   UNL     1      46.650   3.350   6.632  0.00  0.00    +0.000 C 
ATOM     20  O   UNL     1      45.969   4.222   7.526  0.00  0.00    +0.000 OA
ENDBRANCH  18  20
ENDBRANCH  17  18
ENDBRANCH  15  17
ENDBRANCH  14  15
ENDBRANCH   8  14
ENDBRANCH   7  11
ENDBRANCH   1   7
BRANCH   4  21
ATOM     21  C   UNL     1      48.446   4.478  19.552  0.00  0.00    +0.000 C 
BRANCH  21  22
ATOM     22  N   UNL     1      49.283   5.649  19.443  0.00  0.00    +0.000 N 
ATOM     23  C   UNL     1      48.805   6.932  19.532  0.00  0.00    +0.000 C 
ATOM     24  O   UNL     1      47.626   7.189  19.756  0.00  0.00    +0.000 OA
ATOM     25  H   UNL     1      50.217   5.498  19.077  0.00  0.00    +0.000 HD
BRANCH  23  26
ATOM     26  C   UNL     1      49.815   7.989  19.408  0.00  0.00    +0.000 A 
ATOM     27  C   UNL     1      50.718   8.220  20.437  0.00  0.00    +0.000 A 
ATOM     28  S   UNL     1      51.867   9.430  20.070  0.00  0.00    +0.000 S 
ATOM     29  C   UNL     1      51.158   9.720  18.550  0.00  0.00    +0.000 A 
ATOM     30  N   UNL     1      51.665  10.664  17.707  0.00  0.00    +0.000 NA
ATOM     31  C   UNL     1      51.012  10.788  16.600  0.00  0.00    +0.000 A 
ATOM     32  N   UNL     1      49.895  10.068  16.260  0.00  0.00    +0.000 N 
ATOM     33  C   UNL     1      49.359   9.097  17.069  0.00  0.00    +0.000 A 
ATOM     34  O   UNL     1      48.387   8.443  16.715  0.00  0.00    +0.000 OA
ATOM     35  C   UNL     1      50.064   8.907  18.324  0.00  0.00    +0.000 A 
ATOM     36  H   UNL     1      49.433  10.214  15.375  0.00  0.00    +0.000 HD
ENDBRANCH  23  26
ENDBRANCH  21  22
ENDBRANCH   4  21
TORSDOF 10
ENDMDL
MODEL 8
REMARK VINA RESULT:    -5.757      5.024      6.712
REMARK INTER + INTRA:         -10.012
REMARK INTER:                  -8.721
REMARK INTRA:                  -1.291
REMARK UNBOUND:                -0.889
REMARK  Name = 
REMARK  11 active torsions:
REMARK  status: ('A' for Active; 'I' for Inactive)
REMARK    1  A    between atoms: C_1  and  O_2
REMARK    2  A    between atoms: O_2  and  C_3
REMARK    3  A    between atoms: C_3  and  C_4
REMARK    4  A    between atoms: C_4  and  N_5
REMARK    5  A    between atoms: N_5  and  C_6
REMARK    6  A    between atoms: C_6  and  C_7
REMARK    7  A    between atoms: C_10  and  C_11
REMARK    8  A    between atoms: C_11  and  N_12
REMARK    9  A    between atoms: C_15  and  C_16
REMARK   10  A    between atoms: C_16  and  N_17
REMARK   11  A    between atoms: C_18  and  C_20
REMARK                            x       y       z     vdW  Elec       q    Type
REMARK                         _______ _______ _______ _____ _____    ______ ____
ROOT
ATOM      1  N   UNL     1      47.583   7.762  13.337  0.00  0.00    +0.000 NA
ATOM      2  C   UNL     1      48.330   7.475  12.100  0.00  0.00    +0.000 C 
ATOM      3  C   UNL     1      49.845   7.445  12.320  0.00  0.00    +0.000 C 
ATOM      4  C   UNL     1      50.377   8.723  12.983  0.00  0.00    +0.000 C 
ATOM      5  C   UNL     1      49.578   8.954  14.270  0.00  0.00    +0.000 C 
ATOM      6  C   UNL     1      48.066   8.965  14.029  0.00  0.00    +0.000 C 
ENDROOT
BRANCH   1   7
ATOM      7  C   UNL     1      46.133   7.898  13.048  0.00  0.00    +0.000 C 
BRANCH   7  11
ATOM      8  C   UNL     1      44.428   4.287  11.510  0.00  0.00    +0.000 A 
ATOM      9  C   UNL     1      45.129   4.267  12.722  0.00  0.00    +0.000 A 
ATOM     10  C   UNL     1      45.651   5.441  13.247  0.00  0.00    +0.000 A 
ATOM     11  C   UNL     1      45.482   6.623  12.535  0.00  0.00    +0.000 A 
ATOM     12  N   UNL     1      44.796   6.679  11.361  0.00  0.00    +0.000 NA
ATOM     13  C   UNL     1      44.285   5.519  10.881  0.00  0.00    +0.000 A 
BRANCH   8  14
ATOM     14  C   UNL     1      43.891   3.017  10.914  0.00  0.00    +0.000 C 
BRANCH  14  15
ATOM     15  N   UNL     1      43.905   3.084   9.454  0.00  0.00    +0.000 NA
ATOM     16  H   UNL     1      43.142   2.522   9.085  0.00  0.00    +0.000 HD
BRANCH  15  17
ATOM     17  C   UNL     1      45.165   2.578   8.913  0.00  0.00    +0.000 C 
BRANCH  17  18
ATOM     18  C   UNL     1      45.499   3.289   7.600  0.00  0.00    +0.000 C 
BRANCH  18  20
ATOM     19  C   UNL     1      47.539   2.584   6.677  0.00  0.00    +0.000 C 
ATOM     20  O   UNL     1      46.905   3.515   7.544  0.00  0.00    +0.000 OA
ENDBRANCH  18  20
ENDBRANCH  17  18
ENDBRANCH  15  17
ENDBRANCH  14  15
ENDBRANCH   8  14
ENDBRANCH   7  11
ENDBRANCH   1   7
BRANCH   4  21
ATOM     21  C   UNL     1      50.325   9.966  12.079  0.00  0.00    +0.000 C 
BRANCH  21  22
ATOM     22  N   UNL     1      50.930   9.742  10.787  0.00  0.00    +0.000 N 
ATOM     23  C   UNL     1      52.244  10.022  10.508  0.00  0.00    +0.000 C 
ATOM     24  O   UNL     1      53.027  10.448  11.351  0.00  0.00    +0.000 OA
ATOM     25  H   UNL     1      50.291   9.571  10.018  0.00  0.00    +0.000 HD
BRANCH  23  26
ATOM     26  C   UNL     1      52.675   9.713   9.140  0.00  0.00    +0.000 A 
ATOM     27  C   UNL     1      52.914  10.735   8.232  0.00  0.00    +0.000 A 
ATOM     28  S   UNL     1      53.490  10.180   6.723  0.00  0.00    +0.000 S 
ATOM     29  C   UNL     1      53.385   8.555   7.218  0.00  0.00    +0.000 A 
ATOM     30  N   UNL     1      53.734   7.540   6.377  0.00  0.00    +0.000 NA
ATOM     31  C   UNL     1      53.582   6.361   6.881  0.00  0.00    +0.000 A 
ATOM     32  N   UNL     1      53.104   6.099   8.140  0.00  0.00    +0.000 N 
ATOM     33  C   UNL     1      52.755   7.088   9.026  0.00  0.00    +0.000 A 
ATOM     34  O   UNL     1      52.373   6.820  10.157  0.00  0.00    +0.000 OA
ATOM     35  C   UNL     1      52.919   8.437   8.513  0.00  0.00    +0.000 A 
ATOM     36  H   UNL     1      53.012   5.151   8.473  0.00  0.00    +0.000 HD
ENDBRANCH  23  26
ENDBRANCH  21  22
ENDBRANCH   4  21
TORSDOF 10
ENDMDL
MODEL 9
REMARK VINA RESULT:    -5.729      3.248      5.005
REMARK INTER + INTRA:          -9.967
REMARK INTER:                  -8.694
REMARK INTRA:                  -1.273
REMARK UNBOUND:                -0.889
REMARK  Name = 
REMARK  11 active torsions:
REMARK  status: ('A' for Active; 'I' for Inactive)
REMARK    1  A    between atoms: C_1  and  O_2
REMARK    2  A    between atoms: O_2  and  C_3
REMARK    3  A    between atoms: C_3  and  C_4
REMARK    4  A    between atoms: C_4  and  N_5
REMARK    5  A    between atoms: N_5  and  C_6
REMARK    6  A    between atoms: C_6  and  C_7
REMARK    7  A    between atoms: C_10  and  C_11
REMARK    8  A    between atoms: C_11  and  N_12
REMARK    9  A    between atoms: C_15  and  C_16
REMARK   10  A    between atoms: C_16  and  N_17
REMARK   11  A    between atoms: C_18  and  C_20
REMARK                            x       y       z     vdW  Elec       q    Type
REMARK                         _______ _______ _______ _____ _____    ______ ____
ROOT
ATOM      1  N   UNL     1      49.466  10.421  12.740  0.00  0.00    +0.000 NA
ATOM      2  C   UNL     1      49.052  10.047  14.104  0.00  0.00    +0.000 C 
ATOM      3  C   UNL     1      50.196  10.152  15.116  0.00  0.00    +0.000 C 
ATOM      4  C   UNL     1      51.439   9.357  14.696  0.00  0.00    +0.000 C 
ATOM      5  C   UNL     1      51.831   9.805  13.284  0.00  0.00    +0.000 C 
ATOM      6  C   UNL     1      50.668   9.706  12.292  0.00  0.00    +0.000 C 
ENDROOT
BRANCH   1   7
ATOM      7  C   UNL     1      48.358  10.189  11.779  0.00  0.00    +0.000 C 
BRANCH   7  11
ATOM      8  C   UNL     1      45.817   6.844  12.598  0.00  0.00    +0.000 A 
ATOM      9  C   UNL     1      47.119   6.633  12.127  0.00  0.00    +0.000 A 
ATOM     10  C   UNL     1      47.961   7.711  11.896  0.00  0.00    +0.000 A 
ATOM     11  C   UNL     1      47.479   8.995  12.122  0.00  0.00    +0.000 A 
ATOM     12  N   UNL     1      46.224   9.234  12.591  0.00  0.00    +0.000 NA
ATOM     13  C   UNL     1      45.429   8.161  12.820  0.00  0.00    +0.000 A 
BRANCH   8  14
ATOM     14  C   UNL     1      44.884   5.687  12.815  0.00  0.00    +0.000 C 
BRANCH  14  15
ATOM     15  N   UNL     1      43.495   6.097  12.614  0.00  0.00    +0.000 NA
ATOM     16  H   UNL     1      43.092   6.366  13.509  0.00  0.00    +0.000 HD
BRANCH  15  17
ATOM     17  C   UNL     1      42.699   5.011  12.047  0.00  0.00    +0.000 C 
BRANCH  17  18
ATOM     18  C   UNL     1      43.408   3.672  12.259  0.00  0.00    +0.000 C 
BRANCH  18  20
ATOM     19  C   UNL     1      44.189   3.199  10.095  0.00  0.00    +0.000 C 
ATOM     20  O   UNL     1      43.231   2.870  11.093  0.00  0.00    +0.000 OA
ENDBRANCH  18  20
ENDBRANCH  17  18
ENDBRANCH  15  17
ENDBRANCH  14  15
ENDBRANCH   8  14
ENDBRANCH   7  11
ENDBRANCH   1   7
BRANCH   4  21
ATOM     21  C   UNL     1      51.255   7.831  14.752  0.00  0.00    +0.000 C 
BRANCH  21  22
ATOM     22  N   UNL     1      50.722   7.380  16.015  0.00  0.00    +0.000 N 
ATOM     23  C   UNL     1      49.574   6.636  16.129  0.00  0.00    +0.000 C 
ATOM     24  O   UNL     1      48.928   6.256  15.157  0.00  0.00    +0.000 OA
ATOM     25  H   UNL     1      51.106   7.818  16.845  0.00  0.00    +0.000 HD
BRANCH  23  26
ATOM     26  C   UNL     1      49.200   6.263  17.498  0.00  0.00    +0.000 A 
ATOM     27  C   UNL     1      49.505   5.000  17.989  0.00  0.00    +0.000 A 
ATOM     28  S   UNL     1      49.067   4.786  19.626  0.00  0.00    +0.000 S 
ATOM     29  C   UNL     1      48.407   6.353  19.712  0.00  0.00    +0.000 A 
ATOM     30  N   UNL     1      47.847   6.817  20.864  0.00  0.00    +0.000 NA
ATOM     31  C   UNL     1      47.369   8.014  20.774  0.00  0.00    +0.000 A 
ATOM     32  N   UNL     1      47.388   8.785  19.641  0.00  0.00    +0.000 N 
ATOM     33  C   UNL     1      47.955   8.366  18.463  0.00  0.00    +0.000 A 
ATOM     34  O   UNL     1      47.993   9.098  17.482  0.00  0.00    +0.000 OA
ATOM     35  C   UNL     1      48.520   7.030  18.512  0.00  0.00    +0.000 A 
ATOM     36  H   UNL     1      46.997   9.716  19.640  0.00  0.00    +0.000 HD
ENDBRANCH  23  26
ENDBRANCH  21  22
ENDBRANCH   4  21
TORSDOF 10
ENDMDL
