MODEL 1
REMARK VINA RESULT:    -8.238      0.000      0.000
REMARK INTER + INTRA:         -12.511
REMARK INTER:                 -11.609
REMARK INTRA:                  -0.902
REMARK UNBOUND:                -0.902
REMARK  Name = 
REMARK  8 active torsions:
REMARK  status: ('A' for Active; 'I' for Inactive)
REMARK    1  A    between atoms: N_1  and  C_2
REMARK    2  A    between atoms: C_2  and  C_3
REMARK    3  A    between atoms: C_2  and  C_19
REMARK    4  A    between atoms: C_3  and  C_4
REMARK    5  A    between atoms: C_7  and  C_8
REMARK    6  A    between atoms: C_8  and  O_9
REMARK    7  A    between atoms: C_8  and  C_10
REMARK    8  A    between atoms: C_10  and  N_11
REMARK                            x       y       z     vdW  Elec       q    Type
REMARK                         _______ _______ _______ _____ _____    ______ ____
ROOT
ATOM      1  C   UNL     1      46.769   4.646  13.800  0.00  0.00    +0.000 A 
ATOM      2  C   UNL     1      46.083   5.728  13.265  0.00  0.00    +0.000 A 
ATOM      3  C   UNL     1      45.089   5.498  12.318  0.00  0.00    +0.000 A 
ATOM      4  C   UNL     1      44.790   4.195  11.912  0.00  0.00    +0.000 A 
ATOM      5  C   UNL     1      45.481   3.173  12.551  0.00  0.00    +0.000 A 
ATOM      6  N   UNL     1      46.441   3.368  13.487  0.00  0.00    +0.000 NA
ENDROOT
BRANCH   1   7
ATOM      7  C   UNL     1      47.887   4.898  14.792  0.00  0.00    +0.000 C 
BRANCH   7   8
ATOM      8  C   UNL     1      47.540   4.727  16.288  0.00  0.00    +0.000 C 
BRANCH   8   9
ATOM      9  C   UNL     1      48.747   4.697  17.215  0.00  0.00    +0.000 A 
ATOM     10  C   UNL     1      49.095   5.696  18.114  0.00  0.00    +0.000 A 
ATOM     11  S   UNL     1      50.531   5.378  18.977  0.00  0.00    +0.000 S 
ATOM     12  C   UNL     1      50.743   3.889  18.185  0.00  0.00    +0.000 A 
ATOM     13  N   UNL     1      51.824   3.105  18.445  0.00  0.00    +0.000 NA
ATOM     14  C   UNL     1      51.852   2.005  17.770  0.00  0.00    +0.000 A 
ATOM     15  N   UNL     1      50.893   1.610  16.871  0.00  0.00    +0.000 N 
ATOM     16  C   UNL     1      49.762   2.352  16.604  0.00  0.00    +0.000 A 
ATOM     17  O   UNL     1      48.880   1.935  15.860  0.00  0.00    +0.000 OA
ATOM     18  C   UNL     1      49.712   3.624  17.300  0.00  0.00    +0.000 A 
ATOM     19  H   UNL     1      50.964   0.722  16.399  0.00  0.00    +0.000 HD
ENDBRANCH   8   9
BRANCH   8  20
ATOM     20  N   UNL     1      46.706   3.536  16.511  0.00  0.00    +0.000 NA
ATOM     21  H   UNL     1      47.159   2.924  17.185  0.00  0.00    +0.000 HD
ATOM     22  H   UNL     1      46.672   3.027  15.619  0.00  0.00    +0.000 HD
ENDBRANCH   8  20
ENDBRANCH   7   8
ENDBRANCH   1   7
BRANCH   4  23
ATOM     23  C   UNL     1      43.763   3.863  10.855  0.00  0.00    +0.000 C 
BRANCH  23  24
ATOM     24  O   UNL     1      43.436   5.055  10.125  0.00  0.00    +0.000 OA
ATOM     25  H   UNL     1      44.113   5.720  10.339  0.00  0.00    +0.000 HD
ENDBRANCH  23  24
BRANCH  23  26
ATOM     26  C   UNL     1      44.230   2.777   9.863  0.00  0.00    +0.000 C 
BRANCH  26  27
ATOM     27  N   UNL     1      45.026   3.348   8.773  0.00  0.00    +0.000 N 
ATOM     28  C   UNL     1      45.892   2.496   8.191  0.00  0.00    +0.000 A 
ATOM     29  N   UNL     1      46.007   1.202   8.374  0.00  0.00    +0.000 NA
ATOM     30  C   UNL     1      47.027   0.799   7.555  0.00  0.00    +0.000 A 
ATOM     31  C   UNL     1      47.534   1.867   6.851  0.00  0.00    +0.000 A 
ATOM     32  N   UNL     1      46.803   2.943   7.274  0.00  0.00    +0.000 N 
ATOM     33  H   UNL     1      45.328   4.301   8.973  0.00  0.00    +0.000 HD
ATOM     34  H   UNL     1      46.885   3.896   6.954  0.00  0.00    +0.000 HD
ENDBRANCH  26  27
ENDBRANCH  23  26
ENDBRANCH   4  23
TORSDOF 8
ENDMDL
MODEL 2
REMARK VINA RESULT:    -7.796      2.090      2.736
REMARK INTER + INTRA:         -11.889
REMARK INTER:                 -11.043
REMARK INTRA:                  -0.846
REMARK UNBOUND:                -0.902
REMARK  Name = 
REMARK  8 active torsions:
REMARK  status: ('A' for Active; 'I' for Inactive)
REMARK    1  A    between atoms: N_1  and  C_2
REMARK    2  A    between atoms: C_2  and  C_3
REMARK    3  A    between atoms: C_2  and  C_19
REMARK    4  A    between atoms: C_3  and  C_4
REMARK    5  A    between atoms: C_7  and  C_8
REMARK    6  A    between atoms: C_8  and  O_9
REMARK    7  A    between atoms: C_8  and  C_10
REMARK    8  A    between atoms: C_10  and  N_11
REMARK                            x       y       z     vdW  Elec       q    Type
REMARK                         _______ _______ _______ _____ _____    ______ ____
ROOT
ATOM      1  C   UNL     1      46.442   6.137  12.758  0.00  0.00    +0.000 A 
ATOM      2  C   UNL     1      46.144   6.220  11.405  0.00  0.00    +0.000 A 
ATOM      3  C   UNL     1      45.354   5.232  10.824  0.00  0.00    +0.000 A 
ATOM      4  C   UNL     1      44.870   4.172  11.597  0.00  0.00    +0.000 A 
ATOM      5  C   UNL     1      45.164   4.209  12.954  0.00  0.00    +0.000 A 
ATOM      6  N   UNL     1      45.917   5.167  13.547  0.00  0.00    +0.000 NA
ENDROOT
BRANCH   1   7
ATOM      7  C   UNL     1      47.346   7.183  13.380  0.00  0.00    +0.000 C 
BRANCH   7   8
ATOM      8  C   UNL     1      48.622   6.669  14.084  0.00  0.00    +0.000 C 
BRANCH   8   9
ATOM      9  C   UNL     1      48.752   7.094  15.541  0.00  0.00    +0.000 A 
ATOM     10  C   UNL     1      48.992   8.388  15.983  0.00  0.00    +0.000 A 
ATOM     11  S   UNL     1      49.127   8.525  17.677  0.00  0.00    +0.000 S 
ATOM     12  C   UNL     1      48.865   6.859  17.888  0.00  0.00    +0.000 A 
ATOM     13  N   UNL     1      48.884   6.298  19.127  0.00  0.00    +0.000 NA
ATOM     14  C   UNL     1      48.670   5.026  19.134  0.00  0.00    +0.000 A 
ATOM     15  N   UNL     1      48.423   4.265  18.018  0.00  0.00    +0.000 N 
ATOM     16  C   UNL     1      48.355   4.794  16.748  0.00  0.00    +0.000 A 
ATOM     17  O   UNL     1      48.049   4.105  15.779  0.00  0.00    +0.000 OA
ATOM     18  C   UNL     1      48.643   6.215  16.683  0.00  0.00    +0.000 A 
ATOM     19  H   UNL     1      48.235   3.278  18.100  0.00  0.00    +0.000 HD
ENDBRANCH   8   9
BRANCH   8  20
ATOM     20  N   UNL     1      49.833   7.047  13.341  0.00  0.00    +0.000 NA
ATOM     21  H   UNL     1      49.571   7.535  12.487  0.00  0.00    +0.000 HD
ATOM     22  H   UNL     1      50.292   6.173  13.059  0.00  0.00    +0.000 HD
ENDBRANCH   8  20
ENDBRANCH   7   8
ENDBRANCH   1   7
BRANCH   4  23
ATOM     23  C   UNL     1      44.049   3.035  11.035  0.00  0.00    +0.000 C 
BRANCH  23  24
ATOM     24  O   UNL     1      42.666   3.250  11.354  0.00  0.00    +0.000 OA
ATOM     25  H   UNL     1      42.473   4.189  11.186  0.00  0.00    +0.000 HD
ENDBRANCH  23  24
BRANCH  23  26
ATOM     26  C   UNL     1      44.192   2.869   9.507  0.00  0.00    +0.000 C 
BRANCH  26  27
ATOM     27  N   UNL     1      45.059   1.738   9.166  0.00  0.00    +0.000 N 
ATOM     28  C   UNL     1      46.019   2.007   8.259  0.00  0.00    +0.000 A 
ATOM     29  N   UNL     1      46.363   3.170   7.759  0.00  0.00    +0.000 NA
ATOM     30  C   UNL     1      47.383   2.912   6.883  0.00  0.00    +0.000 A 
ATOM     31  C   UNL     1      47.672   1.567   6.859  0.00  0.00    +0.000 A 
ATOM     32  N   UNL     1      46.788   1.004   7.737  0.00  0.00    +0.000 N 
ATOM     33  H   UNL     1      44.542   0.862   9.095  0.00  0.00    +0.000 HD
ATOM     34  H   UNL     1      46.722   0.029   7.991  0.00  0.00    +0.000 HD
ENDBRANCH  26  27
ENDBRANCH  23  26
ENDBRANCH   4  23
TORSDOF 8
ENDMDL
MODEL 3
REMARK VINA RESULT:    -7.324      3.202      3.728
REMARK INTER + INTRA:         -11.222
REMARK INTER:                 -10.060
REMARK INTRA:                  -1.163
REMARK UNBOUND:                -0.902
REMARK  Name = 
REMARK  8 active torsions:
REMARK  status: ('A' for Active; 'I' for Inactive)
REMARK    1  A    between atoms: N_1  and  C_2
REMARK    2  A    between atoms: C_2  and  C_3
REMARK    3  A    between atoms: C_2  and  C_19
REMARK    4  A    between atoms: C_3  and  C_4
REMARK    5  A    between atoms: C_7  and  C_8
REMARK    6  A    between atoms: C_8  and  O_9
REMARK    7  A    between atoms: C_8  and  C_10
REMARK    8  A    between atoms: C_10  and  N_11
REMARK                            x       y       z     vdW  Elec       q    Type
REMARK                         _______ _______ _______ _____ _____    ______ ____
ROOT
ATOM      1  C   UNL     1      47.168   6.797  13.133  0.00  0.00    +0.000 A 
ATOM      2  C   UNL     1      47.296   5.431  13.347  0.00  0.00    +0.000 A 
ATOM      3  C   UNL     1      46.151   4.639  13.372  0.00  0.00    +0.000 A 
ATOM      4  C   UNL     1      44.892   5.217  13.185  0.00  0.00    +0.000 A 
ATOM      5  C   UNL     1      44.868   6.578  12.910  0.00  0.00    +0.000 A 
ATOM      6  N   UNL     1      45.967   7.367  12.865  0.00  0.00    +0.000 NA
ENDROOT
BRANCH   1   7
ATOM      7  C   UNL     1      48.409   7.667  13.157  0.00  0.00    +0.000 C 
BRANCH   7   8
ATOM      8  C   UNL     1      48.771   8.323  14.508  0.00  0.00    +0.000 C 
BRANCH   8   9
ATOM      9  C   UNL     1      49.523   7.412  15.468  0.00  0.00    +0.000 A 
ATOM     10  C   UNL     1      48.944   6.641  16.467  0.00  0.00    +0.000 A 
ATOM     11  S   UNL     1      50.068   5.762  17.401  0.00  0.00    +0.000 S 
ATOM     12  C   UNL     1      51.376   6.376  16.504  0.00  0.00    +0.000 A 
ATOM     13  N   UNL     1      52.657   6.038  16.813  0.00  0.00    +0.000 NA
ATOM     14  C   UNL     1      53.544   6.578  16.048  0.00  0.00    +0.000 A 
ATOM     15  N   UNL     1      53.269   7.414  14.994  0.00  0.00    +0.000 N 
ATOM     16  C   UNL     1      51.987   7.753  14.619  0.00  0.00    +0.000 A 
ATOM     17  O   UNL     1      51.767   8.434  13.622  0.00  0.00    +0.000 OA
ATOM     18  C   UNL     1      50.955   7.212  15.485  0.00  0.00    +0.000 A 
ATOM     19  H   UNL     1      54.012   7.778  14.419  0.00  0.00    +0.000 HD
ENDBRANCH   8   9
BRANCH   8  20
ATOM     20  N   UNL     1      47.580   8.876  15.171  0.00  0.00    +0.000 NA
ATOM     21  H   UNL     1      47.264   8.235  15.895  0.00  0.00    +0.000 HD
ATOM     22  H   UNL     1      46.838   8.916  14.461  0.00  0.00    +0.000 HD
ENDBRANCH   8  20
ENDBRANCH   7   8
ENDBRANCH   1   7
BRANCH   4  23
ATOM     23  C   UNL     1      43.599   4.438  13.247  0.00  0.00    +0.000 C 
BRANCH  23  24
ATOM     24  O   UNL     1      42.496   5.356  13.280  0.00  0.00    +0.000 OA
ATOM     25  H   UNL     1      42.858   6.248  13.135  0.00  0.00    +0.000 HD
ENDBRANCH  23  24
BRANCH  23  26
ATOM     26  C   UNL     1      43.409   3.467  12.062  0.00  0.00    +0.000 C 
BRANCH  26  27
ATOM     27  N   UNL     1      43.360   4.179  10.783  0.00  0.00    +0.000 N 
ATOM     28  C   UNL     1      44.125   3.653   9.806  0.00  0.00    +0.000 A 
ATOM     29  N   UNL     1      44.784   2.518   9.811  0.00  0.00    +0.000 NA
ATOM     30  C   UNL     1      45.402   2.441   8.592  0.00  0.00    +0.000 A 
ATOM     31  C   UNL     1      45.103   3.544   7.827  0.00  0.00    +0.000 A 
ATOM     32  N   UNL     1      44.293   4.311   8.619  0.00  0.00    +0.000 N 
ATOM     33  H   UNL     1      43.339   5.191  10.904  0.00  0.00    +0.000 HD
ATOM     34  H   UNL     1      43.862   5.190   8.376  0.00  0.00    +0.000 HD
ENDBRANCH  26  27
ENDBRANCH  23  26
ENDBRANCH   4  23
TORSDOF 8
ENDMDL
MODEL 4
REMARK VINA RESULT:    -7.253      2.138      2.954
REMARK INTER + INTRA:         -11.123
REMARK INTER:                 -10.172
REMARK INTRA:                  -0.951
REMARK UNBOUND:                -0.902
REMARK  Name = 
REMARK  8 active torsions:
REMARK  status: ('A' for Active; 'I' for Inactive)
REMARK    1  A    between atoms: N_1  and  C_2
REMARK    2  A    between atoms: C_2  and  C_3
REMARK    3  A    between atoms: C_2  and  C_19
REMARK    4  A    between atoms: C_3  and  C_4
REMARK    5  A    between atoms: C_7  and  C_8
REMARK    6  A    between atoms: C_8  and  O_9
REMARK    7  A    between atoms: C_8  and  C_10
REMARK    8  A    between atoms: C_10  and  N_11
REMARK                            x       y       z     vdW  Elec       q    Type
REMARK                         _______ _______ _______ _____ _____    ______ ____
ROOT
ATOM      1  C   UNL     1      46.824   4.080  14.250  0.00  0.00    +0.000 A 
ATOM      2  C   UNL     1      46.319   3.169  13.331  0.00  0.00    +0.000 A 
ATOM      3  C   UNL     1      45.491   3.627  12.310  0.00  0.00    +0.000 A 
ATOM      4  C   UNL     1      45.173   4.985  12.216  0.00  0.00    +0.000 A 
ATOM      5  C   UNL     1      45.779   5.829  13.138  0.00  0.00    +0.000 A 
ATOM      6  N   UNL     1      46.600   5.412  14.131  0.00  0.00    +0.000 NA
ENDROOT
BRANCH   1   7
ATOM      7  C   UNL     1      47.684   3.575  15.392  0.00  0.00    +0.000 C 
BRANCH   7   8
ATOM      8  C   UNL     1      47.322   4.078  16.807  0.00  0.00    +0.000 C 
BRANCH   8   9
ATOM      9  C   UNL     1      48.483   4.702  17.570  0.00  0.00    +0.000 A 
ATOM     10  C   UNL     1      49.824   4.589  17.227  0.00  0.00    +0.000 A 
ATOM     11  S   UNL     1      50.882   5.370  18.312  0.00  0.00    +0.000 S 
ATOM     12  C   UNL     1      49.588   5.895  19.283  0.00  0.00    +0.000 A 
ATOM     13  N   UNL     1      49.810   6.608  20.419  0.00  0.00    +0.000 NA
ATOM     14  C   UNL     1      48.735   6.938  21.053  0.00  0.00    +0.000 A 
ATOM     15  N   UNL     1      47.460   6.634  20.648  0.00  0.00    +0.000 N 
ATOM     16  C   UNL     1      47.184   5.947  19.485  0.00  0.00    +0.000 A 
ATOM     17  O   UNL     1      46.032   5.763  19.104  0.00  0.00    +0.000 OA
ATOM     18  C   UNL     1      48.365   5.508  18.764  0.00  0.00    +0.000 A 
ATOM     19  H   UNL     1      46.662   6.949  21.178  0.00  0.00    +0.000 HD
ENDBRANCH   8   9
BRANCH   8  20
ATOM     20  N   UNL     1      46.707   3.013  17.614  0.00  0.00    +0.000 NA
ATOM     21  H   UNL     1      46.739   2.135  17.100  0.00  0.00    +0.000 HD
ATOM     22  H   UNL     1      45.716   3.260  17.724  0.00  0.00    +0.000 HD
ENDBRANCH   8  20
ENDBRANCH   7   8
ENDBRANCH   1   7
BRANCH   4  23
ATOM     23  C   UNL     1      44.244   5.555  11.170  0.00  0.00    +0.000 C 
BRANCH  23  24
ATOM     24  O   UNL     1      44.889   6.659  10.517  0.00  0.00    +0.000 OA
ATOM     25  H   UNL     1      44.229   7.078   9.937  0.00  0.00    +0.000 HD
ENDBRANCH  23  24
BRANCH  23  26
ATOM     26  C   UNL     1      43.811   4.525  10.105  0.00  0.00    +0.000 C 
BRANCH  26  27
ATOM     27  N   UNL     1      44.595   4.659   8.874  0.00  0.00    +0.000 N 
ATOM     28  C   UNL     1      45.269   3.552   8.503  0.00  0.00    +0.000 A 
ATOM     29  N   UNL     1      45.198   2.346   9.015  0.00  0.00    +0.000 NA
ATOM     30  C   UNL     1      46.074   1.582   8.292  0.00  0.00    +0.000 A 
ATOM     31  C   UNL     1      46.681   2.336   7.314  0.00  0.00    +0.000 A 
ATOM     32  N   UNL     1      46.161   3.592   7.468  0.00  0.00    +0.000 N 
ATOM     33  H   UNL     1      45.056   5.565   8.805  0.00  0.00    +0.000 HD
ATOM     34  H   UNL     1      46.363   4.405   6.906  0.00  0.00    +0.000 HD
ENDBRANCH  26  27
ENDBRANCH  23  26
ENDBRANCH   4  23
TORSDOF 8
ENDMDL
MODEL 5
REMARK VINA RESULT:    -7.071      2.629      8.683
REMARK INTER + INTRA:         -10.867
REMARK INTER:                 -10.398
REMARK INTRA:                  -0.468
REMARK UNBOUND:                -0.902
REMARK  Name = 
REMARK  8 active torsions:
REMARK  status: ('A' for Active; 'I' for Inactive)
REMARK    1  A    between atoms: N_1  and  C_2
REMARK    2  A    between atoms: C_2  and  C_3
REMARK    3  A    between atoms: C_2  and  C_19
REMARK    4  A    between atoms: C_3  and  C_4
REMARK    5  A    between atoms: C_7  and  C_8
REMARK    6  A    between atoms: C_8  and  O_9
REMARK    7  A    between atoms: C_8  and  C_10
REMARK    8  A    between atoms: C_10  and  N_11
REMARK                            x       y       z     vdW  Elec       q    Type
REMARK                         _______ _______ _______ _____ _____    ______ ____
ROOT
ATOM      1  C   UNL     1      47.146   5.773  13.614  0.00  0.00    +0.000 A 
ATOM      2  C   UNL     1      48.008   6.514  14.411  0.00  0.00    +0.000 A 
ATOM      3  C   UNL     1      48.363   6.021  15.664  0.00  0.00    +0.000 A 
ATOM      4  C   UNL     1      47.853   4.799  16.110  0.00  0.00    +0.000 A 
ATOM      5  C   UNL     1      47.052   4.097  15.217  0.00  0.00    +0.000 A 
ATOM      6  N   UNL     1      46.706   4.546  13.987  0.00  0.00    +0.000 NA
ENDROOT
BRANCH   1   7
ATOM      7  C   UNL     1      46.719   6.333  12.271  0.00  0.00    +0.000 C 
BRANCH   7   8
ATOM      8  C   UNL     1      45.202   6.355  11.979  0.00  0.00    +0.000 C 
BRANCH   8   9
ATOM      9  C   UNL     1      44.624   5.015  11.547  0.00  0.00    +0.000 A 
ATOM     10  C   UNL     1      43.749   4.237  12.293  0.00  0.00    +0.000 A 
ATOM     11  S   UNL     1      43.321   2.766  11.544  0.00  0.00    +0.000 S 
ATOM     12  C   UNL     1      44.287   3.113  10.187  0.00  0.00    +0.000 A 
ATOM     13  N   UNL     1      44.394   2.228   9.160  0.00  0.00    +0.000 NA
ATOM     14  C   UNL     1      45.159   2.625   8.200  0.00  0.00    +0.000 A 
ATOM     15  N   UNL     1      45.816   3.830   8.166  0.00  0.00    +0.000 N 
ATOM     16  C   UNL     1      45.707   4.774   9.165  0.00  0.00    +0.000 A 
ATOM     17  O   UNL     1      46.237   5.877   9.069  0.00  0.00    +0.000 OA
ATOM     18  C   UNL     1      44.898   4.350  10.292  0.00  0.00    +0.000 A 
ATOM     19  H   UNL     1      46.377   4.088   7.369  0.00  0.00    +0.000 HD
ENDBRANCH   8   9
BRANCH   8  20
ATOM     20  N   UNL     1      44.862   7.391  10.992  0.00  0.00    +0.000 NA
ATOM     21  H   UNL     1      45.083   8.309  11.370  0.00  0.00    +0.000 HD
ATOM     22  H   UNL     1      43.843   7.356  10.866  0.00  0.00    +0.000 HD
ENDBRANCH   8  20
ENDBRANCH   7   8
ENDBRANCH   1   7
BRANCH   4  23
ATOM     23  C   UNL     1      48.147   4.218  17.474  0.00  0.00    +0.000 C 
BRANCH  23  24
ATOM     24  O   UNL     1      46.920   3.781  18.075  0.00  0.00    +0.000 OA
ATOM     25  H   UNL     1      47.142   3.070  18.702  0.00  0.00    +0.000 HD
ENDBRANCH  23  24
BRANCH  23  26
ATOM     26  C   UNL     1      49.139   3.035  17.437  0.00  0.00    +0.000 C 
BRANCH  26  27
ATOM     27  N   UNL     1      50.448   3.413  17.976  0.00  0.00    +0.000 N 
ATOM     28  C   UNL     1      51.401   2.464  17.878  0.00  0.00    +0.000 A 
ATOM     29  N   UNL     1      51.346   1.320  17.240  0.00  0.00    +0.000 NA
ATOM     30  C   UNL     1      52.561   0.722  17.442  0.00  0.00    +0.000 A 
ATOM     31  C   UNL     1      53.374   1.525  18.208  0.00  0.00    +0.000 A 
ATOM     32  N   UNL     1      52.616   2.629  18.483  0.00  0.00    +0.000 N 
ATOM     33  H   UNL     1      50.372   3.949  18.839  0.00  0.00    +0.000 HD
ATOM     34  H   UNL     1      52.897   3.443  19.009  0.00  0.00    +0.000 HD
ENDBRANCH  26  27
ENDBRANCH  23  26
ENDBRANCH   4  23
TORSDOF 8
ENDMDL
MODEL 6
REMARK VINA RESULT:    -7.025      3.855      4.378
REMARK INTER + INTRA:         -10.802
REMARK INTER:                  -9.910
REMARK INTRA:                  -0.892
REMARK UNBOUND:                -0.902
REMARK  Name = 
REMARK  8 active torsions:
REMARK  status: ('A' for Active; 'I' for Inactive)
REMARK    1  A    between atoms: N_1  and  C_2
REMARK    2  A    between atoms: C_2  and  C_3
REMARK    3  A    between atoms: C_2  and  C_19
REMARK    4  A    between atoms: C_3  and  C_4
REMARK    5  A    between atoms: C_7  and  C_8
REMARK    6  A    between atoms: C_8  and  O_9
REMARK    7  A    between atoms: C_8  and  C_10
REMARK    8  A    between atoms: C_10  and  N_11
REMARK                            x       y       z     vdW  Elec       q    Type
REMARK                         _______ _______ _______ _____ _____    ______ ____
ROOT
ATOM      1  C   UNL     1      46.871   5.680  13.146  0.00  0.00    +0.000 A 
ATOM      2  C   UNL     1      46.387   4.404  13.403  0.00  0.00    +0.000 A 
ATOM      3  C   UNL     1      45.451   3.848  12.535  0.00  0.00    +0.000 A 
ATOM      4  C   UNL     1      45.005   4.568  11.423  0.00  0.00    +0.000 A 
ATOM      5  C   UNL     1      45.595   5.808  11.211  0.00  0.00    +0.000 A 
ATOM      6  N   UNL     1      46.519   6.365  12.029  0.00  0.00    +0.000 NA
ENDROOT
BRANCH   1   7
ATOM      7  C   UNL     1      47.851   6.308  14.118  0.00  0.00    +0.000 C 
BRANCH   7   8
ATOM      8  C   UNL     1      48.164   7.807  13.917  0.00  0.00    +0.000 C 
BRANCH   8   9
ATOM      9  C   UNL     1      49.508   8.250  14.477  0.00  0.00    +0.000 A 
ATOM     10  C   UNL     1      49.775   8.512  15.814  0.00  0.00    +0.000 A 
ATOM     11  S   UNL     1      51.372   9.032  16.110  0.00  0.00    +0.000 S 
ATOM     12  C   UNL     1      51.772   8.923  14.461  0.00  0.00    +0.000 A 
ATOM     13  N   UNL     1      53.011   9.265  14.017  0.00  0.00    +0.000 NA
ATOM     14  C   UNL     1      53.171   9.132  12.744  0.00  0.00    +0.000 A 
ATOM     15  N   UNL     1      52.210   8.676  11.875  0.00  0.00    +0.000 N 
ATOM     16  C   UNL     1      50.954   8.281  12.284  0.00  0.00    +0.000 A 
ATOM     17  O   UNL     1      50.145   7.797  11.498  0.00  0.00    +0.000 OA
ATOM     18  C   UNL     1      50.710   8.463  13.703  0.00  0.00    +0.000 A 
ATOM     19  H   UNL     1      52.413   8.569  10.894  0.00  0.00    +0.000 HD
ENDBRANCH   8   9
BRANCH   8  20
ATOM     20  N   UNL     1      47.091   8.655  14.457  0.00  0.00    +0.000 NA
ATOM     21  H   UNL     1      46.840   9.366  13.773  0.00  0.00    +0.000 HD
ATOM     22  H   UNL     1      47.483   9.146  15.270  0.00  0.00    +0.000 HD
ENDBRANCH   8  20
ENDBRANCH   7   8
ENDBRANCH   1   7
BRANCH   4  23
ATOM     23  C   UNL     1      43.957   4.057  10.463  0.00  0.00    +0.000 C 
BRANCH  23  24
ATOM     24  O   UNL     1      43.393   5.166   9.747  0.00  0.00    +0.000 OA
ATOM     25  H   UNL     1      42.684   4.814   9.181  0.00  0.00    +0.000 HD
ENDBRANCH  23  24
BRANCH  23  26
ATOM     26  C   UNL     1      44.501   3.029   9.449  0.00  0.00    +0.000 C 
BRANCH  26  27
ATOM     27  N   UNL     1      45.267   3.677   8.381  0.00  0.00    +0.000 N 
ATOM     28  C   UNL     1      46.209   2.904   7.804  0.00  0.00    +0.000 A 
ATOM     29  N   UNL     1      46.424   1.621   7.973  0.00  0.00    +0.000 NA
ATOM     30  C   UNL     1      47.488   1.313   7.167  0.00  0.00    +0.000 A 
ATOM     31  C   UNL     1      47.918   2.428   6.486  0.00  0.00    +0.000 A 
ATOM     32  N   UNL     1      47.096   3.436   6.909  0.00  0.00    +0.000 N 
ATOM     33  H   UNL     1      45.489   4.648   8.598  0.00  0.00    +0.000 HD
ATOM     34  H   UNL     1      47.107   4.397   6.603  0.00  0.00    +0.000 HD
ENDBRANCH  26  27
ENDBRANCH  23  26
ENDBRANCH   4  23
TORSDOF 8
ENDMDL
MODEL 7
REMARK VINA RESULT:    -6.867      2.707      3.262
REMARK INTER + INTRA:         -10.579
REMARK INTER:                  -9.682
REMARK INTRA:                  -0.897
REMARK UNBOUND:                -0.902
REMARK  Name = 
REMARK  8 active torsions:
REMARK  status: ('A' for Active; 'I' for Inactive)
REMARK    1  A    between atoms: N_1  and  C_2
REMARK    2  A    between atoms: C_2  and  C_3
REMARK    3  A    between atoms: C_2  and  C_19
REMARK    4  A    between atoms: C_3  and  C_4
REMARK    5  A    between atoms: C_7  and  C_8
REMARK    6  A    between atoms: C_8  and  O_9
REMARK    7  A    between atoms: C_8  and  C_10
REMARK    8  A    between atoms: C_10  and  N_11
REMARK                            x       y       z     vdW  Elec       q    Type
REMARK                         _______ _______ _______ _____ _____    ______ ____
ROOT
ATOM      1  C   UNL     1      46.846   6.272  13.007  0.00  0.00    +0.000 A 
ATOM      2  C   UNL     1      46.409   5.032  13.453  0.00  0.00    +0.000 A 
ATOM      3  C   UNL     1      45.517   4.307  12.668  0.00  0.00    +0.000 A 
ATOM      4  C   UNL     1      45.069   4.825  11.449  0.00  0.00    +0.000 A 
ATOM      5  C   UNL     1      45.612   6.040  11.054  0.00  0.00    +0.000 A 
ATOM      6  N   UNL     1      46.493   6.758  11.791  0.00  0.00    +0.000 NA
ENDROOT
BRANCH   1   7
ATOM      7  C   UNL     1      47.777   7.086  13.885  0.00  0.00    +0.000 C 
BRANCH   7   8
ATOM      8  C   UNL     1      49.292   6.853  13.694  0.00  0.00    +0.000 C 
BRANCH   8   9
ATOM      9  C   UNL     1      50.175   7.634  14.657  0.00  0.00    +0.000 A 
ATOM     10  C   UNL     1      50.789   8.848  14.381  0.00  0.00    +0.000 A 
ATOM     11  S   UNL     1      51.749   9.443  15.659  0.00  0.00    +0.000 S 
ATOM     12  C   UNL     1      51.379   8.101  16.635  0.00  0.00    +0.000 A 
ATOM     13  N   UNL     1      51.916   7.970  17.878  0.00  0.00    +0.000 NA
ATOM     14  C   UNL     1      51.546   6.903  18.503  0.00  0.00    +0.000 A 
ATOM     15  N   UNL     1      50.678   5.963  18.005  0.00  0.00    +0.000 N 
ATOM     16  C   UNL     1      50.079   6.072  16.768  0.00  0.00    +0.000 A 
ATOM     17  O   UNL     1      49.243   5.260  16.384  0.00  0.00    +0.000 OA
ATOM     18  C   UNL     1      50.507   7.230  16.006  0.00  0.00    +0.000 A 
ATOM     19  H   UNL     1      50.409   5.166  18.561  0.00  0.00    +0.000 HD
ENDBRANCH   8   9
BRANCH   8  20
ATOM     20  N   UNL     1      49.704   7.118  12.308  0.00  0.00    +0.000 NA
ATOM     21  H   UNL     1      48.971   6.817  11.670  0.00  0.00    +0.000 HD
ATOM     22  H   UNL     1      50.523   6.525  12.124  0.00  0.00    +0.000 HD
ENDBRANCH   8  20
ENDBRANCH   7   8
ENDBRANCH   1   7
BRANCH   4  23
ATOM     23  C   UNL     1      44.065   4.125  10.563  0.00  0.00    +0.000 C 
BRANCH  23  24
ATOM     24  O   UNL     1      43.381   5.101   9.764  0.00  0.00    +0.000 OA
ATOM     25  H   UNL     1      43.094   5.815  10.360  0.00  0.00    +0.000 HD
ENDBRANCH  23  24
BRANCH  23  26
ATOM     26  C   UNL     1      44.697   3.068   9.633  0.00  0.00    +0.000 C 
BRANCH  26  27
ATOM     27  N   UNL     1      45.248   3.676   8.419  0.00  0.00    +0.000 N 
ATOM     28  C   UNL     1      46.155   2.925   7.764  0.00  0.00    +0.000 A 
ATOM     29  N   UNL     1      46.494   1.678   7.991  0.00  0.00    +0.000 NA
ATOM     30  C   UNL     1      47.452   1.378   7.060  0.00  0.00    +0.000 A 
ATOM     31  C   UNL     1      47.690   2.459   6.244  0.00  0.00    +0.000 A 
ATOM     32  N   UNL     1      46.859   3.440   6.712  0.00  0.00    +0.000 N 
ATOM     33  H   UNL     1      45.419   4.675   8.530  0.00  0.00    +0.000 HD
ATOM     34  H   UNL     1      46.749   4.372   6.339  0.00  0.00    +0.000 HD
ENDBRANCH  26  27
ENDBRANCH  23  26
ENDBRANCH   4  23
TORSDOF 8
ENDMDL
MODEL 8
REMARK VINA RESULT:    -6.744      3.252      8.534
REMARK INTER + INTRA:         -10.406
REMARK INTER:                  -9.649
REMARK INTRA:                  -0.757
REMARK UNBOUND:                -0.902
REMARK  Name = 
REMARK  8 active torsions:
REMARK  status: ('A' for Active; 'I' for Inactive)
REMARK    1  A    between atoms: N_1  and  C_2
REMARK    2  A    between atoms: C_2  and  C_3
REMARK    3  A    between atoms: C_2  and  C_19
REMARK    4  A    between atoms: C_3  and  C_4
REMARK    5  A    between atoms: C_7  and  C_8
REMARK    6  A    between atoms: C_8  and  O_9
REMARK    7  A    between atoms: C_8  and  C_10
REMARK    8  A    between atoms: C_10  and  N_11
REMARK                            x       y       z     vdW  Elec       q    Type
REMARK                         _______ _______ _______ _____ _____    ______ ____
ROOT
ATOM      1  C   UNL     1      47.487   7.077  12.918  0.00  0.00    +0.000 A 
ATOM      2  C   UNL     1      47.163   8.283  13.525  0.00  0.00    +0.000 A 
ATOM      3  C   UNL     1      47.788   8.627  14.721  0.00  0.00    +0.000 A 
ATOM      4  C   UNL     1      48.724   7.766  15.300  0.00  0.00    +0.000 A 
ATOM      5  C   UNL     1      49.033   6.615  14.586  0.00  0.00    +0.000 A 
ATOM      6  N   UNL     1      48.453   6.265  13.414  0.00  0.00    +0.000 NA
ENDROOT
BRANCH   1   7
ATOM      7  C   UNL     1      46.770   6.678  11.643  0.00  0.00    +0.000 C 
BRANCH   7   8
ATOM      8  C   UNL     1      45.230   6.579  11.714  0.00  0.00    +0.000 C 
BRANCH   8   9
ATOM      9  C   UNL     1      44.681   5.170  11.534  0.00  0.00    +0.000 A 
ATOM     10  C   UNL     1      43.914   4.480  12.463  0.00  0.00    +0.000 A 
ATOM     11  S   UNL     1      43.491   2.902  11.975  0.00  0.00    +0.000 S 
ATOM     12  C   UNL     1      44.315   3.079  10.498  0.00  0.00    +0.000 A 
ATOM     13  N   UNL     1      44.372   2.058   9.601  0.00  0.00    +0.000 NA
ATOM     14  C   UNL     1      45.030   2.337   8.526  0.00  0.00    +0.000 A 
ATOM     15  N   UNL     1      45.622   3.545   8.258  0.00  0.00    +0.000 N 
ATOM     16  C   UNL     1      45.558   4.621   9.118  0.00  0.00    +0.000 A 
ATOM     17  O   UNL     1      46.024   5.715   8.816  0.00  0.00    +0.000 OA
ATOM     18  C   UNL     1      44.873   4.339  10.366  0.00  0.00    +0.000 A 
ATOM     19  H   UNL     1      46.097   3.703   7.383  0.00  0.00    +0.000 HD
ENDBRANCH   8   9
BRANCH   8  20
ATOM     20  N   UNL     1      44.589   7.494  10.757  0.00  0.00    +0.000 NA
ATOM     21  H   UNL     1      44.668   8.450  11.095  0.00  0.00    +0.000 HD
ATOM     22  H   UNL     1      43.589   7.260  10.748  0.00  0.00    +0.000 HD
ENDBRANCH   8  20
ENDBRANCH   7   8
ENDBRANCH   1   7
BRANCH   4  23
ATOM     23  C   UNL     1      49.409   8.041  16.619  0.00  0.00    +0.000 C 
BRANCH  23  24
ATOM     24  O   UNL     1      48.529   8.803  17.457  0.00  0.00    +0.000 OA
ATOM     25  H   UNL     1      48.332   9.635  16.990  0.00  0.00    +0.000 HD
ENDBRANCH  23  24
BRANCH  23  26
ATOM     26  C   UNL     1      49.834   6.761  17.369  0.00  0.00    +0.000 C 
BRANCH  26  27
ATOM     27  N   UNL     1      48.703   6.141  18.064  0.00  0.00    +0.000 N 
ATOM     28  C   UNL     1      48.439   4.869  17.704  0.00  0.00    +0.000 A 
ATOM     29  N   UNL     1      49.145   4.080  16.930  0.00  0.00    +0.000 NA
ATOM     30  C   UNL     1      48.455   2.898  16.876  0.00  0.00    +0.000 A 
ATOM     31  C   UNL     1      47.315   2.967  17.642  0.00  0.00    +0.000 A 
ATOM     32  N   UNL     1      47.316   4.234  18.158  0.00  0.00    +0.000 N 
ATOM     33  H   UNL     1      47.928   6.789  18.196  0.00  0.00    +0.000 HD
ATOM     34  H   UNL     1      46.636   4.634  18.787  0.00  0.00    +0.000 HD
ENDBRANCH  26  27
ENDBRANCH  23  26
ENDBRANCH   4  23
TORSDOF 8
ENDMDL
MODEL 9
REMARK VINA RESULT:    -6.687      2.338      3.068
REMARK INTER + INTRA:         -10.326
REMARK INTER:                 -10.150
REMARK INTRA:                  -0.176
REMARK UNBOUND:                -0.902
REMARK  Name = 
REMARK  8 active torsions:
REMARK  status: ('A' for Active; 'I' for Inactive)
REMARK    1  A    between atoms: N_1  and  C_2
REMARK    2  A    between atoms: C_2  and  C_3
REMARK    3  A    between atoms: C_2  and  C_19
REMARK    4  A    between atoms: C_3  and  C_4
REMARK    5  A    between atoms: C_7  and  C_8
REMARK    6  A    between atoms: C_8  and  O_9
REMARK    7  A    between atoms: C_8  and  C_10
REMARK    8  A    between atoms: C_10  and  N_11
REMARK                            x       y       z     vdW  Elec       q    Type
REMARK                         _______ _______ _______ _____ _____    ______ ____
ROOT
ATOM      1  C   UNL     1      47.695   6.516  13.899  0.00  0.00    +0.000 A 
ATOM      2  C   UNL     1      46.716   7.181  13.172  0.00  0.00    +0.000 A 
ATOM      3  C   UNL     1      45.604   6.471  12.727  0.00  0.00    +0.000 A 
ATOM      4  C   UNL     1      45.480   5.108  13.010  0.00  0.00    +0.000 A 
ATOM      5  C   UNL     1      46.473   4.544  13.800  0.00  0.00    +0.000 A 
ATOM      6  N   UNL     1      47.557   5.216  14.259  0.00  0.00    +0.000 NA
ENDROOT
BRANCH   1   7
ATOM      7  C   UNL     1      48.931   7.276  14.340  0.00  0.00    +0.000 C 
BRANCH   7   8
ATOM      8  C   UNL     1      49.749   6.660  15.496  0.00  0.00    +0.000 C 
BRANCH   8   9
ATOM      9  C   UNL     1      49.161   6.901  16.880  0.00  0.00    +0.000 A 
ATOM     10  C   UNL     1      48.643   8.105  17.336  0.00  0.00    +0.000 A 
ATOM     11  S   UNL     1      48.101   8.057  18.952  0.00  0.00    +0.000 S 
ATOM     12  C   UNL     1      48.535   6.421  19.106  0.00  0.00    +0.000 A 
ATOM     13  N   UNL     1      48.361   5.758  20.282  0.00  0.00    +0.000 NA
ATOM     14  C   UNL     1      48.735   4.523  20.251  0.00  0.00    +0.000 A 
ATOM     15  N   UNL     1      49.252   3.886  19.151  0.00  0.00    +0.000 N 
ATOM     16  C   UNL     1      49.410   4.505  17.929  0.00  0.00    +0.000 A 
ATOM     17  O   UNL     1      49.796   3.888  16.941  0.00  0.00    +0.000 OA
ATOM     18  C   UNL     1      49.053   5.911  17.929  0.00  0.00    +0.000 A 
ATOM     19  H   UNL     1      49.497   2.909  19.190  0.00  0.00    +0.000 HD
ENDBRANCH   8   9
BRANCH   8  20
ATOM     20  N   UNL     1      51.149   7.108  15.460  0.00  0.00    +0.000 NA
ATOM     21  H   UNL     1      51.374   7.449  14.529  0.00  0.00    +0.000 HD
ATOM     22  H   UNL     1      51.730   6.278  15.625  0.00  0.00    +0.000 HD
ENDBRANCH   8  20
ENDBRANCH   7   8
ENDBRANCH   1   7
BRANCH   4  23
ATOM     23  C   UNL     1      44.331   4.255  12.523  0.00  0.00    +0.000 C 
BRANCH  23  24
ATOM     24  O   UNL     1      43.698   3.629  13.648  0.00  0.00    +0.000 OA
ATOM     25  H   UNL     1      42.780   3.953  13.681  0.00  0.00    +0.000 HD
ENDBRANCH  23  24
BRANCH  23  26
ATOM     26  C   UNL     1      43.272   5.047  11.726  0.00  0.00    +0.000 C 
BRANCH  26  27
ATOM     27  N   UNL     1      43.712   5.306  10.353  0.00  0.00    +0.000 N 
ATOM     28  C   UNL     1      44.123   4.219   9.670  0.00  0.00    +0.000 A 
ATOM     29  N   UNL     1      44.042   2.958  10.024  0.00  0.00    +0.000 NA
ATOM     30  C   UNL     1      44.594   2.246   8.993  0.00  0.00    +0.000 A 
ATOM     31  C   UNL     1      45.007   3.090   7.988  0.00  0.00    +0.000 A 
ATOM     32  N   UNL     1      44.706   4.345   8.440  0.00  0.00    +0.000 N 
ATOM     33  H   UNL     1      44.246   6.171  10.273  0.00  0.00    +0.000 HD
ATOM     34  H   UNL     1      44.850   5.217   7.952  0.00  0.00    +0.000 HD
ENDBRANCH  26  27
ENDBRANCH  23  26
ENDBRANCH   4  23
TORSDOF 8
ENDMDL
