MODEL 1
REMARK VINA RESULT:    -8.267      0.000      0.000
REMARK INTER + INTRA:         -12.582
REMARK INTER:                 -11.650
REMARK INTRA:                  -0.933
REMARK UNBOUND:                -0.933
REMARK  Name = 
REMARK  9 active torsions:
REMARK  status: ('A' for Active; 'I' for Inactive)
REMARK    1  A    between atoms: C_1  and  O_2
REMARK    2  A    between atoms: O_2  and  C_3
REMARK    3  A    between atoms: C_10  and  C_11
REMARK    4  A    between atoms: N_13  and  C_14
REMARK    5  A    between atoms: C_14  and  C_15
REMARK    6  A    between atoms: C_18  and  N_19
REMARK    7  A    between atoms: N_19  and  C_20
REMARK    8  A    between atoms: C_20  and  C_21
REMARK    9  A    between atoms: C_25  and  C_26
REMARK                            x       y       z     vdW  Elec       q    Type
REMARK                         _______ _______ _______ _____ _____    ______ ____
ROOT
ATOM      1  C   UNL     1      45.983   7.978  12.907  0.00  0.00    +0.000 A 
ATOM      2  C   UNL     1      45.360   8.595  11.821  0.00  0.00    +0.000 A 
ATOM      3  C   UNL     1      44.334   7.946  11.127  0.00  0.00    +0.000 A 
ATOM      4  C   UNL     1      43.899   6.666  11.486  0.00  0.00    +0.000 A 
ATOM      5  C   UNL     1      44.493   6.078  12.609  0.00  0.00    +0.000 A 
ATOM      6  C   UNL     1      45.517   6.724  13.316  0.00  0.00    +0.000 A 
ENDROOT
BRANCH   4   7
ATOM      7  N   UNL     1      43.041   5.891  10.704  0.00  0.00    +0.000 N 
ATOM      8  H   UNL     1      42.291   6.428  10.274  0.00  0.00    +0.000 HD
BRANCH   7   9
ATOM      9  C   UNL     1      43.539   4.775   9.917  0.00  0.00    +0.000 C 
BRANCH   9  10
ATOM     10  C   UNL     1      45.033   4.523  10.191  0.00  0.00    +0.000 C 
ATOM     11  C   UNL     1      45.936   4.869   8.991  0.00  0.00    +0.000 C 
ATOM     12  C   UNL     1      45.767   3.906   7.812  0.00  0.00    +0.000 C 
ATOM     13  N   UNL     1      45.890   2.507   8.237  0.00  0.00    +0.000 N 
ATOM     14  C   UNL     1      46.589   1.501   7.588  0.00  0.00    +0.000 C 
ATOM     15  C   UNL     1      47.450   1.819   6.392  0.00  0.00    +0.000 C 
ATOM     16  O   UNL     1      46.554   0.328   7.976  0.00  0.00    +0.000 OA
ATOM     17  C   UNL     1      45.036   2.119   9.360  0.00  0.00    +0.000 C 
ATOM     18  C   UNL     1      45.261   3.044  10.557  0.00  0.00    +0.000 C 
ENDBRANCH   9  10
ENDBRANCH   7   9
ENDBRANCH   4   7
BRANCH   1  19
ATOM     19  C   UNL     1      47.180   8.612  13.565  0.00  0.00    +0.000 C 
BRANCH  19  22
ATOM     20  C   UNL     1      48.625   6.912  14.596  0.00  0.00    +0.000 C 
ATOM     21  O   UNL     1      49.186   6.684  13.526  0.00  0.00    +0.000 OA
ATOM     22  N   UNL     1      47.645   7.859  14.704  0.00  0.00    +0.000 N 
ATOM     23  H   UNL     1      47.150   7.973  15.574  0.00  0.00    +0.000 HD
BRANCH  20  31
ATOM     24  C   UNL     1      47.326   4.186  16.289  0.00  0.00    +0.000 A 
ATOM     25  N   UNL     1      47.003   3.228  17.183  0.00  0.00    +0.000 NA
ATOM     26  C   UNL     1      47.754   3.106  18.280  0.00  0.00    +0.000 A 
ATOM     27  N   UNL     1      48.821   3.831  18.601  0.00  0.00    +0.000 NA
ATOM     28  C   UNL     1      49.105   4.779  17.694  0.00  0.00    +0.000 A 
ATOM     29  S   UNL     1      50.446   5.788  17.941  0.00  0.00    +0.000 S 
ATOM     30  C   UNL     1      50.131   6.642  16.508  0.00  0.00    +0.000 A 
ATOM     31  C   UNL     1      49.010   6.194  15.823  0.00  0.00    +0.000 A 
ATOM     32  C   UNL     1      48.413   5.054  16.516  0.00  0.00    +0.000 A 
BRANCH  24  34
ATOM     33  C   UNL     1      47.083   3.518  14.050  0.00  0.00    +0.000 C 
ATOM     34  O   UNL     1      46.567   4.289  15.137  0.00  0.00    +0.000 OA
ENDBRANCH  24  34
ENDBRANCH  20  31
ENDBRANCH  19  22
ENDBRANCH   1  19
TORSDOF 7
ENDMDL
MODEL 2
REMARK VINA RESULT:    -7.660      2.653      3.506
REMARK INTER + INTRA:         -11.727
REMARK INTER:                 -10.692
REMARK INTRA:                  -1.035
REMARK UNBOUND:                -0.933
REMARK  Name = 
REMARK  9 active torsions:
REMARK  status: ('A' for Active; 'I' for Inactive)
REMARK    1  A    between atoms: C_1  and  O_2
REMARK    2  A    between atoms: O_2  and  C_3
REMARK    3  A    between atoms: C_10  and  C_11
REMARK    4  A    between atoms: N_13  and  C_14
REMARK    5  A    between atoms: C_14  and  C_15
REMARK    6  A    between atoms: C_18  and  N_19
REMARK    7  A    between atoms: N_19  and  C_20
REMARK    8  A    between atoms: C_20  and  C_21
REMARK    9  A    between atoms: C_25  and  C_26
REMARK                            x       y       z     vdW  Elec       q    Type
REMARK                         _______ _______ _______ _____ _____    ______ ____
ROOT
ATOM      1  C   UNL     1      47.893   5.981  14.764  0.00  0.00    +0.000 A 
ATOM      2  C   UNL     1      47.237   4.761  14.941  0.00  0.00    +0.000 A 
ATOM      3  C   UNL     1      46.369   4.272  13.961  0.00  0.00    +0.000 A 
ATOM      4  C   UNL     1      46.121   4.979  12.779  0.00  0.00    +0.000 A 
ATOM      5  C   UNL     1      46.823   6.174  12.587  0.00  0.00    +0.000 A 
ATOM      6  C   UNL     1      47.702   6.669  13.561  0.00  0.00    +0.000 A 
ENDROOT
BRANCH   4   7
ATOM      7  N   UNL     1      45.108   4.649  11.876  0.00  0.00    +0.000 N 
ATOM      8  H   UNL     1      44.978   5.345  11.145  0.00  0.00    +0.000 HD
BRANCH   7   9
ATOM      9  C   UNL     1      44.872   3.272  11.476  0.00  0.00    +0.000 C 
BRANCH   9  10
ATOM     10  C   UNL     1      44.034   3.203  10.186  0.00  0.00    +0.000 C 
ATOM     11  C   UNL     1      44.303   1.933   9.356  0.00  0.00    +0.000 C 
ATOM     12  C   UNL     1      45.693   1.917   8.712  0.00  0.00    +0.000 C 
ATOM     13  N   UNL     1      45.955   3.155   7.968  0.00  0.00    +0.000 N 
ATOM     14  C   UNL     1      46.538   3.263   6.715  0.00  0.00    +0.000 C 
ATOM     15  C   UNL     1      46.839   2.027   5.905  0.00  0.00    +0.000 C 
ATOM     16  O   UNL     1      46.805   4.359   6.212  0.00  0.00    +0.000 OA
ATOM     17  C   UNL     1      45.737   4.391   8.718  0.00  0.00    +0.000 C 
ATOM     18  C   UNL     1      44.323   4.429   9.302  0.00  0.00    +0.000 C 
ENDBRANCH   9  10
ENDBRANCH   7   9
ENDBRANCH   4   7
BRANCH   1  19
ATOM     19  C   UNL     1      48.715   6.577  15.875  0.00  0.00    +0.000 C 
BRANCH  19  22
ATOM     20  C   UNL     1      50.371   5.841  17.535  0.00  0.00    +0.000 C 
ATOM     21  O   UNL     1      50.026   6.717  18.325  0.00  0.00    +0.000 OA
ATOM     22  N   UNL     1      49.762   5.691  16.321  0.00  0.00    +0.000 N 
ATOM     23  H   UNL     1      50.114   5.013  15.662  0.00  0.00    +0.000 HD
BRANCH  20  31
ATOM     24  C   UNL     1      50.708   2.408  17.244  0.00  0.00    +0.000 A 
ATOM     25  N   UNL     1      51.079   1.113  17.331  0.00  0.00    +0.000 NA
ATOM     26  C   UNL     1      52.254   0.827  17.897  0.00  0.00    +0.000 A 
ATOM     27  N   UNL     1      53.134   1.692  18.389  0.00  0.00    +0.000 NA
ATOM     28  C   UNL     1      52.727   2.968  18.293  0.00  0.00    +0.000 A 
ATOM     29  S   UNL     1      53.738   4.206  18.863  0.00  0.00    +0.000 S 
ATOM     30  C   UNL     1      52.601   5.396  18.445  0.00  0.00    +0.000 A 
ATOM     31  C   UNL     1      51.439   4.887  17.879  0.00  0.00    +0.000 A 
ATOM     32  C   UNL     1      51.528   3.433  17.756  0.00  0.00    +0.000 A 
BRANCH  24  34
ATOM     33  C   UNL     1      48.383   2.618  17.505  0.00  0.00    +0.000 C 
ATOM     34  O   UNL     1      49.506   2.705  16.627  0.00  0.00    +0.000 OA
ENDBRANCH  24  34
ENDBRANCH  20  31
ENDBRANCH  19  22
ENDBRANCH   1  19
TORSDOF 7
ENDMDL
MODEL 3
REMARK VINA RESULT:    -7.448      1.807      2.407
REMARK INTER + INTRA:         -11.429
REMARK INTER:                 -10.184
REMARK INTRA:                  -1.245
REMARK UNBOUND:                -0.933
REMARK  Name = 
REMARK  9 active torsions:
REMARK  status: ('A' for Active; 'I' for Inactive)
REMARK    1  A    between atoms: C_1  and  O_2
REMARK    2  A    between atoms: O_2  and  C_3
REMARK    3  A    between atoms: C_10  and  C_11
REMARK    4  A    between atoms: N_13  and  C_14
REMARK    5  A    between atoms: C_14  and  C_15
REMARK    6  A    between atoms: C_18  and  N_19
REMARK    7  A    between atoms: N_19  and  C_20
REMARK    8  A    between atoms: C_20  and  C_21
REMARK    9  A    between atoms: C_25  and  C_26
REMARK                            x       y       z     vdW  Elec       q    Type
REMARK                         _______ _______ _______ _____ _____    ______ ____
ROOT
ATOM      1  C   UNL     1      47.096   7.450  13.341  0.00  0.00    +0.000 A 
ATOM      2  C   UNL     1      47.494   6.113  13.386  0.00  0.00    +0.000 A 
ATOM      3  C   UNL     1      46.681   5.110  12.850  0.00  0.00    +0.000 A 
ATOM      4  C   UNL     1      45.448   5.402  12.257  0.00  0.00    +0.000 A 
ATOM      5  C   UNL     1      45.082   6.750  12.169  0.00  0.00    +0.000 A 
ATOM      6  C   UNL     1      45.894   7.764  12.698  0.00  0.00    +0.000 A 
ENDROOT
BRANCH   4   7
ATOM      7  N   UNL     1      44.507   4.432  11.907  0.00  0.00    +0.000 N 
ATOM      8  H   UNL     1      43.621   4.825  11.596  0.00  0.00    +0.000 HD
BRANCH   7   9
ATOM      9  C   UNL     1      44.904   3.195  11.256  0.00  0.00    +0.000 C 
BRANCH   9  10
ATOM     10  C   UNL     1      44.111   2.972   9.955  0.00  0.00    +0.000 C 
ATOM     11  C   UNL     1      44.558   1.716   9.181  0.00  0.00    +0.000 C 
ATOM     12  C   UNL     1      45.953   1.853   8.564  0.00  0.00    +0.000 C 
ATOM     13  N   UNL     1      46.075   3.085   7.776  0.00  0.00    +0.000 N 
ATOM     14  C   UNL     1      46.669   3.218   6.531  0.00  0.00    +0.000 C 
ATOM     15  C   UNL     1      47.142   2.001   5.777  0.00  0.00    +0.000 C 
ATOM     16  O   UNL     1      46.807   4.320   5.989  0.00  0.00    +0.000 OA
ATOM     17  C   UNL     1      45.684   4.311   8.472  0.00  0.00    +0.000 C 
ATOM     18  C   UNL     1      44.264   4.190   9.027  0.00  0.00    +0.000 C 
ENDBRANCH   9  10
ENDBRANCH   7   9
ENDBRANCH   4   7
BRANCH   1  19
ATOM     19  C   UNL     1      47.900   8.512  14.042  0.00  0.00    +0.000 C 
BRANCH  19  22
ATOM     20  C   UNL     1      49.403   7.961  15.907  0.00  0.00    +0.000 C 
ATOM     21  O   UNL     1      50.394   8.052  15.186  0.00  0.00    +0.000 OA
ATOM     22  N   UNL     1      48.144   8.193  15.427  0.00  0.00    +0.000 N 
ATOM     23  H   UNL     1      47.344   8.038  16.020  0.00  0.00    +0.000 HD
BRANCH  20  31
ATOM     24  C   UNL     1      48.815   5.102  17.768  0.00  0.00    +0.000 A 
ATOM     25  N   UNL     1      48.599   4.187  18.736  0.00  0.00    +0.000 NA
ATOM     26  C   UNL     1      48.828   4.540  20.004  0.00  0.00    +0.000 A 
ATOM     27  N   UNL     1      49.267   5.717  20.437  0.00  0.00    +0.000 NA
ATOM     28  C   UNL     1      49.461   6.603  19.446  0.00  0.00    +0.000 A 
ATOM     29  S   UNL     1      50.034   8.155  19.823  0.00  0.00    +0.000 S 
ATOM     30  C   UNL     1      49.987   8.623  18.191  0.00  0.00    +0.000 A 
ATOM     31  C   UNL     1      49.532   7.629  17.336  0.00  0.00    +0.000 A 
ATOM     32  C   UNL     1      49.249   6.405  18.084  0.00  0.00    +0.000 A 
BRANCH  24  34
ATOM     33  C   UNL     1      47.546   3.782  16.295  0.00  0.00    +0.000 C 
ATOM     34  O   UNL     1      48.609   4.723  16.453  0.00  0.00    +0.000 OA
ENDBRANCH  24  34
ENDBRANCH  20  31
ENDBRANCH  19  22
ENDBRANCH   1  19
TORSDOF 7
ENDMDL
MODEL 4
REMARK VINA RESULT:    -7.155      5.018      9.471
REMARK INTER + INTRA:         -11.016
REMARK INTER:                  -9.926
REMARK INTRA:                  -1.089
REMARK UNBOUND:                -0.933
REMARK  Name = 
REMARK  9 active torsions:
REMARK  status: ('A' for Active; 'I' for Inactive)
REMARK    1  A    between atoms: C_1  and  O_2
REMARK    2  A    between atoms: O_2  and  C_3
REMARK    3  A    between atoms: C_10  and  C_11
REMARK    4  A    between atoms: N_13  and  C_14
REMARK    5  A    between atoms: C_14  and  C_15
REMARK    6  A    between atoms: C_18  and  N_19
REMARK    7  A    between atoms: N_19  and  C_20
REMARK    8  A    between atoms: C_20  and  C_21
REMARK    9  A    between atoms: C_25  and  C_26
REMARK                            x       y       z     vdW  Elec       q    Type
REMARK                         _______ _______ _______ _____ _____    ______ ____
ROOT
ATOM      1  C   UNL     1      49.026   3.451  17.042  0.00  0.00    +0.000 A 
ATOM      2  C   UNL     1      49.670   4.651  17.350  0.00  0.00    +0.000 A 
ATOM      3  C   UNL     1      51.024   4.662  17.697  0.00  0.00    +0.000 A 
ATOM      4  C   UNL     1      51.778   3.485  17.753  0.00  0.00    +0.000 A 
ATOM      5  C   UNL     1      51.138   2.295  17.391  0.00  0.00    +0.000 A 
ATOM      6  C   UNL     1      49.782   2.274  17.034  0.00  0.00    +0.000 A 
ENDROOT
BRANCH   4   7
ATOM      7  N   UNL     1      53.061   3.412  18.300  0.00  0.00    +0.000 N 
ATOM      8  H   UNL     1      53.356   4.274  18.752  0.00  0.00    +0.000 HD
BRANCH   7   9
ATOM      9  C   UNL     1      53.553   2.187  18.909  0.00  0.00    +0.000 C 
BRANCH   9  10
ATOM     10  C   UNL     1      54.943   1.813  18.362  0.00  0.00    +0.000 C 
ATOM     11  C   UNL     1      54.917   1.388  16.881  0.00  0.00    +0.000 C 
ATOM     12  C   UNL     1      54.224   0.041  16.653  0.00  0.00    +0.000 C 
ATOM     13  N   UNL     1      54.762  -0.999  17.538  0.00  0.00    +0.000 N 
ATOM     14  C   UNL     1      55.079  -2.303  17.190  0.00  0.00    +0.000 C 
ATOM     15  C   UNL     1      55.025  -2.742  15.748  0.00  0.00    +0.000 C 
ATOM     16  O   UNL     1      55.438  -3.133  18.032  0.00  0.00    +0.000 OA
ATOM     17  C   UNL     1      54.788  -0.654  18.959  0.00  0.00    +0.000 C 
ATOM     18  C   UNL     1      55.541   0.657  19.186  0.00  0.00    +0.000 C 
ENDBRANCH   9  10
ENDBRANCH   7   9
ENDBRANCH   4   7
BRANCH   1  19
ATOM     19  C   UNL     1      47.539   3.418  16.808  0.00  0.00    +0.000 C 
BRANCH  19  22
ATOM     20  C   UNL     1      47.015   4.291  14.571  0.00  0.00    +0.000 C 
ATOM     21  O   UNL     1      47.275   3.211  14.046  0.00  0.00    +0.000 OA
ATOM     22  N   UNL     1      47.098   4.469  15.924  0.00  0.00    +0.000 N 
ATOM     23  H   UNL     1      46.952   5.384  16.320  0.00  0.00    +0.000 HD
BRANCH  20  31
ATOM     24  C   UNL     1      44.200   4.925  12.657  0.00  0.00    +0.000 A 
ATOM     25  N   UNL     1      43.279   5.407  11.796  0.00  0.00    +0.000 NA
ATOM     26  C   UNL     1      43.494   6.603  11.243  0.00  0.00    +0.000 A 
ATOM     27  N   UNL     1      44.533   7.405  11.454  0.00  0.00    +0.000 NA
ATOM     28  C   UNL     1      45.431   6.889  12.308  0.00  0.00    +0.000 A 
ATOM     29  S   UNL     1      46.814   7.788  12.701  0.00  0.00    +0.000 S 
ATOM     30  C   UNL     1      47.394   6.552  13.710  0.00  0.00    +0.000 A 
ATOM     31  C   UNL     1      46.566   5.438  13.764  0.00  0.00    +0.000 A 
ATOM     32  C   UNL     1      45.371   5.653  12.950  0.00  0.00    +0.000 A 
BRANCH  24  34
ATOM     33  C   UNL     1      43.515   2.701  12.337  0.00  0.00    +0.000 C 
ATOM     34  O   UNL     1      43.959   3.701  13.256  0.00  0.00    +0.000 OA
ENDBRANCH  24  34
ENDBRANCH  20  31
ENDBRANCH  19  22
ENDBRANCH   1  19
TORSDOF 7
ENDMDL
MODEL 5
REMARK VINA RESULT:    -6.939      2.160      3.078
REMARK INTER + INTRA:         -10.711
REMARK INTER:                  -9.808
REMARK INTRA:                  -0.903
REMARK UNBOUND:                -0.933
REMARK  Name = 
REMARK  9 active torsions:
REMARK  status: ('A' for Active; 'I' for Inactive)
REMARK    1  A    between atoms: C_1  and  O_2
REMARK    2  A    between atoms: O_2  and  C_3
REMARK    3  A    between atoms: C_10  and  C_11
REMARK    4  A    between atoms: N_13  and  C_14
REMARK    5  A    between atoms: C_14  and  C_15
REMARK    6  A    between atoms: C_18  and  N_19
REMARK    7  A    between atoms: N_19  and  C_20
REMARK    8  A    between atoms: C_20  and  C_21
REMARK    9  A    between atoms: C_25  and  C_26
REMARK                            x       y       z     vdW  Elec       q    Type
REMARK                         _______ _______ _______ _____ _____    ______ ____
ROOT
ATOM      1  C   UNL     1      48.325   8.139  12.891  0.00  0.00    +0.000 A 
ATOM      2  C   UNL     1      48.117   6.773  12.690  0.00  0.00    +0.000 A 
ATOM      3  C   UNL     1      46.821   6.254  12.609  0.00  0.00    +0.000 A 
ATOM      4  C   UNL     1      45.694   7.073  12.729  0.00  0.00    +0.000 A 
ATOM      5  C   UNL     1      45.912   8.448  12.877  0.00  0.00    +0.000 A 
ATOM      6  C   UNL     1      47.207   8.978  12.952  0.00  0.00    +0.000 A 
ENDROOT
BRANCH   4   7
ATOM      7  N   UNL     1      44.393   6.586  12.874  0.00  0.00    +0.000 N 
ATOM      8  H   UNL     1      43.714   7.069  12.290  0.00  0.00    +0.000 HD
BRANCH   7   9
ATOM      9  C   UNL     1      44.137   5.172  13.089  0.00  0.00    +0.000 C 
BRANCH   9  10
ATOM     10  C   UNL     1      43.193   4.607  12.011  0.00  0.00    +0.000 C 
ATOM     11  C   UNL     1      43.399   3.102  11.753  0.00  0.00    +0.000 C 
ATOM     12  C   UNL     1      44.730   2.785  11.064  0.00  0.00    +0.000 C 
ATOM     13  N   UNL     1      44.921   3.604   9.861  0.00  0.00    +0.000 N 
ATOM     14  C   UNL     1      45.395   3.175   8.631  0.00  0.00    +0.000 C 
ATOM     15  C   UNL     1      45.634   1.708   8.376  0.00  0.00    +0.000 C 
ATOM     16  O   UNL     1      45.612   3.963   7.704  0.00  0.00    +0.000 OA
ATOM     17  C   UNL     1      44.758   5.045  10.056  0.00  0.00    +0.000 C 
ATOM     18  C   UNL     1      43.399   5.357  10.683  0.00  0.00    +0.000 C 
ENDBRANCH   9  10
ENDBRANCH   7   9
ENDBRANCH   4   7
BRANCH   1  19
ATOM     19  C   UNL     1      49.711   8.677  13.120  0.00  0.00    +0.000 C 
BRANCH  19  22
ATOM     20  C   UNL     1      50.702   7.968  15.255  0.00  0.00    +0.000 C 
ATOM     21  O   UNL     1      50.144   8.879  15.861  0.00  0.00    +0.000 OA
ATOM     22  N   UNL     1      50.524   7.786  13.912  0.00  0.00    +0.000 N 
ATOM     23  H   UNL     1      51.051   7.078  13.426  0.00  0.00    +0.000 HD
BRANCH  20  31
ATOM     24  C   UNL     1      50.088   5.173  17.204  0.00  0.00    +0.000 A 
ATOM     25  N   UNL     1      50.151   4.121  18.047  0.00  0.00    +0.000 NA
ATOM     26  C   UNL     1      51.352   3.718  18.469  0.00  0.00    +0.000 A 
ATOM     27  N   UNL     1      52.530   4.236  18.138  0.00  0.00    +0.000 NA
ATOM     28  C   UNL     1      52.427   5.285  17.305  0.00  0.00    +0.000 A 
ATOM     29  S   UNL     1      53.838   6.060  16.770  0.00  0.00    +0.000 S 
ATOM     30  C   UNL     1      52.939   7.183  15.869  0.00  0.00    +0.000 A 
ATOM     31  C   UNL     1      51.565   7.005  15.959  0.00  0.00    +0.000 A 
ATOM     32  C   UNL     1      51.258   5.845  16.794  0.00  0.00    +0.000 A 
BRANCH  24  34
ATOM     33  C   UNL     1      47.802   4.649  17.069  0.00  0.00    +0.000 C 
ATOM     34  O   UNL     1      48.846   5.568  16.741  0.00  0.00    +0.000 OA
ENDBRANCH  24  34
ENDBRANCH  20  31
ENDBRANCH  19  22
ENDBRANCH   1  19
TORSDOF 7
ENDMDL
MODEL 6
REMARK VINA RESULT:    -6.881      5.238      7.096
REMARK INTER + INTRA:         -10.630
REMARK INTER:                  -9.489
REMARK INTRA:                  -1.141
REMARK UNBOUND:                -0.933
REMARK  Name = 
REMARK  9 active torsions:
REMARK  status: ('A' for Active; 'I' for Inactive)
REMARK    1  A    between atoms: C_1  and  O_2
REMARK    2  A    between atoms: O_2  and  C_3
REMARK    3  A    between atoms: C_10  and  C_11
REMARK    4  A    between atoms: N_13  and  C_14
REMARK    5  A    between atoms: C_14  and  C_15
REMARK    6  A    between atoms: C_18  and  N_19
REMARK    7  A    between atoms: N_19  and  C_20
REMARK    8  A    between atoms: C_20  and  C_21
REMARK    9  A    between atoms: C_25  and  C_26
REMARK                            x       y       z     vdW  Elec       q    Type
REMARK                         _______ _______ _______ _____ _____    ______ ____
ROOT
ATOM      1  C   UNL     1      49.758   8.665  11.731  0.00  0.00    +0.000 A 
ATOM      2  C   UNL     1      48.685   9.547  11.879  0.00  0.00    +0.000 A 
ATOM      3  C   UNL     1      47.489   9.120  12.464  0.00  0.00    +0.000 A 
ATOM      4  C   UNL     1      47.320   7.807  12.915  0.00  0.00    +0.000 A 
ATOM      5  C   UNL     1      48.418   6.946  12.812  0.00  0.00    +0.000 A 
ATOM      6  C   UNL     1      49.624   7.367  12.233  0.00  0.00    +0.000 A 
ENDROOT
BRANCH   4   7
ATOM      7  N   UNL     1      46.089   7.272  13.302  0.00  0.00    +0.000 N 
ATOM      8  H   UNL     1      45.295   7.840  13.015  0.00  0.00    +0.000 HD
BRANCH   7   9
ATOM      9  C   UNL     1      45.859   5.838  13.312  0.00  0.00    +0.000 C 
BRANCH   9  10
ATOM     10  C   UNL     1      44.489   5.489  12.701  0.00  0.00    +0.000 C 
ATOM     11  C   UNL     1      44.237   3.972  12.604  0.00  0.00    +0.000 C 
ATOM     12  C   UNL     1      45.121   3.280  11.562  0.00  0.00    +0.000 C 
ATOM     13  N   UNL     1      45.053   3.957  10.262  0.00  0.00    +0.000 N 
ATOM     14  C   UNL     1      44.944   3.355   9.018  0.00  0.00    +0.000 C 
ATOM     15  C   UNL     1      44.731   1.866   8.906  0.00  0.00    +0.000 C 
ATOM     16  O   UNL     1      44.990   4.010   7.971  0.00  0.00    +0.000 OA
ATOM     17  C   UNL     1      45.307   5.397  10.295  0.00  0.00    +0.000 C 
ATOM     18  C   UNL     1      44.374   6.090  11.288  0.00  0.00    +0.000 C 
ENDBRANCH   9  10
ENDBRANCH   7   9
ENDBRANCH   4   7
BRANCH   1  19
ATOM     19  C   UNL     1      50.991   9.081  10.975  0.00  0.00    +0.000 C 
BRANCH  19  22
ATOM     20  C   UNL     1      53.038   8.107  10.025  0.00  0.00    +0.000 C 
ATOM     21  O   UNL     1      53.553   9.215   9.899  0.00  0.00    +0.000 OA
ATOM     22  N   UNL     1      51.792   7.953  10.566  0.00  0.00    +0.000 N 
ATOM     23  H   UNL     1      51.363   7.041  10.589  0.00  0.00    +0.000 HD
BRANCH  20  31
ATOM     24  C   UNL     1      52.968   6.084   7.217  0.00  0.00    +0.000 A 
ATOM     25  N   UNL     1      53.092   5.093   6.309  0.00  0.00    +0.000 NA
ATOM     26  C   UNL     1      53.924   4.084   6.583  0.00  0.00    +0.000 A 
ATOM     27  N   UNL     1      54.676   3.942   7.669  0.00  0.00    +0.000 NA
ATOM     28  C   UNL     1      54.518   4.942   8.552  0.00  0.00    +0.000 A 
ATOM     29  S   UNL     1      55.414   4.925   9.992  0.00  0.00    +0.000 S 
ATOM     30  C   UNL     1      54.691   6.368  10.518  0.00  0.00    +0.000 A 
ATOM     31  C   UNL     1      53.759   6.885   9.629  0.00  0.00    +0.000 A 
ATOM     32  C   UNL     1      53.679   6.048   8.433  0.00  0.00    +0.000 A 
BRANCH  24  34
ATOM     33  C   UNL     1      52.801   8.226   6.267  0.00  0.00    +0.000 C 
ATOM     34  O   UNL     1      52.131   7.144   6.917  0.00  0.00    +0.000 OA
ENDBRANCH  24  34
ENDBRANCH  20  31
ENDBRANCH  19  22
ENDBRANCH   1  19
TORSDOF 7
ENDMDL
MODEL 7
REMARK VINA RESULT:    -6.727      5.526      7.457
REMARK INTER + INTRA:         -10.413
REMARK INTER:                  -9.123
REMARK INTRA:                  -1.289
REMARK UNBOUND:                -0.933
REMARK  Name = 
REMARK  9 active torsions:
REMARK  status: ('A' for Active; 'I' for Inactive)
REMARK    1  A    between atoms: C_1  and  O_2
REMARK    2  A    between atoms: O_2  and  C_3
REMARK    3  A    between atoms: C_10  and  C_11
REMARK    4  A    between atoms: N_13  and  C_14
REMARK    5  A    between atoms: C_14  and  C_15
REMARK    6  A    between atoms: C_18  and  N_19
REMARK    7  A    between atoms: N_19  and  C_20
REMARK    8  A    between atoms: C_20  and  C_21
REMARK    9  A    between atoms: C_25  and  C_26
REMARK                            x       y       z     vdW  Elec       q    Type
REMARK                         _______ _______ _______ _____ _____    ______ ____
ROOT
ATOM      1  C   UNL     1      50.442   8.198  12.398  0.00  0.00    +0.000 A 
ATOM      2  C   UNL     1      49.516   7.788  11.437  0.00  0.00    +0.000 A 
ATOM      3  C   UNL     1      48.189   7.530  11.793  0.00  0.00    +0.000 A 
ATOM      4  C   UNL     1      47.742   7.667  13.112  0.00  0.00    +0.000 A 
ATOM      5  C   UNL     1      48.664   8.131  14.057  0.00  0.00    +0.000 A 
ATOM      6  C   UNL     1      49.996   8.399  13.708  0.00  0.00    +0.000 A 
ENDROOT
BRANCH   4   7
ATOM      7  N   UNL     1      46.498   7.218  13.560  0.00  0.00    +0.000 N 
ATOM      8  H   UNL     1      45.746   7.882  13.392  0.00  0.00    +0.000 HD
BRANCH   7   9
ATOM      9  C   UNL     1      46.125   5.816  13.470  0.00  0.00    +0.000 C 
BRANCH   9  10
ATOM     10  C   UNL     1      44.730   5.652  12.839  0.00  0.00    +0.000 C 
ATOM     11  C   UNL     1      44.293   4.179  12.710  0.00  0.00    +0.000 C 
ATOM     12  C   UNL     1      45.097   3.401  11.663  0.00  0.00    +0.000 C 
ATOM     13  N   UNL     1      45.128   4.105  10.376  0.00  0.00    +0.000 N 
ATOM     14  C   UNL     1      44.960   3.544   9.119  0.00  0.00    +0.000 C 
ATOM     15  C   UNL     1      44.566   2.096   8.977  0.00  0.00    +0.000 C 
ATOM     16  O   UNL     1      45.098   4.207   8.086  0.00  0.00    +0.000 OA
ATOM     17  C   UNL     1      45.558   5.502  10.439  0.00  0.00    +0.000 C 
ATOM     18  C   UNL     1      44.706   6.287  11.437  0.00  0.00    +0.000 C 
ENDBRANCH   9  10
ENDBRANCH   7   9
ENDBRANCH   4   7
BRANCH   1  19
ATOM     19  C   UNL     1      51.899   8.338  12.046  0.00  0.00    +0.000 C 
BRANCH  19  22
ATOM     20  C   UNL     1      52.715   8.829   9.780  0.00  0.00    +0.000 C 
ATOM     21  O   UNL     1      53.028   9.974  10.099  0.00  0.00    +0.000 OA
ATOM     22  N   UNL     1      52.176   7.956  10.683  0.00  0.00    +0.000 N 
ATOM     23  H   UNL     1      51.858   7.049  10.377  0.00  0.00    +0.000 HD
BRANCH  20  31
ATOM     24  C   UNL     1      53.583   5.751   8.454  0.00  0.00    +0.000 A 
ATOM     25  N   UNL     1      53.983   4.721   7.679  0.00  0.00    +0.000 NA
ATOM     26  C   UNL     1      54.114   4.929   6.366  0.00  0.00    +0.000 A 
ATOM     27  N   UNL     1      53.877   6.061   5.711  0.00  0.00    +0.000 NA
ATOM     28  C   UNL     1      53.490   7.064   6.515  0.00  0.00    +0.000 A 
ATOM     29  S   UNL     1      53.133   8.578   5.839  0.00  0.00    +0.000 S 
ATOM     30  C   UNL     1      52.786   9.234   7.366  0.00  0.00    +0.000 A 
ATOM     31  C   UNL     1      52.940   8.334   8.411  0.00  0.00    +0.000 A 
ATOM     32  C   UNL     1      53.329   7.021   7.899  0.00  0.00    +0.000 A 
BRANCH  24  34
ATOM     33  C   UNL     1      54.628   5.165  10.475  0.00  0.00    +0.000 C 
ATOM     34  O   UNL     1      53.416   5.525   9.809  0.00  0.00    +0.000 OA
ENDBRANCH  24  34
ENDBRANCH  20  31
ENDBRANCH  19  22
ENDBRANCH   1  19
TORSDOF 7
ENDMDL
MODEL 8
REMARK VINA RESULT:    -6.683      3.326      8.867
REMARK INTER + INTRA:         -10.351
REMARK INTER:                  -9.033
REMARK INTRA:                  -1.318
REMARK UNBOUND:                -0.933
REMARK  Name = 
REMARK  9 active torsions:
REMARK  status: ('A' for Active; 'I' for Inactive)
REMARK    1  A    between atoms: C_1  and  O_2
REMARK    2  A    between atoms: O_2  and  C_3
REMARK    3  A    between atoms: C_10  and  C_11
REMARK    4  A    between atoms: N_13  and  C_14
REMARK    5  A    between atoms: C_14  and  C_15
REMARK    6  A    between atoms: C_18  and  N_19
REMARK    7  A    between atoms: N_19  and  C_20
REMARK    8  A    between atoms: C_20  and  C_21
REMARK    9  A    between atoms: C_25  and  C_26
REMARK                            x       y       z     vdW  Elec       q    Type
REMARK                         _______ _______ _______ _____ _____    ______ ____
ROOT
ATOM      1  C   UNL     1      48.938   3.148  17.363  0.00  0.00    +0.000 A 
ATOM      2  C   UNL     1      49.946   2.248  17.012  0.00  0.00    +0.000 A 
ATOM      3  C   UNL     1      51.257   2.440  17.458  0.00  0.00    +0.000 A 
ATOM      4  C   UNL     1      51.609   3.531  18.260  0.00  0.00    +0.000 A 
ATOM      5  C   UNL     1      50.581   4.398  18.651  0.00  0.00    +0.000 A 
ATOM      6  C   UNL     1      49.262   4.210  18.215  0.00  0.00    +0.000 A 
ENDROOT
BRANCH   4   7
ATOM      7  N   UNL     1      52.927   3.888  18.550  0.00  0.00    +0.000 N 
ATOM      8  H   UNL     1      53.341   3.332  19.295  0.00  0.00    +0.000 HD
BRANCH   7   9
ATOM      9  C   UNL     1      53.843   4.307  17.502  0.00  0.00    +0.000 C 
BRANCH   9  10
ATOM     10  C   UNL     1      54.267   5.776  17.688  0.00  0.00    +0.000 C 
ATOM     11  C   UNL     1      53.089   6.764  17.586  0.00  0.00    +0.000 C 
ATOM     12  C   UNL     1      52.521   6.881  16.169  0.00  0.00    +0.000 C 
ATOM     13  N   UNL     1      53.577   7.145  15.185  0.00  0.00    +0.000 N 
ATOM     14  C   UNL     1      53.529   8.054  14.139  0.00  0.00    +0.000 C 
ATOM     15  C   UNL     1      52.365   9.004  14.008  0.00  0.00    +0.000 C 
ATOM     16  O   UNL     1      54.436   8.136  13.304  0.00  0.00    +0.000 OA
ATOM     17  C   UNL     1      54.710   6.221  15.223  0.00  0.00    +0.000 C 
ATOM     18  C   UNL     1      55.314   6.161  16.627  0.00  0.00    +0.000 C 
ENDBRANCH   9  10
ENDBRANCH   7   9
ENDBRANCH   4   7
BRANCH   1  19
ATOM     19  C   UNL     1      47.561   3.024  16.770  0.00  0.00    +0.000 C 
BRANCH  19  22
ATOM     20  C   UNL     1      47.108   4.053  14.584  0.00  0.00    +0.000 C 
ATOM     21  O   UNL     1      47.267   2.981  14.004  0.00  0.00    +0.000 OA
ATOM     22  N   UNL     1      47.213   4.154  15.943  0.00  0.00    +0.000 N 
ATOM     23  H   UNL     1      47.153   5.057  16.386  0.00  0.00    +0.000 HD
BRANCH  20  31
ATOM     24  C   UNL     1      44.339   5.051  12.761  0.00  0.00    +0.000 A 
ATOM     25  N   UNL     1      43.456   5.661  11.943  0.00  0.00    +0.000 NA
ATOM     26  C   UNL     1      43.780   6.855  11.439  0.00  0.00    +0.000 A 
ATOM     27  N   UNL     1      44.897   7.539  11.664  0.00  0.00    +0.000 NA
ATOM     28  C   UNL     1      45.754   6.897  12.474  0.00  0.00    +0.000 A 
ATOM     29  S   UNL     1      47.226   7.636  12.877  0.00  0.00    +0.000 S 
ATOM     30  C   UNL     1      47.696   6.303  13.817  0.00  0.00    +0.000 A 
ATOM     31  C   UNL     1      46.763   5.275  13.839  0.00  0.00    +0.000 A 
ATOM     32  C   UNL     1      45.581   5.645  13.061  0.00  0.00    +0.000 A 
BRANCH  24  34
ATOM     33  C   UNL     1      43.724   2.826  12.328  0.00  0.00    +0.000 C 
ATOM     34  O   UNL     1      43.987   3.830  13.309  0.00  0.00    +0.000 OA
ENDBRANCH  24  34
ENDBRANCH  20  31
ENDBRANCH  19  22
ENDBRANCH   1  19
TORSDOF 7
ENDMDL
MODEL 9
REMARK VINA RESULT:    -6.664      2.000      3.203
REMARK INTER + INTRA:         -10.324
REMARK INTER:                  -9.170
REMARK INTRA:                  -1.155
REMARK UNBOUND:                -0.933
REMARK  Name = 
REMARK  9 active torsions:
REMARK  status: ('A' for Active; 'I' for Inactive)
REMARK    1  A    between atoms: C_1  and  O_2
REMARK    2  A    between atoms: O_2  and  C_3
REMARK    3  A    between atoms: C_10  and  C_11
REMARK    4  A    between atoms: N_13  and  C_14
REMARK    5  A    between atoms: C_14  and  C_15
REMARK    6  A    between atoms: C_18  and  N_19
REMARK    7  A    between atoms: N_19  and  C_20
REMARK    8  A    between atoms: C_20  and  C_21
REMARK    9  A    between atoms: C_25  and  C_26
REMARK                            x       y       z     vdW  Elec       q    Type
REMARK                         _______ _______ _______ _____ _____    ______ ____
ROOT
ATOM      1  C   UNL     1      49.373   8.685  13.625  0.00  0.00    +0.000 A 
ATOM      2  C   UNL     1      49.341   8.999  12.265  0.00  0.00    +0.000 A 
ATOM      3  C   UNL     1      48.130   9.295  11.633  0.00  0.00    +0.000 A 
ATOM      4  C   UNL     1      46.916   9.285  12.328  0.00  0.00    +0.000 A 
ATOM      5  C   UNL     1      46.965   9.022  13.702  0.00  0.00    +0.000 A 
ATOM      6  C   UNL     1      48.176   8.731  14.346  0.00  0.00    +0.000 A 
ENDROOT
BRANCH   4   7
ATOM      7  N   UNL     1      45.667   9.357  11.708  0.00  0.00    +0.000 N 
ATOM      8  H   UNL     1      45.630  10.040  10.955  0.00  0.00    +0.000 HD
BRANCH   7   9
ATOM      9  C   UNL     1      44.851   8.170  11.515  0.00  0.00    +0.000 C 
BRANCH   9  10
ATOM     10  C   UNL     1      45.506   6.933  12.157  0.00  0.00    +0.000 C 
ATOM     11  C   UNL     1      46.306   6.081  11.152  0.00  0.00    +0.000 C 
ATOM     12  C   UNL     1      45.419   5.353  10.138  0.00  0.00    +0.000 C 
ATOM     13  N   UNL     1      44.347   4.602  10.802  0.00  0.00    +0.000 N 
ATOM     14  C   UNL     1      43.925   3.316  10.500  0.00  0.00    +0.000 C 
ATOM     15  C   UNL     1      44.678   2.483   9.494  0.00  0.00    +0.000 C 
ATOM     16  O   UNL     1      42.947   2.804  11.055  0.00  0.00    +0.000 OA
ATOM     17  C   UNL     1      43.541   5.371  11.750  0.00  0.00    +0.000 C 
ATOM     18  C   UNL     1      44.430   6.039  12.800  0.00  0.00    +0.000 C 
ENDBRANCH   9  10
ENDBRANCH   7   9
ENDBRANCH   4   7
BRANCH   1  19
ATOM     19  C   UNL     1      50.652   8.228  14.275  0.00  0.00    +0.000 C 
BRANCH  19  22
ATOM     20  C   UNL     1      50.360   7.360  16.556  0.00  0.00    +0.000 C 
ATOM     21  O   UNL     1      50.426   8.489  17.036  0.00  0.00    +0.000 OA
ATOM     22  N   UNL     1      50.440   7.148  15.208  0.00  0.00    +0.000 N 
ATOM     23  H   UNL     1      50.459   6.207  14.847  0.00  0.00    +0.000 HD
BRANCH  20  31
ATOM     24  C   UNL     1      48.185   4.668  16.462  0.00  0.00    +0.000 A 
ATOM     25  N   UNL     1      47.431   3.580  16.724  0.00  0.00    +0.000 NA
ATOM     26  C   UNL     1      47.688   2.883  17.834  0.00  0.00    +0.000 A 
ATOM     27  N   UNL     1      48.635   3.134  18.732  0.00  0.00    +0.000 NA
ATOM     28  C   UNL     1      49.358   4.227  18.443  0.00  0.00    +0.000 A 
ATOM     29  S   UNL     1      50.620   4.685  19.480  0.00  0.00    +0.000 S 
ATOM     30  C   UNL     1      50.981   6.040  18.524  0.00  0.00    +0.000 A 
ATOM     31  C   UNL     1      50.158   6.181  17.415  0.00  0.00    +0.000 A 
ATOM     32  C   UNL     1      49.205   5.074  17.346  0.00  0.00    +0.000 A 
BRANCH  24  34
ATOM     33  C   UNL     1      47.212   4.614  14.325  0.00  0.00    +0.000 C 
ATOM     34  O   UNL     1      47.940   5.369  15.295  0.00  0.00    +0.000 OA
ENDBRANCH  24  34
ENDBRANCH  20  31
ENDBRANCH  19  22
ENDBRANCH   1  19
TORSDOF 7
ENDMDL
