MODEL 1
REMARK VINA RESULT:    -8.005      0.000      0.000
REMARK INTER + INTRA:         -13.500
REMARK INTER:                 -12.217
REMARK INTRA:                  -1.283
REMARK UNBOUND:                -1.283
REMARK  Name = 
REMARK  10 active torsions:
REMARK  status: ('A' for Active; 'I' for Inactive)
REMARK    1  A    between atoms: C_2  and  C_3
REMARK    2  A    between atoms: C_6  and  O_7
REMARK    3  A    between atoms: O_7  and  C_8
REMARK    4  A    between atoms: C_8  and  C_9
REMARK    5  A    between atoms: C_9  and  C_10
REMARK    6  A    between atoms: C_9  and  C_12
REMARK    7  A    between atoms: C_10  and  O_11
REMARK    8  A    between atoms: C_16  and  N_17
REMARK    9  A    between atoms: N_17  and  C_18
REMARK   10  A    between atoms: C_20  and  O_21
REMARK                            x       y       z     vdW  Elec       q    Type
REMARK                         _______ _______ _______ _____ _____    ______ ____
ROOT
ATOM      1  C   UNL     1      43.958   4.865  12.119  0.00  0.00    +0.000 C 
ENDROOT
BRANCH   1   2
ATOM      2  C   UNL     1      45.357   5.404  12.392  0.00  0.00    +0.000 A 
ATOM      3  C   UNL     1      46.015   6.182  11.433  0.00  0.00    +0.000 A 
ATOM      4  C   UNL     1      47.266   6.741  11.711  0.00  0.00    +0.000 A 
ATOM      5  C   UNL     1      47.884   6.519  12.944  0.00  0.00    +0.000 A 
ATOM      6  C   UNL     1      47.259   5.731  13.909  0.00  0.00    +0.000 A 
ATOM      7  C   UNL     1      46.005   5.176  13.617  0.00  0.00    +0.000 A 
BRANCH   6   8
ATOM      8  N   UNL     1      47.822   5.458  15.175  0.00  0.00    +0.000 N 
ATOM      9  H   UNL     1      48.828   5.319  15.066  0.00  0.00    +0.000 HD
BRANCH   8  10
ATOM     10  C   UNL     1      47.247   4.642  16.199  0.00  0.00    +0.000 C 
ATOM     11  C   UNL     1      47.909   4.874  17.572  0.00  0.00    +0.000 C 
ATOM     12  C   UNL     1      48.218   3.370  17.664  0.00  0.00    +0.000 C 
ATOM     13  C   UNL     1      47.842   3.221  16.180  0.00  0.00    +0.000 C 
BRANCH  12  14
ATOM     14  O   UNL     1      47.439   2.604  18.605  0.00  0.00    +0.000 OA
ATOM     15  H   UNL     1      46.657   3.144  18.803  0.00  0.00    +0.000 HD
ENDBRANCH  12  14
ENDBRANCH   8  10
ENDBRANCH   6   8
ENDBRANCH   1   2
BRANCH   1  16
ATOM     16  C   UNL     1      43.631   4.839  10.616  0.00  0.00    +0.000 C 
BRANCH  16  17
ATOM     17  O   UNL     1      43.516   3.476  10.161  0.00  0.00    +0.000 OA
BRANCH  17  21
ATOM     18  C   UNL     1      46.533   2.447   7.545  0.00  0.00    +0.000 A 
ATOM     19  C   UNL     1      46.093   3.771   7.605  0.00  0.00    +0.000 A 
ATOM     20  C   UNL     1      45.074   4.115   8.500  0.00  0.00    +0.000 A 
ATOM     21  C   UNL     1      44.538   3.120   9.301  0.00  0.00    +0.000 A 
ATOM     22  N   UNL     1      44.948   1.836   9.263  0.00  0.00    +0.000 NA
ATOM     23  C   UNL     1      45.934   1.527   8.392  0.00  0.00    +0.000 A 
BRANCH  18  25
ATOM     24  N   UNL     1      48.391   1.707   5.912  0.00  0.00    +0.000 NA
ATOM     25  C   UNL     1      47.560   2.030   6.646  0.00  0.00    +0.000 C 
ENDBRANCH  18  25
ENDBRANCH  17  21
ENDBRANCH  16  17
ENDBRANCH   1  16
BRANCH   1  26
ATOM     26  C   UNL     1      43.738   3.500  12.810  0.00  0.00    +0.000 C 
BRANCH  26  27
ATOM     27  O   UNL     1      44.693   2.503  12.455  0.00  0.00    +0.000 OA
ATOM     28  H   UNL     1      44.351   1.637  12.729  0.00  0.00    +0.000 HD
ENDBRANCH  26  27
ENDBRANCH   1  26
TORSDOF 10
ENDMDL
MODEL 2
REMARK VINA RESULT:    -7.216      2.302      7.932
REMARK INTER + INTRA:         -12.297
REMARK INTER:                 -11.263
REMARK INTRA:                  -1.034
REMARK UNBOUND:                -1.283
REMARK  Name = 
REMARK  10 active torsions:
REMARK  status: ('A' for Active; 'I' for Inactive)
REMARK    1  A    between atoms: C_2  and  C_3
REMARK    2  A    between atoms: C_6  and  O_7
REMARK    3  A    between atoms: O_7  and  C_8
REMARK    4  A    between atoms: C_8  and  C_9
REMARK    5  A    between atoms: C_9  and  C_10
REMARK    6  A    between atoms: C_9  and  C_12
REMARK    7  A    between atoms: C_10  and  O_11
REMARK    8  A    between atoms: C_16  and  N_17
REMARK    9  A    between atoms: N_17  and  C_18
REMARK   10  A    between atoms: C_20  and  O_21
REMARK                            x       y       z     vdW  Elec       q    Type
REMARK                         _______ _______ _______ _____ _____    ______ ____
ROOT
ATOM      1  C   UNL     1      45.057   6.613  12.087  0.00  0.00    +0.000 C 
ENDROOT
BRANCH   1   2
ATOM      2  C   UNL     1      44.783   5.272  11.417  0.00  0.00    +0.000 A 
ATOM      3  C   UNL     1      44.114   4.258  12.112  0.00  0.00    +0.000 A 
ATOM      4  C   UNL     1      43.795   3.055  11.475  0.00  0.00    +0.000 A 
ATOM      5  C   UNL     1      44.154   2.841  10.141  0.00  0.00    +0.000 A 
ATOM      6  C   UNL     1      44.839   3.826   9.434  0.00  0.00    +0.000 A 
ATOM      7  C   UNL     1      45.153   5.028  10.084  0.00  0.00    +0.000 A 
BRANCH   6   8
ATOM      8  N   UNL     1      45.239   3.683   8.086  0.00  0.00    +0.000 N 
ATOM      9  H   UNL     1      44.498   3.203   7.573  0.00  0.00    +0.000 HD
BRANCH   8  10
ATOM     10  C   UNL     1      46.551   3.355   7.623  0.00  0.00    +0.000 C 
ATOM     11  C   UNL     1      46.648   3.368   6.084  0.00  0.00    +0.000 C 
ATOM     12  C   UNL     1      47.170   1.922   6.117  0.00  0.00    +0.000 C 
ATOM     13  C   UNL     1      46.771   1.830   7.599  0.00  0.00    +0.000 C 
BRANCH  12  14
ATOM     14  O   UNL     1      48.566   1.730   5.814  0.00  0.00    +0.000 OA
ATOM     15  H   UNL     1      48.756   0.799   6.014  0.00  0.00    +0.000 HD
ENDBRANCH  12  14
ENDBRANCH   8  10
ENDBRANCH   6   8
ENDBRANCH   1   2
BRANCH   1  16
ATOM     16  C   UNL     1      46.549   6.808  12.406  0.00  0.00    +0.000 C 
BRANCH  16  17
ATOM     17  O   UNL     1      47.164   5.533  12.680  0.00  0.00    +0.000 OA
BRANCH  17  21
ATOM     18  C   UNL     1      48.104   5.090  16.670  0.00  0.00    +0.000 A 
ATOM     19  C   UNL     1      47.219   4.195  16.066  0.00  0.00    +0.000 A 
ATOM     20  C   UNL     1      46.910   4.346  14.710  0.00  0.00    +0.000 A 
ATOM     21  C   UNL     1      47.501   5.386  14.013  0.00  0.00    +0.000 A 
ATOM     22  N   UNL     1      48.362   6.261  14.573  0.00  0.00    +0.000 NA
ATOM     23  C   UNL     1      48.646   6.095  15.883  0.00  0.00    +0.000 A 
BRANCH  18  25
ATOM     24  N   UNL     1      48.727   4.906  19.169  0.00  0.00    +0.000 NA
ATOM     25  C   UNL     1      48.451   4.997  18.051  0.00  0.00    +0.000 C 
ENDBRANCH  18  25
ENDBRANCH  17  21
ENDBRANCH  16  17
ENDBRANCH   1  16
BRANCH   1  26
ATOM     26  C   UNL     1      44.456   7.780  11.271  0.00  0.00    +0.000 C 
BRANCH  26  27
ATOM     27  O   UNL     1      43.053   7.673  11.041  0.00  0.00    +0.000 OA
ATOM     28  H   UNL     1      42.832   8.187  10.247  0.00  0.00    +0.000 HD
ENDBRANCH  26  27
ENDBRANCH   1  26
TORSDOF 10
ENDMDL
MODEL 3
REMARK VINA RESULT:    -7.035      2.499      8.175
REMARK INTER + INTRA:         -12.020
REMARK INTER:                 -10.951
REMARK INTRA:                  -1.069
REMARK UNBOUND:                -1.283
REMARK  Name = 
REMARK  10 active torsions:
REMARK  status: ('A' for Active; 'I' for Inactive)
REMARK    1  A    between atoms: C_2  and  C_3
REMARK    2  A    between atoms: C_6  and  O_7
REMARK    3  A    between atoms: O_7  and  C_8
REMARK    4  A    between atoms: C_8  and  C_9
REMARK    5  A    between atoms: C_9  and  C_10
REMARK    6  A    between atoms: C_9  and  C_12
REMARK    7  A    between atoms: C_10  and  O_11
REMARK    8  A    between atoms: C_16  and  N_17
REMARK    9  A    between atoms: N_17  and  C_18
REMARK   10  A    between atoms: C_20  and  O_21
REMARK                            x       y       z     vdW  Elec       q    Type
REMARK                         _______ _______ _______ _____ _____    ______ ____
ROOT
ATOM      1  C   UNL     1      46.365   5.049  13.831  0.00  0.00    +0.000 C 
ENDROOT
BRANCH   1   2
ATOM      2  C   UNL     1      45.187   4.725  12.920  0.00  0.00    +0.000 A 
ATOM      3  C   UNL     1      44.036   5.520  12.942  0.00  0.00    +0.000 A 
ATOM      4  C   UNL     1      42.986   5.271  12.053  0.00  0.00    +0.000 A 
ATOM      5  C   UNL     1      43.063   4.214  11.142  0.00  0.00    +0.000 A 
ATOM      6  C   UNL     1      44.189   3.394  11.115  0.00  0.00    +0.000 A 
ATOM      7  C   UNL     1      45.235   3.655  12.011  0.00  0.00    +0.000 A 
BRANCH   6   8
ATOM      8  N   UNL     1      44.339   2.305  10.227  0.00  0.00    +0.000 N 
ATOM      9  H   UNL     1      44.901   1.584  10.682  0.00  0.00    +0.000 HD
BRANCH   8  10
ATOM     10  C   UNL     1      44.558   2.387   8.817  0.00  0.00    +0.000 C 
ATOM     11  C   UNL     1      45.911   1.779   8.399  0.00  0.00    +0.000 C 
ATOM     12  C   UNL     1      46.287   3.108   7.723  0.00  0.00    +0.000 C 
ATOM     13  C   UNL     1      45.087   3.777   8.413  0.00  0.00    +0.000 C 
BRANCH  12  14
ATOM     14  O   UNL     1      46.292   3.125   6.282  0.00  0.00    +0.000 OA
ATOM     15  H   UNL     1      46.274   4.061   6.027  0.00  0.00    +0.000 HD
ENDBRANCH  12  14
ENDBRANCH   8  10
ENDBRANCH   6   8
ENDBRANCH   1   2
BRANCH   1  16
ATOM     16  C   UNL     1      47.062   3.779  14.350  0.00  0.00    +0.000 C 
BRANCH  16  17
ATOM     17  O   UNL     1      46.959   3.713  15.786  0.00  0.00    +0.000 OA
BRANCH  17  21
ATOM     18  C   UNL     1      50.625   3.656  17.674  0.00  0.00    +0.000 A 
ATOM     19  C   UNL     1      49.975   2.453  17.392  0.00  0.00    +0.000 A 
ATOM     20  C   UNL     1      48.735   2.479  16.744  0.00  0.00    +0.000 A 
ATOM     21  C   UNL     1      48.196   3.708  16.403  0.00  0.00    +0.000 A 
ATOM     22  N   UNL     1      48.807   4.883  16.662  0.00  0.00    +0.000 NA
ATOM     23  C   UNL     1      50.004   4.834  17.286  0.00  0.00    +0.000 A 
BRANCH  18  25
ATOM     24  N   UNL     1      52.900   3.741  18.892  0.00  0.00    +0.000 NA
ATOM     25  C   UNL     1      51.886   3.698  18.341  0.00  0.00    +0.000 C 
ENDBRANCH  18  25
ENDBRANCH  17  21
ENDBRANCH  16  17
ENDBRANCH   1  16
BRANCH   1  26
ATOM     26  C   UNL     1      47.340   6.041  13.157  0.00  0.00    +0.000 C 
BRANCH  26  27
ATOM     27  O   UNL     1      48.605   6.150  13.805  0.00  0.00    +0.000 OA
ATOM     28  H   UNL     1      49.231   5.556  13.360  0.00  0.00    +0.000 HD
ENDBRANCH  26  27
ENDBRANCH   1  26
TORSDOF 10
ENDMDL
MODEL 4
REMARK VINA RESULT:    -6.482      3.596      7.814
REMARK INTER + INTRA:         -11.176
REMARK INTER:                  -9.993
REMARK INTRA:                  -1.183
REMARK UNBOUND:                -1.283
REMARK  Name = 
REMARK  10 active torsions:
REMARK  status: ('A' for Active; 'I' for Inactive)
REMARK    1  A    between atoms: C_2  and  C_3
REMARK    2  A    between atoms: C_6  and  O_7
REMARK    3  A    between atoms: O_7  and  C_8
REMARK    4  A    between atoms: C_8  and  C_9
REMARK    5  A    between atoms: C_9  and  C_10
REMARK    6  A    between atoms: C_9  and  C_12
REMARK    7  A    between atoms: C_10  and  O_11
REMARK    8  A    between atoms: C_16  and  N_17
REMARK    9  A    between atoms: N_17  and  C_18
REMARK   10  A    between atoms: C_20  and  O_21
REMARK                            x       y       z     vdW  Elec       q    Type
REMARK                         _______ _______ _______ _____ _____    ______ ____
ROOT
ATOM      1  C   UNL     1      45.297   6.315  12.197  0.00  0.00    +0.000 C 
ENDROOT
BRANCH   1   2
ATOM      2  C   UNL     1      44.910   5.037  11.463  0.00  0.00    +0.000 A 
ATOM      3  C   UNL     1      44.164   4.047  12.113  0.00  0.00    +0.000 A 
ATOM      4  C   UNL     1      43.742   2.909  11.420  0.00  0.00    +0.000 A 
ATOM      5  C   UNL     1      44.074   2.734  10.074  0.00  0.00    +0.000 A 
ATOM      6  C   UNL     1      44.834   3.695   9.410  0.00  0.00    +0.000 A 
ATOM      7  C   UNL     1      45.250   4.832  10.116  0.00  0.00    +0.000 A 
BRANCH   6   8
ATOM      8  N   UNL     1      45.211   3.587   8.053  0.00  0.00    +0.000 N 
ATOM      9  H   UNL     1      44.480   3.086   7.546  0.00  0.00    +0.000 HD
BRANCH   8  10
ATOM     10  C   UNL     1      46.526   3.319   7.558  0.00  0.00    +0.000 C 
ATOM     11  C   UNL     1      46.572   3.266   6.018  0.00  0.00    +0.000 C 
ATOM     12  C   UNL     1      47.185   1.857   6.096  0.00  0.00    +0.000 C 
ATOM     13  C   UNL     1      46.839   1.810   7.594  0.00  0.00    +0.000 C 
BRANCH  12  14
ATOM     14  O   UNL     1      48.579   1.737   5.754  0.00  0.00    +0.000 OA
ATOM     15  H   UNL     1      48.957   2.624   5.861  0.00  0.00    +0.000 HD
ENDBRANCH  12  14
ENDBRANCH   8  10
ENDBRANCH   6   8
ENDBRANCH   1   2
BRANCH   1  16
ATOM     16  C   UNL     1      46.812   6.400  12.453  0.00  0.00    +0.000 C 
BRANCH  16  17
ATOM     17  O   UNL     1      47.121   7.604  13.182  0.00  0.00    +0.000 OA
BRANCH  17  21
ATOM     18  C   UNL     1      49.900   9.960  11.250  0.00  0.00    +0.000 A 
ATOM     19  C   UNL     1      50.219   8.639  11.572  0.00  0.00    +0.000 A 
ATOM     20  C   UNL     1      49.269   7.842  12.220  0.00  0.00    +0.000 A 
ATOM     21  C   UNL     1      48.037   8.400  12.519  0.00  0.00    +0.000 A 
ATOM     22  N   UNL     1      47.704   9.671  12.215  0.00  0.00    +0.000 NA
ATOM     23  C   UNL     1      48.637  10.421  11.587  0.00  0.00    +0.000 A 
BRANCH  18  25
ATOM     24  N   UNL     1      51.585  11.515  10.063  0.00  0.00    +0.000 NA
ATOM     25  C   UNL     1      50.828  10.826  10.598  0.00  0.00    +0.000 C 
ENDBRANCH  18  25
ENDBRANCH  17  21
ENDBRANCH  16  17
ENDBRANCH   1  16
BRANCH   1  26
ATOM     26  C   UNL     1      44.734   7.565  11.482  0.00  0.00    +0.000 C 
BRANCH  26  27
ATOM     27  O   UNL     1      44.611   8.712  12.318  0.00  0.00    +0.000 OA
ATOM     28  H   UNL     1      45.174   8.585  13.099  0.00  0.00    +0.000 HD
ENDBRANCH  26  27
ENDBRANCH   1  26
TORSDOF 10
ENDMDL
MODEL 5
REMARK VINA RESULT:    -6.237      2.537      7.953
REMARK INTER + INTRA:         -10.802
REMARK INTER:                  -9.972
REMARK INTRA:                  -0.830
REMARK UNBOUND:                -1.283
REMARK  Name = 
REMARK  10 active torsions:
REMARK  status: ('A' for Active; 'I' for Inactive)
REMARK    1  A    between atoms: C_2  and  C_3
REMARK    2  A    between atoms: C_6  and  O_7
REMARK    3  A    between atoms: O_7  and  C_8
REMARK    4  A    between atoms: C_8  and  C_9
REMARK    5  A    between atoms: C_9  and  C_10
REMARK    6  A    between atoms: C_9  and  C_12
REMARK    7  A    between atoms: C_10  and  O_11
REMARK    8  A    between atoms: C_16  and  N_17
REMARK    9  A    between atoms: N_17  and  C_18
REMARK   10  A    between atoms: C_20  and  O_21
REMARK                            x       y       z     vdW  Elec       q    Type
REMARK                         _______ _______ _______ _____ _____    ______ ____
ROOT
ATOM      1  C   UNL     1      45.926   6.755  12.777  0.00  0.00    +0.000 C 
ENDROOT
BRANCH   1   2
ATOM      2  C   UNL     1      45.141   5.593  12.179  0.00  0.00    +0.000 A 
ATOM      3  C   UNL     1      44.488   4.678  13.012  0.00  0.00    +0.000 A 
ATOM      4  C   UNL     1      43.704   3.657  12.466  0.00  0.00    +0.000 A 
ATOM      5  C   UNL     1      43.575   3.526  11.080  0.00  0.00    +0.000 A 
ATOM      6  C   UNL     1      44.232   4.412  10.229  0.00  0.00    +0.000 A 
ATOM      7  C   UNL     1      45.015   5.431  10.790  0.00  0.00    +0.000 A 
BRANCH   6   8
ATOM      8  N   UNL     1      44.153   4.341   8.820  0.00  0.00    +0.000 N 
ATOM      9  H   UNL     1      43.241   4.691   8.523  0.00  0.00    +0.000 HD
BRANCH   8  10
ATOM     10  C   UNL     1      44.647   3.282   7.997  0.00  0.00    +0.000 C 
ATOM     11  C   UNL     1      45.312   2.161   8.821  0.00  0.00    +0.000 C 
ATOM     12  C   UNL     1      46.595   2.326   7.989  0.00  0.00    +0.000 C 
ATOM     13  C   UNL     1      46.027   3.631   7.406  0.00  0.00    +0.000 C 
BRANCH  12  14
ATOM     14  O   UNL     1      46.897   1.278   7.048  0.00  0.00    +0.000 OA
ATOM     15  H   UNL     1      46.102   0.723   7.004  0.00  0.00    +0.000 HD
ENDBRANCH  12  14
ENDBRANCH   8  10
ENDBRANCH   6   8
ENDBRANCH   1   2
BRANCH   1  16
ATOM     16  C   UNL     1      47.415   6.707  12.390  0.00  0.00    +0.000 C 
BRANCH  16  17
ATOM     17  O   UNL     1      48.055   5.589  13.036  0.00  0.00    +0.000 OA
BRANCH  17  21
ATOM     18  C   UNL     1      48.603   6.199  17.077  0.00  0.00    +0.000 A 
ATOM     19  C   UNL     1      49.043   7.162  16.168  0.00  0.00    +0.000 A 
ATOM     20  C   UNL     1      48.847   6.953  14.798  0.00  0.00    +0.000 A 
ATOM     21  C   UNL     1      48.217   5.788  14.394  0.00  0.00    +0.000 A 
ATOM     22  N   UNL     1      47.780   4.844  15.254  0.00  0.00    +0.000 NA
ATOM     23  C   UNL     1      47.979   5.069  16.571  0.00  0.00    +0.000 A 
BRANCH  18  25
ATOM     24  N   UNL     1      48.913   6.464  19.627  0.00  0.00    +0.000 NA
ATOM     25  C   UNL     1      48.783   6.347  18.485  0.00  0.00    +0.000 C 
ENDBRANCH  18  25
ENDBRANCH  17  21
ENDBRANCH  16  17
ENDBRANCH   1  16
BRANCH   1  26
ATOM     26  C   UNL     1      45.260   8.110  12.450  0.00  0.00    +0.000 C 
BRANCH  26  27
ATOM     27  O   UNL     1      45.757   9.206  13.213  0.00  0.00    +0.000 OA
ATOM     28  H   UNL     1      46.359   9.723  12.654  0.00  0.00    +0.000 HD
ENDBRANCH  26  27
ENDBRANCH   1  26
TORSDOF 10
ENDMDL
MODEL 6
REMARK VINA RESULT:    -6.221      2.991      7.443
REMARK INTER + INTRA:         -10.777
REMARK INTER:                  -9.869
REMARK INTRA:                  -0.908
REMARK UNBOUND:                -1.283
REMARK  Name = 
REMARK  10 active torsions:
REMARK  status: ('A' for Active; 'I' for Inactive)
REMARK    1  A    between atoms: C_2  and  C_3
REMARK    2  A    between atoms: C_6  and  O_7
REMARK    3  A    between atoms: O_7  and  C_8
REMARK    4  A    between atoms: C_8  and  C_9
REMARK    5  A    between atoms: C_9  and  C_10
REMARK    6  A    between atoms: C_9  and  C_12
REMARK    7  A    between atoms: C_10  and  O_11
REMARK    8  A    between atoms: C_16  and  N_17
REMARK    9  A    between atoms: N_17  and  C_18
REMARK   10  A    between atoms: C_20  and  O_21
REMARK                            x       y       z     vdW  Elec       q    Type
REMARK                         _______ _______ _______ _____ _____    ______ ____
ROOT
ATOM      1  C   UNL     1      46.740   5.188  13.322  0.00  0.00    +0.000 C 
ENDROOT
BRANCH   1   2
ATOM      2  C   UNL     1      45.418   4.754  12.699  0.00  0.00    +0.000 A 
ATOM      3  C   UNL     1      44.238   5.446  12.992  0.00  0.00    +0.000 A 
ATOM      4  C   UNL     1      43.039   5.098  12.364  0.00  0.00    +0.000 A 
ATOM      5  C   UNL     1      42.998   4.044  11.447  0.00  0.00    +0.000 A 
ATOM      6  C   UNL     1      44.155   3.326  11.154  0.00  0.00    +0.000 A 
ATOM      7  C   UNL     1      45.351   3.685  11.791  0.00  0.00    +0.000 A 
BRANCH   6   8
ATOM      8  N   UNL     1      44.193   2.247  10.242  0.00  0.00    +0.000 N 
ATOM      9  H   UNL     1      44.654   1.453  10.690  0.00  0.00    +0.000 HD
BRANCH   8  10
ATOM     10  C   UNL     1      44.452   2.333   8.839  0.00  0.00    +0.000 C 
ATOM     11  C   UNL     1      45.876   1.865   8.477  0.00  0.00    +0.000 C 
ATOM     12  C   UNL     1      46.134   3.218   7.793  0.00  0.00    +0.000 C 
ATOM     13  C   UNL     1      44.847   3.766   8.431  0.00  0.00    +0.000 C 
BRANCH  12  14
ATOM     14  O   UNL     1      46.189   3.216   6.353  0.00  0.00    +0.000 OA
ATOM     15  H   UNL     1      45.272   3.318   6.052  0.00  0.00    +0.000 HD
ENDBRANCH  12  14
ENDBRANCH   8  10
ENDBRANCH   6   8
ENDBRANCH   1   2
BRANCH   1  16
ATOM     16  C   UNL     1      46.866   6.719  13.406  0.00  0.00    +0.000 C 
BRANCH  16  17
ATOM     17  O   UNL     1      47.515   7.226  12.224  0.00  0.00    +0.000 OA
BRANCH  17  21
ATOM     18  C   UNL     1      51.393   8.440  12.926  0.00  0.00    +0.000 A 
ATOM     19  C   UNL     1      50.947   8.280  11.613  0.00  0.00    +0.000 A 
ATOM     20  C   UNL     1      49.628   7.875  11.381  0.00  0.00    +0.000 A 
ATOM     21  C   UNL     1      48.808   7.649  12.474  0.00  0.00    +0.000 A 
ATOM     22  N   UNL     1      49.214   7.800  13.751  0.00  0.00    +0.000 NA
ATOM     23  C   UNL     1      50.492   8.193  13.950  0.00  0.00    +0.000 A 
BRANCH  18  25
ATOM     24  N   UNL     1      53.814   9.163  13.459  0.00  0.00    +0.000 NA
ATOM     25  C   UNL     1      52.729   8.840  13.229  0.00  0.00    +0.000 C 
ENDBRANCH  18  25
ENDBRANCH  17  21
ENDBRANCH  16  17
ENDBRANCH   1  16
BRANCH   1  26
ATOM     26  C   UNL     1      46.980   4.486  14.678  0.00  0.00    +0.000 C 
BRANCH  26  27
ATOM     27  O   UNL     1      47.472   3.153  14.568  0.00  0.00    +0.000 OA
ATOM     28  H   UNL     1      47.086   2.622  15.284  0.00  0.00    +0.000 HD
ENDBRANCH  26  27
ENDBRANCH   1  26
TORSDOF 10
ENDMDL
MODEL 7
REMARK VINA RESULT:    -6.122      3.177      8.177
REMARK INTER + INTRA:         -10.627
REMARK INTER:                  -9.568
REMARK INTRA:                  -1.059
REMARK UNBOUND:                -1.283
REMARK  Name = 
REMARK  10 active torsions:
REMARK  status: ('A' for Active; 'I' for Inactive)
REMARK    1  A    between atoms: C_2  and  C_3
REMARK    2  A    between atoms: C_6  and  O_7
REMARK    3  A    between atoms: O_7  and  C_8
REMARK    4  A    between atoms: C_8  and  C_9
REMARK    5  A    between atoms: C_9  and  C_10
REMARK    6  A    between atoms: C_9  and  C_12
REMARK    7  A    between atoms: C_10  and  O_11
REMARK    8  A    between atoms: C_16  and  N_17
REMARK    9  A    between atoms: N_17  and  C_18
REMARK   10  A    between atoms: C_20  and  O_21
REMARK                            x       y       z     vdW  Elec       q    Type
REMARK                         _______ _______ _______ _____ _____    ______ ____
ROOT
ATOM      1  C   UNL     1      45.427   6.383  11.882  0.00  0.00    +0.000 C 
ENDROOT
BRANCH   1   2
ATOM      2  C   UNL     1      44.939   5.018  11.412  0.00  0.00    +0.000 A 
ATOM      3  C   UNL     1      44.106   4.245  12.227  0.00  0.00    +0.000 A 
ATOM      4  C   UNL     1      43.595   3.028  11.767  0.00  0.00    +0.000 A 
ATOM      5  C   UNL     1      43.924   2.558  10.492  0.00  0.00    +0.000 A 
ATOM      6  C   UNL     1      44.768   3.298   9.669  0.00  0.00    +0.000 A 
ATOM      7  C   UNL     1      45.273   4.517  10.143  0.00  0.00    +0.000 A 
BRANCH   6   8
ATOM      8  N   UNL     1      45.148   2.888   8.372  0.00  0.00    +0.000 N 
ATOM      9  H   UNL     1      44.546   2.116   8.081  0.00  0.00    +0.000 HD
BRANCH   8  10
ATOM     10  C   UNL     1      46.484   2.780   7.875  0.00  0.00    +0.000 C 
ATOM     11  C   UNL     1      46.587   3.162   6.385  0.00  0.00    +0.000 C 
ATOM     12  C   UNL     1      47.223   1.793   6.090  0.00  0.00    +0.000 C 
ATOM     13  C   UNL     1      46.825   1.325   7.500  0.00  0.00    +0.000 C 
BRANCH  12  14
ATOM     14  O   UNL     1      48.631   1.785   5.783  0.00  0.00    +0.000 OA
ATOM     15  H   UNL     1      49.089   1.892   6.632  0.00  0.00    +0.000 HD
ENDBRANCH  12  14
ENDBRANCH   8  10
ENDBRANCH   6   8
ENDBRANCH   1   2
BRANCH   1  16
ATOM     16  C   UNL     1      46.896   6.637  11.500  0.00  0.00    +0.000 C 
BRANCH  16  17
ATOM     17  O   UNL     1      47.299   7.949  11.939  0.00  0.00    +0.000 OA
BRANCH  17  21
ATOM     18  C   UNL     1      48.851   7.853  15.759  0.00  0.00    +0.000 A 
ATOM     19  C   UNL     1      49.024   6.754  14.915  0.00  0.00    +0.000 A 
ATOM     20  C   UNL     1      48.502   6.796  13.618  0.00  0.00    +0.000 A 
ATOM     21  C   UNL     1      47.829   7.937  13.217  0.00  0.00    +0.000 A 
ATOM     22  N   UNL     1      47.652   9.013  14.011  0.00  0.00    +0.000 NA
ATOM     23  C   UNL     1      48.166   8.950  15.259  0.00  0.00    +0.000 A 
BRANCH  18  25
ATOM     24  N   UNL     1      49.765   7.891  18.173  0.00  0.00    +0.000 NA
ATOM     25  C   UNL     1      49.350   7.868  17.096  0.00  0.00    +0.000 C 
ENDBRANCH  18  25
ENDBRANCH  17  21
ENDBRANCH  16  17
ENDBRANCH   1  16
BRANCH   1  26
ATOM     26  C   UNL     1      44.478   7.510  11.416  0.00  0.00    +0.000 C 
BRANCH  26  27
ATOM     27  O   UNL     1      44.634   8.738  12.123  0.00  0.00    +0.000 OA
ATOM     28  H   UNL     1      44.154   9.432  11.644  0.00  0.00    +0.000 HD
ENDBRANCH  26  27
ENDBRANCH   1  26
TORSDOF 10
ENDMDL
MODEL 8
REMARK VINA RESULT:    -5.891      2.345      8.191
REMARK INTER + INTRA:         -10.274
REMARK INTER:                 -10.125
REMARK INTRA:                  -0.148
REMARK UNBOUND:                -1.283
REMARK  Name = 
REMARK  10 active torsions:
REMARK  status: ('A' for Active; 'I' for Inactive)
REMARK    1  A    between atoms: C_2  and  C_3
REMARK    2  A    between atoms: C_6  and  O_7
REMARK    3  A    between atoms: O_7  and  C_8
REMARK    4  A    between atoms: C_8  and  C_9
REMARK    5  A    between atoms: C_9  and  C_10
REMARK    6  A    between atoms: C_9  and  C_12
REMARK    7  A    between atoms: C_10  and  O_11
REMARK    8  A    between atoms: C_16  and  N_17
REMARK    9  A    between atoms: N_17  and  C_18
REMARK   10  A    between atoms: C_20  and  O_21
REMARK                            x       y       z     vdW  Elec       q    Type
REMARK                         _______ _______ _______ _____ _____    ______ ____
ROOT
ATOM      1  C   UNL     1      45.255   4.024  12.965  0.00  0.00    +0.000 C 
ENDROOT
BRANCH   1   2
ATOM      2  C   UNL     1      45.321   4.236  11.457  0.00  0.00    +0.000 A 
ATOM      3  C   UNL     1      45.506   5.519  10.931  0.00  0.00    +0.000 A 
ATOM      4  C   UNL     1      45.643   5.706   9.552  0.00  0.00    +0.000 A 
ATOM      5  C   UNL     1      45.580   4.617   8.679  0.00  0.00    +0.000 A 
ATOM      6  C   UNL     1      45.375   3.332   9.175  0.00  0.00    +0.000 A 
ATOM      7  C   UNL     1      45.239   3.158  10.560  0.00  0.00    +0.000 A 
BRANCH   6   8
ATOM      8  N   UNL     1      45.296   2.184   8.357  0.00  0.00    +0.000 N 
ATOM      9  H   UNL     1      45.252   1.356   8.953  0.00  0.00    +0.000 HD
BRANCH   8  10
ATOM     10  C   UNL     1      46.007   1.964   7.136  0.00  0.00    +0.000 C 
ATOM     11  C   UNL     1      47.134   0.925   7.295  0.00  0.00    +0.000 C 
ATOM     12  C   UNL     1      48.144   1.955   6.760  0.00  0.00    +0.000 C 
ATOM     13  C   UNL     1      47.075   3.051   6.908  0.00  0.00    +0.000 C 
BRANCH  12  14
ATOM     14  O   UNL     1      48.656   1.731   5.432  0.00  0.00    +0.000 OA
ATOM     15  H   UNL     1      48.355   2.486   4.900  0.00  0.00    +0.000 HD
ENDBRANCH  12  14
ENDBRANCH   8  10
ENDBRANCH   6   8
ENDBRANCH   1   2
BRANCH   1  16
ATOM     16  C   UNL     1      46.566   4.424  13.663  0.00  0.00    +0.000 C 
BRANCH  16  17
ATOM     17  O   UNL     1      47.174   3.267  14.270  0.00  0.00    +0.000 OA
BRANCH  17  21
ATOM     18  C   UNL     1      48.550   4.090  18.069  0.00  0.00    +0.000 A 
ATOM     19  C   UNL     1      47.697   4.993  17.434  0.00  0.00    +0.000 A 
ATOM     20  C   UNL     1      47.227   4.705  16.148  0.00  0.00    +0.000 A 
ATOM     21  C   UNL     1      47.630   3.522  15.551  0.00  0.00    +0.000 A 
ATOM     22  N   UNL     1      48.450   2.632  16.146  0.00  0.00    +0.000 NA
ATOM     23  C   UNL     1      48.890   2.931  17.388  0.00  0.00    +0.000 A 
BRANCH  18  25
ATOM     24  N   UNL     1      49.482   4.519  20.439  0.00  0.00    +0.000 NA
ATOM     25  C   UNL     1      49.073   4.330  19.376  0.00  0.00    +0.000 C 
ENDBRANCH  18  25
ENDBRANCH  17  21
ENDBRANCH  16  17
ENDBRANCH   1  16
BRANCH   1  26
ATOM     26  C   UNL     1      44.011   4.708  13.575  0.00  0.00    +0.000 C 
BRANCH  26  27
ATOM     27  O   UNL     1      42.800   4.458  12.868  0.00  0.00    +0.000 OA
ATOM     28  H   UNL     1      42.559   3.525  12.989  0.00  0.00    +0.000 HD
ENDBRANCH  26  27
ENDBRANCH   1  26
TORSDOF 10
ENDMDL
MODEL 9
REMARK VINA RESULT:    -5.809      3.455      7.230
REMARK INTER + INTRA:         -10.149
REMARK INTER:                  -8.568
REMARK INTRA:                  -1.582
REMARK UNBOUND:                -1.283
REMARK  Name = 
REMARK  10 active torsions:
REMARK  status: ('A' for Active; 'I' for Inactive)
REMARK    1  A    between atoms: C_2  and  C_3
REMARK    2  A    between atoms: C_6  and  O_7
REMARK    3  A    between atoms: O_7  and  C_8
REMARK    4  A    between atoms: C_8  and  C_9
REMARK    5  A    between atoms: C_9  and  C_10
REMARK    6  A    between atoms: C_9  and  C_12
REMARK    7  A    between atoms: C_10  and  O_11
REMARK    8  A    between atoms: C_16  and  N_17
REMARK    9  A    between atoms: N_17  and  C_18
REMARK   10  A    between atoms: C_20  and  O_21
REMARK                            x       y       z     vdW  Elec       q    Type
REMARK                         _______ _______ _______ _____ _____    ______ ____
ROOT
ATOM      1  C   UNL     1      48.022   9.533  12.591  0.00  0.00    +0.000 C 
ENDROOT
BRANCH   1   2
ATOM      2  C   UNL     1      46.578   9.524  12.104  0.00  0.00    +0.000 A 
ATOM      3  C   UNL     1      45.955  10.714  11.714  0.00  0.00    +0.000 A 
ATOM      4  C   UNL     1      44.657  10.698  11.194  0.00  0.00    +0.000 A 
ATOM      5  C   UNL     1      43.957   9.494  11.073  0.00  0.00    +0.000 A 
ATOM      6  C   UNL     1      44.547   8.297  11.473  0.00  0.00    +0.000 A 
ATOM      7  C   UNL     1      45.849   8.328  11.993  0.00  0.00    +0.000 A 
BRANCH   6   8
ATOM      8  N   UNL     1      43.903   7.043  11.385  0.00  0.00    +0.000 N 
ATOM      9  H   UNL     1      42.896   7.195  11.307  0.00  0.00    +0.000 HD
BRANCH   8  10
ATOM     10  C   UNL     1      44.241   5.864  12.119  0.00  0.00    +0.000 C 
ATOM     11  C   UNL     1      44.782   4.743  11.210  0.00  0.00    +0.000 C 
ATOM     12  C   UNL     1      43.696   3.797  11.748  0.00  0.00    +0.000 C 
ATOM     13  C   UNL     1      42.994   5.002  12.396  0.00  0.00    +0.000 C 
BRANCH  12  14
ATOM     14  O   UNL     1      44.131   2.750  12.638  0.00  0.00    +0.000 OA
ATOM     15  H   UNL     1      44.578   2.095  12.079  0.00  0.00    +0.000 HD
ENDBRANCH  12  14
ENDBRANCH   8  10
ENDBRANCH   6   8
ENDBRANCH   1   2
BRANCH   1  16
ATOM     16  C   UNL     1      48.185   8.801  13.935  0.00  0.00    +0.000 C 
BRANCH  16  17
ATOM     17  O   UNL     1      48.959   7.600  13.750  0.00  0.00    +0.000 OA
BRANCH  17  21
ATOM     18  C   UNL     1      47.576   4.520  16.118  0.00  0.00    +0.000 A 
ATOM     19  C   UNL     1      47.037   4.706  14.843  0.00  0.00    +0.000 A 
ATOM     20  C   UNL     1      47.516   5.748  14.042  0.00  0.00    +0.000 A 
ATOM     21  C   UNL     1      48.516   6.561  14.548  0.00  0.00    +0.000 A 
ATOM     22  N   UNL     1      49.055   6.399  15.774  0.00  0.00    +0.000 NA
ATOM     23  C   UNL     1      48.578   5.385  16.530  0.00  0.00    +0.000 A 
BRANCH  18  25
ATOM     24  N   UNL     1      46.766   2.633  17.683  0.00  0.00    +0.000 NA
ATOM     25  C   UNL     1      47.124   3.483  16.988  0.00  0.00    +0.000 C 
ENDBRANCH  18  25
ENDBRANCH  17  21
ENDBRANCH  16  17
ENDBRANCH   1  16
BRANCH   1  26
ATOM     26  C   UNL     1      48.987   9.016  11.500  0.00  0.00    +0.000 C 
BRANCH  26  27
ATOM     27  O   UNL     1      50.351   9.370  11.709  0.00  0.00    +0.000 OA
ATOM     28  H   UNL     1      50.906   8.606  11.478  0.00  0.00    +0.000 HD
ENDBRANCH  26  27
ENDBRANCH   1  26
TORSDOF 10
ENDMDL
