MODEL 1
REMARK VINA RESULT:    -9.321      0.000      0.000
REMARK INTER + INTRA:         -14.359
REMARK INTER:                 -13.136
REMARK INTRA:                  -1.223
REMARK UNBOUND:                -1.223
REMARK  Name = 
REMARK  7 active torsions:
REMARK  status: ('A' for Active; 'I' for Inactive)
REMARK    1  A    between atoms: C_2  and  C_4
REMARK    2  A    between atoms: C_7  and  N_8
REMARK    3  A    between atoms: N_8  and  C_9
REMARK    4  A    between atoms: C_9  and  C_10
REMARK    5  A    between atoms: C_10  and  C_13
REMARK    6  A    between atoms: C_15  and  C_16
REMARK    7  A    between atoms: C_19  and  C_20
REMARK                            x       y       z     vdW  Elec       q    Type
REMARK                         _______ _______ _______ _____ _____    ______ ____
ROOT
ATOM      1  C   UNL     1      43.439   5.503  11.903  0.00  0.00    +0.000 C 
ATOM      2  F   UNL     1      42.744   6.596  11.437  0.00  0.00    +0.000 F 
ATOM      3  F   UNL     1      42.790   5.156  13.061  0.00  0.00    +0.000 F 
ENDROOT
BRANCH   1   4
ATOM      4  C   UNL     1      44.895   5.852  12.180  0.00  0.00    +0.000 A 
ATOM      5  C   UNL     1      45.485   5.338  13.340  0.00  0.00    +0.000 A 
ATOM      6  C   UNL     1      46.821   5.634  13.649  0.00  0.00    +0.000 A 
ATOM      7  C   UNL     1      47.509   6.466  12.757  0.00  0.00    +0.000 A 
ATOM      8  C   UNL     1      46.863   6.934  11.626  0.00  0.00    +0.000 A 
ATOM      9  N   UNL     1      45.581   6.645  11.318  0.00  0.00    +0.000 NA
BRANCH   6  10
ATOM     10  C   UNL     1      47.478   5.109  14.862  0.00  0.00    +0.000 A 
ATOM     11  C   UNL     1      48.273   5.897  15.693  0.00  0.00    +0.000 A 
ATOM     12  C   UNL     1      48.882   5.321  16.808  0.00  0.00    +0.000 A 
ATOM     13  C   UNL     1      48.689   3.965  17.079  0.00  0.00    +0.000 A 
ATOM     14  C   UNL     1      47.873   3.256  16.211  0.00  0.00    +0.000 A 
ATOM     15  N   UNL     1      47.268   3.795  15.126  0.00  0.00    +0.000 NA
BRANCH  13  16
ATOM     16  C   UNL     1      49.318   3.273  18.246  0.00  0.00    +0.000 C 
ATOM     17  F   UNL     1      50.208   4.051  18.922  0.00  0.00    +0.000 F 
ATOM     18  F   UNL     1      48.402   2.867  19.168  0.00  0.00    +0.000 F 
ATOM     19  F   UNL     1      50.004   2.155  17.882  0.00  0.00    +0.000 F 
ENDBRANCH  13  16
ENDBRANCH   6  10
ENDBRANCH   1   4
BRANCH   1  20
ATOM     20  C   UNL     1      43.253   4.363  10.872  0.00  0.00    +0.000 C 
BRANCH  20  21
ATOM     21  N   UNL     1      43.671   4.786   9.512  0.00  0.00    +0.000 N 
ATOM     22  H   UNL     1      44.002   5.748   9.502  0.00  0.00    +0.000 HD
BRANCH  21  26
ATOM     23  C   UNL     1      46.370   2.206   7.802  0.00  0.00    +0.000 A 
ATOM     24  C   UNL     1      46.335   3.540   7.428  0.00  0.00    +0.000 A 
ATOM     25  N   UNL     1      45.449   4.426   7.958  0.00  0.00    +0.000 NA
ATOM     26  C   UNL     1      44.584   3.941   8.873  0.00  0.00    +0.000 A 
ATOM     27  C   UNL     1      44.637   2.587   9.238  0.00  0.00    +0.000 A 
ATOM     28  N   UNL     1      45.511   1.684   8.719  0.00  0.00    +0.000 NA
BRANCH  23  30
ATOM     29  N   UNL     1      48.461   1.898   6.627  0.00  0.00    +0.000 N 
ATOM     30  C   UNL     1      47.379   1.290   7.205  0.00  0.00    +0.000 C 
ATOM     31  O   UNL     1      47.254   0.073   7.225  0.00  0.00    +0.000 OA
ATOM     32  H   UNL     1      49.180   1.334   6.196  0.00  0.00    +0.000 HD
ATOM     33  H   UNL     1      48.532   2.910   6.625  0.00  0.00    +0.000 HD
ENDBRANCH  23  30
ENDBRANCH  21  26
ENDBRANCH  20  21
ENDBRANCH   1  20
TORSDOF 7
ENDMDL
MODEL 2
REMARK VINA RESULT:    -8.460      0.990      1.564
REMARK INTER + INTRA:         -13.146
REMARK INTER:                 -12.053
REMARK INTRA:                  -1.092
REMARK UNBOUND:                -1.223
REMARK  Name = 
REMARK  7 active torsions:
REMARK  status: ('A' for Active; 'I' for Inactive)
REMARK    1  A    between atoms: C_2  and  C_4
REMARK    2  A    between atoms: C_7  and  N_8
REMARK    3  A    between atoms: N_8  and  C_9
REMARK    4  A    between atoms: C_9  and  C_10
REMARK    5  A    between atoms: C_10  and  C_13
REMARK    6  A    between atoms: C_15  and  C_16
REMARK    7  A    between atoms: C_19  and  C_20
REMARK                            x       y       z     vdW  Elec       q    Type
REMARK                         _______ _______ _______ _____ _____    ______ ____
ROOT
ATOM      1  C   UNL     1      43.708   5.333  11.981  0.00  0.00    +0.000 C 
ATOM      2  F   UNL     1      43.113   6.250  11.146  0.00  0.00    +0.000 F 
ATOM      3  F   UNL     1      42.955   5.377  13.128  0.00  0.00    +0.000 F 
ENDROOT
BRANCH   1   4
ATOM      4  C   UNL     1      45.157   5.707  12.268  0.00  0.00    +0.000 A 
ATOM      5  C   UNL     1      45.707   5.311  13.491  0.00  0.00    +0.000 A 
ATOM      6  C   UNL     1      47.034   5.636  13.811  0.00  0.00    +0.000 A 
ATOM      7  C   UNL     1      47.753   6.375  12.864  0.00  0.00    +0.000 A 
ATOM      8  C   UNL     1      47.144   6.728  11.671  0.00  0.00    +0.000 A 
ATOM      9  N   UNL     1      45.872   6.410  11.354  0.00  0.00    +0.000 NA
BRANCH   6  10
ATOM     10  C   UNL     1      47.651   5.234  15.091  0.00  0.00    +0.000 A 
ATOM     11  C   UNL     1      47.230   4.123  15.819  0.00  0.00    +0.000 A 
ATOM     12  C   UNL     1      47.847   3.824  17.034  0.00  0.00    +0.000 A 
ATOM     13  C   UNL     1      48.879   4.638  17.505  0.00  0.00    +0.000 A 
ATOM     14  C   UNL     1      49.247   5.715  16.714  0.00  0.00    +0.000 A 
ATOM     15  N   UNL     1      48.665   6.022  15.530  0.00  0.00    +0.000 NA
BRANCH  13  16
ATOM     16  C   UNL     1      49.580   4.390  18.803  0.00  0.00    +0.000 C 
ATOM     17  F   UNL     1      50.752   3.711  18.664  0.00  0.00    +0.000 F 
ATOM     18  F   UNL     1      49.891   5.543  19.457  0.00  0.00    +0.000 F 
ATOM     19  F   UNL     1      48.828   3.658  19.671  0.00  0.00    +0.000 F 
ENDBRANCH  13  16
ENDBRANCH   6  10
ENDBRANCH   1   4
BRANCH   1  20
ATOM     20  C   UNL     1      43.538   3.938  11.332  0.00  0.00    +0.000 C 
BRANCH  20  21
ATOM     21  N   UNL     1      43.424   4.035   9.855  0.00  0.00    +0.000 N 
ATOM     22  H   UNL     1      43.197   4.981   9.556  0.00  0.00    +0.000 HD
BRANCH  21  26
ATOM     23  C   UNL     1      46.580   2.692   7.598  0.00  0.00    +0.000 A 
ATOM     24  C   UNL     1      45.832   1.809   8.359  0.00  0.00    +0.000 A 
ATOM     25  N   UNL     1      44.787   2.212   9.133  0.00  0.00    +0.000 NA
ATOM     26  C   UNL     1      44.511   3.534   9.133  0.00  0.00    +0.000 A 
ATOM     27  C   UNL     1      45.282   4.410   8.354  0.00  0.00    +0.000 A 
ATOM     28  N   UNL     1      46.331   4.030   7.578  0.00  0.00    +0.000 NA
BRANCH  23  30
ATOM     29  N   UNL     1      48.023   2.970   5.677  0.00  0.00    +0.000 N 
ATOM     30  C   UNL     1      47.697   2.188   6.752  0.00  0.00    +0.000 C 
ATOM     31  O   UNL     1      48.285   1.144   6.997  0.00  0.00    +0.000 OA
ATOM     32  H   UNL     1      48.766   2.681   5.057  0.00  0.00    +0.000 HD
ATOM     33  H   UNL     1      47.511   3.828   5.501  0.00  0.00    +0.000 HD
ENDBRANCH  23  30
ENDBRANCH  21  26
ENDBRANCH  20  21
ENDBRANCH   1  20
TORSDOF 7
ENDMDL
MODEL 3
REMARK VINA RESULT:    -8.415      4.089      8.163
REMARK INTER + INTRA:         -13.081
REMARK INTER:                 -12.035
REMARK INTRA:                  -1.046
REMARK UNBOUND:                -1.223
REMARK  Name = 
REMARK  7 active torsions:
REMARK  status: ('A' for Active; 'I' for Inactive)
REMARK    1  A    between atoms: C_2  and  C_4
REMARK    2  A    between atoms: C_7  and  N_8
REMARK    3  A    between atoms: N_8  and  C_9
REMARK    4  A    between atoms: C_9  and  C_10
REMARK    5  A    between atoms: C_10  and  C_13
REMARK    6  A    between atoms: C_15  and  C_16
REMARK    7  A    between atoms: C_19  and  C_20
REMARK                            x       y       z     vdW  Elec       q    Type
REMARK                         _______ _______ _______ _____ _____    ______ ____
ROOT
ATOM      1  C   UNL     1      45.810   8.264  12.506  0.00  0.00    +0.000 C 
ATOM      2  F   UNL     1      44.930   9.261  12.857  0.00  0.00    +0.000 F 
ATOM      3  F   UNL     1      46.481   8.768  11.420  0.00  0.00    +0.000 F 
ENDROOT
BRANCH   1   4
ATOM      4  C   UNL     1      45.074   6.981  12.142  0.00  0.00    +0.000 A 
ATOM      5  C   UNL     1      45.555   6.230  11.065  0.00  0.00    +0.000 A 
ATOM      6  C   UNL     1      44.911   5.045  10.681  0.00  0.00    +0.000 A 
ATOM      7  C   UNL     1      43.777   4.673  11.412  0.00  0.00    +0.000 A 
ATOM      8  C   UNL     1      43.361   5.463  12.471  0.00  0.00    +0.000 A 
ATOM      9  N   UNL     1      43.982   6.599  12.851  0.00  0.00    +0.000 NA
BRANCH   6  10
ATOM     10  C   UNL     1      45.390   4.224   9.551  0.00  0.00    +0.000 A 
ATOM     11  C   UNL     1      45.230   2.841   9.498  0.00  0.00    +0.000 A 
ATOM     12  C   UNL     1      45.734   2.132   8.407  0.00  0.00    +0.000 A 
ATOM     13  C   UNL     1      46.389   2.815   7.381  0.00  0.00    +0.000 A 
ATOM     14  C   UNL     1      46.494   4.192   7.503  0.00  0.00    +0.000 A 
ATOM     15  N   UNL     1      46.009   4.901   8.551  0.00  0.00    +0.000 NA
BRANCH  13  16
ATOM     16  C   UNL     1      46.967   2.125   6.186  0.00  0.00    +0.000 C 
ATOM     17  F   UNL     1      46.399   2.511   5.011  0.00  0.00    +0.000 F 
ATOM     18  F   UNL     1      48.302   2.352   6.047  0.00  0.00    +0.000 F 
ATOM     19  F   UNL     1      46.820   0.773   6.243  0.00  0.00    +0.000 F 
ENDBRANCH  13  16
ENDBRANCH   6  10
ENDBRANCH   1   4
BRANCH   1  20
ATOM     20  C   UNL     1      46.814   8.101  13.673  0.00  0.00    +0.000 C 
BRANCH  20  21
ATOM     21  N   UNL     1      47.758   6.982  13.426  0.00  0.00    +0.000 N 
ATOM     22  H   UNL     1      48.692   7.319  13.203  0.00  0.00    +0.000 HD
BRANCH  21  26
ATOM     23  C   UNL     1      47.719   4.077  16.328  0.00  0.00    +0.000 A 
ATOM     24  C   UNL     1      48.502   5.212  16.477  0.00  0.00    +0.000 A 
ATOM     25  N   UNL     1      48.556   6.191  15.534  0.00  0.00    +0.000 NA
ATOM     26  C   UNL     1      47.808   6.005  14.426  0.00  0.00    +0.000 A 
ATOM     27  C   UNL     1      47.023   4.849  14.297  0.00  0.00    +0.000 A 
ATOM     28  N   UNL     1      46.957   3.857  15.223  0.00  0.00    +0.000 NA
BRANCH  23  30
ATOM     29  N   UNL     1      48.891   2.742  17.970  0.00  0.00    +0.000 N 
ATOM     30  C   UNL     1      47.682   3.051  17.405  0.00  0.00    +0.000 C 
ATOM     31  O   UNL     1      46.643   2.514  17.765  0.00  0.00    +0.000 OA
ATOM     32  H   UNL     1      48.937   2.046  18.701  0.00  0.00    +0.000 HD
ATOM     33  H   UNL     1      49.734   3.203  17.645  0.00  0.00    +0.000 HD
ENDBRANCH  23  30
ENDBRANCH  21  26
ENDBRANCH  20  21
ENDBRANCH   1  20
TORSDOF 7
ENDMDL
MODEL 4
REMARK VINA RESULT:    -8.220      2.607      3.231
REMARK INTER + INTRA:         -12.806
REMARK INTER:                 -11.653
REMARK INTRA:                  -1.153
REMARK UNBOUND:                -1.223
REMARK  Name = 
REMARK  7 active torsions:
REMARK  status: ('A' for Active; 'I' for Inactive)
REMARK    1  A    between atoms: C_2  and  C_4
REMARK    2  A    between atoms: C_7  and  N_8
REMARK    3  A    between atoms: N_8  and  C_9
REMARK    4  A    between atoms: C_9  and  C_10
REMARK    5  A    between atoms: C_10  and  C_13
REMARK    6  A    between atoms: C_15  and  C_16
REMARK    7  A    between atoms: C_19  and  C_20
REMARK                            x       y       z     vdW  Elec       q    Type
REMARK                         _______ _______ _______ _____ _____    ______ ____
ROOT
ATOM      1  C   UNL     1      44.047   4.563  12.332  0.00  0.00    +0.000 C 
ATOM      2  F   UNL     1      43.145   4.515  13.370  0.00  0.00    +0.000 F 
ATOM      3  F   UNL     1      44.917   3.533  12.588  0.00  0.00    +0.000 F 
ENDROOT
BRANCH   1   4
ATOM      4  C   UNL     1      44.780   5.898  12.299  0.00  0.00    +0.000 A 
ATOM      5  C   UNL     1      46.041   5.970  12.900  0.00  0.00    +0.000 A 
ATOM      6  C   UNL     1      46.757   7.176  12.906  0.00  0.00    +0.000 A 
ATOM      7  C   UNL     1      46.144   8.281  12.303  0.00  0.00    +0.000 A 
ATOM      8  C   UNL     1      44.896   8.135  11.722  0.00  0.00    +0.000 A 
ATOM      9  N   UNL     1      44.206   6.975  11.704  0.00  0.00    +0.000 NA
BRANCH   6  10
ATOM     10  C   UNL     1      48.091   7.292  13.528  0.00  0.00    +0.000 A 
ATOM     11  C   UNL     1      48.362   6.857  14.825  0.00  0.00    +0.000 A 
ATOM     12  C   UNL     1      49.642   7.025  15.352  0.00  0.00    +0.000 A 
ATOM     13  C   UNL     1      50.637   7.624  14.577  0.00  0.00    +0.000 A 
ATOM     14  C   UNL     1      50.289   8.016  13.294  0.00  0.00    +0.000 A 
ATOM     15  N   UNL     1      49.054   7.858  12.759  0.00  0.00    +0.000 NA
BRANCH  13  16
ATOM     16  C   UNL     1      52.028   7.850  15.076  0.00  0.00    +0.000 C 
ATOM     17  F   UNL     1      52.934   8.055  14.080  0.00  0.00    +0.000 F 
ATOM     18  F   UNL     1      52.120   8.935  15.893  0.00  0.00    +0.000 F 
ATOM     19  F   UNL     1      52.502   6.797  15.797  0.00  0.00    +0.000 F 
ENDBRANCH  13  16
ENDBRANCH   6  10
ENDBRANCH   1   4
BRANCH   1  20
ATOM     20  C   UNL     1      43.272   4.242  11.030  0.00  0.00    +0.000 C 
BRANCH  20  21
ATOM     21  N   UNL     1      43.903   4.883   9.849  0.00  0.00    +0.000 N 
ATOM     22  H   UNL     1      44.368   5.754  10.097  0.00  0.00    +0.000 HD
BRANCH  21  26
ATOM     23  C   UNL     1      46.410   2.355   7.803  0.00  0.00    +0.000 A 
ATOM     24  C   UNL     1      46.458   3.723   7.587  0.00  0.00    +0.000 A 
ATOM     25  N   UNL     1      45.637   4.596   8.232  0.00  0.00    +0.000 NA
ATOM     26  C   UNL     1      44.752   4.062   9.101  0.00  0.00    +0.000 A 
ATOM     27  C   UNL     1      44.721   2.674   9.305  0.00  0.00    +0.000 A 
ATOM     28  N   UNL     1      45.529   1.785   8.669  0.00  0.00    +0.000 NA
BRANCH  23  30
ATOM     29  N   UNL     1      48.387   2.073   6.439  0.00  0.00    +0.000 N 
ATOM     30  C   UNL     1      47.352   1.453   7.086  0.00  0.00    +0.000 C 
ATOM     31  O   UNL     1      47.213   0.238   7.072  0.00  0.00    +0.000 OA
ATOM     32  H   UNL     1      49.057   1.519   5.925  0.00  0.00    +0.000 HD
ATOM     33  H   UNL     1      48.469   3.083   6.468  0.00  0.00    +0.000 HD
ENDBRANCH  23  30
ENDBRANCH  21  26
ENDBRANCH  20  21
ENDBRANCH   1  20
TORSDOF 7
ENDMDL
MODEL 5
REMARK VINA RESULT:    -7.465      4.242      8.482
REMARK INTER + INTRA:         -11.743
REMARK INTER:                 -10.739
REMARK INTRA:                  -1.004
REMARK UNBOUND:                -1.223
REMARK  Name = 
REMARK  7 active torsions:
REMARK  status: ('A' for Active; 'I' for Inactive)
REMARK    1  A    between atoms: C_2  and  C_4
REMARK    2  A    between atoms: C_7  and  N_8
REMARK    3  A    between atoms: N_8  and  C_9
REMARK    4  A    between atoms: C_9  and  C_10
REMARK    5  A    between atoms: C_10  and  C_13
REMARK    6  A    between atoms: C_15  and  C_16
REMARK    7  A    between atoms: C_19  and  C_20
REMARK                            x       y       z     vdW  Elec       q    Type
REMARK                         _______ _______ _______ _____ _____    ______ ____
ROOT
ATOM      1  C   UNL     1      45.281   8.447  12.172  0.00  0.00    +0.000 C 
ATOM      2  F   UNL     1      44.739   9.025  13.296  0.00  0.00    +0.000 F 
ATOM      3  F   UNL     1      44.784   9.192  11.132  0.00  0.00    +0.000 F 
ENDROOT
BRANCH   1   4
ATOM      4  C   UNL     1      44.861   6.988  12.044  0.00  0.00    +0.000 A 
ATOM      5  C   UNL     1      45.326   6.265  10.941  0.00  0.00    +0.000 A 
ATOM      6  C   UNL     1      44.964   4.921  10.769  0.00  0.00    +0.000 A 
ATOM      7  C   UNL     1      44.116   4.363  11.734  0.00  0.00    +0.000 A 
ATOM      8  C   UNL     1      43.699   5.138  12.803  0.00  0.00    +0.000 A 
ATOM      9  N   UNL     1      44.053   6.429  12.979  0.00  0.00    +0.000 NA
BRANCH   6  10
ATOM     10  C   UNL     1      45.436   4.124   9.619  0.00  0.00    +0.000 A 
ATOM     11  C   UNL     1      45.368   2.732   9.584  0.00  0.00    +0.000 A 
ATOM     12  C   UNL     1      45.859   2.048   8.472  0.00  0.00    +0.000 A 
ATOM     13  C   UNL     1      46.411   2.764   7.407  0.00  0.00    +0.000 A 
ATOM     14  C   UNL     1      46.428   4.146   7.515  0.00  0.00    +0.000 A 
ATOM     15  N   UNL     1      45.953   4.831   8.583  0.00  0.00    +0.000 NA
BRANCH  13  16
ATOM     16  C   UNL     1      46.970   2.103   6.188  0.00  0.00    +0.000 C 
ATOM     17  F   UNL     1      46.369   2.503   5.033  0.00  0.00    +0.000 F 
ATOM     18  F   UNL     1      48.298   2.349   6.022  0.00  0.00    +0.000 F 
ATOM     19  F   UNL     1      46.841   0.748   6.223  0.00  0.00    +0.000 F 
ENDBRANCH  13  16
ENDBRANCH   6  10
ENDBRANCH   1   4
BRANCH   1  20
ATOM     20  C   UNL     1      46.814   8.653  12.238  0.00  0.00    +0.000 C 
BRANCH  20  21
ATOM     21  N   UNL     1      47.220   9.316  13.504  0.00  0.00    +0.000 N 
ATOM     22  H   UNL     1      46.421   9.711  13.994  0.00  0.00    +0.000 HD
BRANCH  21  26
ATOM     23  C   UNL     1      49.441   6.878  15.949  0.00  0.00    +0.000 A 
ATOM     24  C   UNL     1      48.885   8.049  16.439  0.00  0.00    +0.000 A 
ATOM     25  N   UNL     1      48.155   8.893  15.660  0.00  0.00    +0.000 NA
ATOM     26  C   UNL     1      47.998   8.539  14.367  0.00  0.00    +0.000 A 
ATOM     27  C   UNL     1      48.569   7.348  13.894  0.00  0.00    +0.000 A 
ATOM     28  N   UNL     1      49.305   6.493  14.651  0.00  0.00    +0.000 NA
BRANCH  23  30
ATOM     29  N   UNL     1      51.159   6.595  17.628  0.00  0.00    +0.000 N 
ATOM     30  C   UNL     1      50.210   5.982  16.856  0.00  0.00    +0.000 C 
ATOM     31  O   UNL     1      50.011   4.776  16.909  0.00  0.00    +0.000 OA
ATOM     32  H   UNL     1      51.723   6.043  18.259  0.00  0.00    +0.000 HD
ATOM     33  H   UNL     1      51.301   7.597  17.555  0.00  0.00    +0.000 HD
ENDBRANCH  23  30
ENDBRANCH  21  26
ENDBRANCH  20  21
ENDBRANCH   1  20
TORSDOF 7
ENDMDL
MODEL 6
REMARK VINA RESULT:    -7.163      1.975      2.569
REMARK INTER + INTRA:         -11.318
REMARK INTER:                 -10.415
REMARK INTRA:                  -0.903
REMARK UNBOUND:                -1.223
REMARK  Name = 
REMARK  7 active torsions:
REMARK  status: ('A' for Active; 'I' for Inactive)
REMARK    1  A    between atoms: C_2  and  C_4
REMARK    2  A    between atoms: C_7  and  N_8
REMARK    3  A    between atoms: N_8  and  C_9
REMARK    4  A    between atoms: C_9  and  C_10
REMARK    5  A    between atoms: C_10  and  C_13
REMARK    6  A    between atoms: C_15  and  C_16
REMARK    7  A    between atoms: C_19  and  C_20
REMARK                            x       y       z     vdW  Elec       q    Type
REMARK                         _______ _______ _______ _____ _____    ______ ____
ROOT
ATOM      1  C   UNL     1      45.511   5.611  12.243  0.00  0.00    +0.000 C 
ATOM      2  F   UNL     1      44.497   5.952  13.107  0.00  0.00    +0.000 F 
ATOM      3  F   UNL     1      45.547   4.239  12.283  0.00  0.00    +0.000 F 
ENDROOT
BRANCH   1   4
ATOM      4  C   UNL     1      46.842   6.201  12.692  0.00  0.00    +0.000 A 
ATOM      5  C   UNL     1      47.198   6.071  14.038  0.00  0.00    +0.000 A 
ATOM      6  C   UNL     1      48.408   6.603  14.507  0.00  0.00    +0.000 A 
ATOM      7  C   UNL     1      49.213   7.270  13.575  0.00  0.00    +0.000 A 
ATOM      8  C   UNL     1      48.798   7.356  12.257  0.00  0.00    +0.000 A 
ATOM      9  N   UNL     1      47.640   6.837  11.797  0.00  0.00    +0.000 NA
BRANCH   6  10
ATOM     10  C   UNL     1      48.820   6.484  15.920  0.00  0.00    +0.000 A 
ATOM     11  C   UNL     1      48.758   5.285  16.628  0.00  0.00    +0.000 A 
ATOM     12  C   UNL     1      49.141   5.260  17.970  0.00  0.00    +0.000 A 
ATOM     13  C   UNL     1      49.582   6.432  18.586  0.00  0.00    +0.000 A 
ATOM     14  C   UNL     1      49.627   7.578  17.808  0.00  0.00    +0.000 A 
ATOM     15  N   UNL     1      49.264   7.625  16.503  0.00  0.00    +0.000 NA
BRANCH  13  16
ATOM     16  C   UNL     1      49.997   6.487  20.022  0.00  0.00    +0.000 C 
ATOM     17  F   UNL     1      48.946   6.521  20.888  0.00  0.00    +0.000 F 
ATOM     18  F   UNL     1      50.750   5.415  20.390  0.00  0.00    +0.000 F 
ATOM     19  F   UNL     1      50.747   7.588  20.307  0.00  0.00    +0.000 F 
ENDBRANCH  13  16
ENDBRANCH   6  10
ENDBRANCH   1   4
BRANCH   1  20
ATOM     20  C   UNL     1      45.078   6.051  10.824  0.00  0.00    +0.000 C 
BRANCH  20  21
ATOM     21  N   UNL     1      44.392   4.952  10.099  0.00  0.00    +0.000 N 
ATOM     22  H   UNL     1      43.507   5.259   9.700  0.00  0.00    +0.000 HD
BRANCH  21  26
ATOM     23  C   UNL     1      46.685   2.859   7.411  0.00  0.00    +0.000 A 
ATOM     24  C   UNL     1      46.746   4.243   7.463  0.00  0.00    +0.000 A 
ATOM     25  N   UNL     1      45.993   4.977   8.327  0.00  0.00    +0.000 NA
ATOM     26  C   UNL     1      45.165   4.289   9.141  0.00  0.00    +0.000 A 
ATOM     27  C   UNL     1      45.120   2.888   9.072  0.00  0.00    +0.000 A 
ATOM     28  N   UNL     1      45.859   2.135   8.215  0.00  0.00    +0.000 NA
BRANCH  23  30
ATOM     29  N   UNL     1      47.909   2.787   5.326  0.00  0.00    +0.000 N 
ATOM     30  C   UNL     1      47.550   2.109   6.461  0.00  0.00    +0.000 C 
ATOM     31  O   UNL     1      47.919   0.962   6.675  0.00  0.00    +0.000 OA
ATOM     32  H   UNL     1      48.488   2.332   4.636  0.00  0.00    +0.000 HD
ATOM     33  H   UNL     1      47.581   3.736   5.179  0.00  0.00    +0.000 HD
ENDBRANCH  23  30
ENDBRANCH  21  26
ENDBRANCH  20  21
ENDBRANCH   1  20
TORSDOF 7
ENDMDL
MODEL 7
REMARK VINA RESULT:    -7.050      4.209      8.057
REMARK INTER + INTRA:         -11.158
REMARK INTER:                  -9.875
REMARK INTRA:                  -1.283
REMARK UNBOUND:                -1.223
REMARK  Name = 
REMARK  7 active torsions:
REMARK  status: ('A' for Active; 'I' for Inactive)
REMARK    1  A    between atoms: C_2  and  C_4
REMARK    2  A    between atoms: C_7  and  N_8
REMARK    3  A    between atoms: N_8  and  C_9
REMARK    4  A    between atoms: C_9  and  C_10
REMARK    5  A    between atoms: C_10  and  C_13
REMARK    6  A    between atoms: C_15  and  C_16
REMARK    7  A    between atoms: C_19  and  C_20
REMARK                            x       y       z     vdW  Elec       q    Type
REMARK                         _______ _______ _______ _____ _____    ______ ____
ROOT
ATOM      1  C   UNL     1      48.852   9.226  16.134  0.00  0.00    +0.000 C 
ATOM      2  F   UNL     1      47.528   9.325  16.495  0.00  0.00    +0.000 F 
ATOM      3  F   UNL     1      49.280  10.527  16.050  0.00  0.00    +0.000 F 
ENDROOT
BRANCH   1   4
ATOM      4  C   UNL     1      49.008   8.516  14.796  0.00  0.00    +0.000 A 
ATOM      5  C   UNL     1      47.967   7.685  14.367  0.00  0.00    +0.000 A 
ATOM      6  C   UNL     1      48.061   7.001  13.147  0.00  0.00    +0.000 A 
ATOM      7  C   UNL     1      49.236   7.180  12.407  0.00  0.00    +0.000 A 
ATOM      8  C   UNL     1      50.223   8.023  12.891  0.00  0.00    +0.000 A 
ATOM      9  N   UNL     1      50.134   8.692  14.060  0.00  0.00    +0.000 NA
BRANCH   6  10
ATOM     10  C   UNL     1      46.984   6.117  12.660  0.00  0.00    +0.000 A 
ATOM     11  C   UNL     1      46.373   6.281  11.418  0.00  0.00    +0.000 A 
ATOM     12  C   UNL     1      45.342   5.420  11.040  0.00  0.00    +0.000 A 
ATOM     13  C   UNL     1      44.936   4.404  11.907  0.00  0.00    +0.000 A 
ATOM     14  C   UNL     1      45.604   4.300  13.117  0.00  0.00    +0.000 A 
ATOM     15  N   UNL     1      46.610   5.122  13.503  0.00  0.00    +0.000 NA
BRANCH  13  16
ATOM     16  C   UNL     1      43.831   3.451  11.579  0.00  0.00    +0.000 C 
ATOM     17  F   UNL     1      44.140   2.591  10.569  0.00  0.00    +0.000 F 
ATOM     18  F   UNL     1      43.483   2.671  12.639  0.00  0.00    +0.000 F 
ATOM     19  F   UNL     1      42.691   4.086  11.191  0.00  0.00    +0.000 F 
ENDBRANCH  13  16
ENDBRANCH   6  10
ENDBRANCH   1   4
BRANCH   1  20
ATOM     20  C   UNL     1      49.600   8.536  17.301  0.00  0.00    +0.000 C 
BRANCH  20  21
ATOM     21  N   UNL     1      48.720   7.582  18.022  0.00  0.00    +0.000 N 
ATOM     22  H   UNL     1      47.736   7.772  17.847  0.00  0.00    +0.000 HD
BRANCH  21  26
ATOM     23  C   UNL     1      49.675   3.657  17.284  0.00  0.00    +0.000 A 
ATOM     24  C   UNL     1      48.421   3.999  17.763  0.00  0.00    +0.000 A 
ATOM     25  N   UNL     1      48.067   5.285  18.034  0.00  0.00    +0.000 NA
ATOM     26  C   UNL     1      49.008   6.229  17.822  0.00  0.00    +0.000 A 
ATOM     27  C   UNL     1      50.272   5.859  17.336  0.00  0.00    +0.000 A 
ATOM     28  N   UNL     1      50.648   4.582  17.062  0.00  0.00    +0.000 NA
BRANCH  23  30
ATOM     29  N   UNL     1      50.895   1.640  17.826  0.00  0.00    +0.000 N 
ATOM     30  C   UNL     1      49.996   2.236  16.982  0.00  0.00    +0.000 C 
ATOM     31  O   UNL     1      49.494   1.635  16.042  0.00  0.00    +0.000 OA
ATOM     32  H   UNL     1      51.163   0.679  17.672  0.00  0.00    +0.000 HD
ATOM     33  H   UNL     1      51.296   2.169  18.594  0.00  0.00    +0.000 HD
ENDBRANCH  23  30
ENDBRANCH  21  26
ENDBRANCH  20  21
ENDBRANCH   1  20
TORSDOF 7
ENDMDL
MODEL 8
REMARK VINA RESULT:    -6.595      4.092      8.093
REMARK INTER + INTRA:         -10.517
REMARK INTER:                  -9.071
REMARK INTRA:                  -1.447
REMARK UNBOUND:                -1.223
REMARK  Name = 
REMARK  7 active torsions:
REMARK  status: ('A' for Active; 'I' for Inactive)
REMARK    1  A    between atoms: C_2  and  C_4
REMARK    2  A    between atoms: C_7  and  N_8
REMARK    3  A    between atoms: N_8  and  C_9
REMARK    4  A    between atoms: C_9  and  C_10
REMARK    5  A    between atoms: C_10  and  C_13
REMARK    6  A    between atoms: C_15  and  C_16
REMARK    7  A    between atoms: C_19  and  C_20
REMARK                            x       y       z     vdW  Elec       q    Type
REMARK                         _______ _______ _______ _____ _____    ______ ____
ROOT
ATOM      1  C   UNL     1      51.367   8.507  14.971  0.00  0.00    +0.000 C 
ATOM      2  F   UNL     1      52.158   9.626  14.854  0.00  0.00    +0.000 F 
ATOM      3  F   UNL     1      52.253   7.487  15.211  0.00  0.00    +0.000 F 
ENDROOT
BRANCH   1   4
ATOM      4  C   UNL     1      50.579   8.252  13.693  0.00  0.00    +0.000 A 
ATOM      5  C   UNL     1      49.428   7.463  13.777  0.00  0.00    +0.000 A 
ATOM      6  C   UNL     1      48.669   7.189  12.629  0.00  0.00    +0.000 A 
ATOM      7  C   UNL     1      49.129   7.727  11.421  0.00  0.00    +0.000 A 
ATOM      8  C   UNL     1      50.275   8.504  11.414  0.00  0.00    +0.000 A 
ATOM      9  N   UNL     1      51.003   8.779  12.516  0.00  0.00    +0.000 NA
BRANCH   6  10
ATOM     10  C   UNL     1      47.447   6.361  12.677  0.00  0.00    +0.000 A 
ATOM     11  C   UNL     1      47.172   5.478  13.719  0.00  0.00    +0.000 A 
ATOM     12  C   UNL     1      46.008   4.710  13.679  0.00  0.00    +0.000 A 
ATOM     13  C   UNL     1      45.132   4.837  12.600  0.00  0.00    +0.000 A 
ATOM     14  C   UNL     1      45.472   5.748  11.613  0.00  0.00    +0.000 A 
ATOM     15  N   UNL     1      46.594   6.507  11.633  0.00  0.00    +0.000 NA
BRANCH  13  16
ATOM     16  C   UNL     1      43.871   4.041  12.480  0.00  0.00    +0.000 C 
ATOM     17  F   UNL     1      44.066   2.699  12.598  0.00  0.00    +0.000 F 
ATOM     18  F   UNL     1      42.953   4.370  13.429  0.00  0.00    +0.000 F 
ATOM     19  F   UNL     1      43.252   4.222  11.280  0.00  0.00    +0.000 F 
ENDBRANCH  13  16
ENDBRANCH   6  10
ENDBRANCH   1   4
BRANCH   1  20
ATOM     20  C   UNL     1      50.481   8.696  16.226  0.00  0.00    +0.000 C 
BRANCH  20  21
ATOM     21  N   UNL     1      50.817   7.709  17.283  0.00  0.00    +0.000 N 
ATOM     22  H   UNL     1      50.792   8.128  18.211  0.00  0.00    +0.000 HD
BRANCH  21  26
ATOM     23  C   UNL     1      48.785   4.147  17.081  0.00  0.00    +0.000 A 
ATOM     24  C   UNL     1      48.097   5.347  17.175  0.00  0.00    +0.000 A 
ATOM     25  N   UNL     1      48.730   6.548  17.258  0.00  0.00    +0.000 NA
ATOM     26  C   UNL     1      50.080   6.522  17.255  0.00  0.00    +0.000 A 
ATOM     27  C   UNL     1      50.755   5.296  17.158  0.00  0.00    +0.000 A 
ATOM     28  N   UNL     1      50.144   4.084  17.078  0.00  0.00    +0.000 NA
BRANCH  23  30
ATOM     29  N   UNL     1      48.684   1.860  16.300  0.00  0.00    +0.000 N 
ATOM     30  C   UNL     1      48.037   2.865  16.968  0.00  0.00    +0.000 C 
ATOM     31  O   UNL     1      46.917   2.715  17.437  0.00  0.00    +0.000 OA
ATOM     32  H   UNL     1      48.229   0.967  16.180  0.00  0.00    +0.000 HD
ATOM     33  H   UNL     1      49.611   2.020  15.920  0.00  0.00    +0.000 HD
ENDBRANCH  23  30
ENDBRANCH  21  26
ENDBRANCH  20  21
ENDBRANCH   1  20
TORSDOF 7
ENDMDL
MODEL 9
REMARK VINA RESULT:    -6.553      3.323      4.835
REMARK INTER + INTRA:         -10.458
REMARK INTER:                  -9.179
REMARK INTRA:                  -1.279
REMARK UNBOUND:                -1.223
REMARK  Name = 
REMARK  7 active torsions:
REMARK  status: ('A' for Active; 'I' for Inactive)
REMARK    1  A    between atoms: C_2  and  C_4
REMARK    2  A    between atoms: C_7  and  N_8
REMARK    3  A    between atoms: N_8  and  C_9
REMARK    4  A    between atoms: C_9  and  C_10
REMARK    5  A    between atoms: C_10  and  C_13
REMARK    6  A    between atoms: C_15  and  C_16
REMARK    7  A    between atoms: C_19  and  C_20
REMARK                            x       y       z     vdW  Elec       q    Type
REMARK                         _______ _______ _______ _____ _____    ______ ____
ROOT
ATOM      1  C   UNL     1      48.394   8.184  12.751  0.00  0.00    +0.000 C 
ATOM      2  F   UNL     1      48.816   7.023  12.144  0.00  0.00    +0.000 F 
ATOM      3  F   UNL     1      49.136   9.170  12.152  0.00  0.00    +0.000 F 
ENDROOT
BRANCH   1   4
ATOM      4  C   UNL     1      48.651   8.147  14.252  0.00  0.00    +0.000 A 
ATOM      5  C   UNL     1      49.478   7.138  14.753  0.00  0.00    +0.000 A 
ATOM      6  C   UNL     1      49.742   7.052  16.128  0.00  0.00    +0.000 A 
ATOM      7  C   UNL     1      49.131   8.005  16.952  0.00  0.00    +0.000 A 
ATOM      8  C   UNL     1      48.327   8.980  16.385  0.00  0.00    +0.000 A 
ATOM      9  N   UNL     1      48.078   9.073  15.062  0.00  0.00    +0.000 NA
BRANCH   6  10
ATOM     10  C   UNL     1      50.612   6.002  16.694  0.00  0.00    +0.000 A 
ATOM     11  C   UNL     1      51.985   6.168  16.867  0.00  0.00    +0.000 A 
ATOM     12  C   UNL     1      52.743   5.118  17.385  0.00  0.00    +0.000 A 
ATOM     13  C   UNL     1      52.121   3.916  17.726  0.00  0.00    +0.000 A 
ATOM     14  C   UNL     1      50.750   3.838  17.536  0.00  0.00    +0.000 A 
ATOM     15  N   UNL     1      49.993   4.846  17.039  0.00  0.00    +0.000 NA
BRANCH  13  16
ATOM     16  C   UNL     1      52.867   2.742  18.274  0.00  0.00    +0.000 C 
ATOM     17  F   UNL     1      54.057   2.519  17.652  0.00  0.00    +0.000 F 
ATOM     18  F   UNL     1      53.157   2.879  19.597  0.00  0.00    +0.000 F 
ATOM     19  F   UNL     1      52.166   1.580  18.163  0.00  0.00    +0.000 F 
ENDBRANCH  13  16
ENDBRANCH   6  10
ENDBRANCH   1   4
BRANCH   1  20
ATOM     20  C   UNL     1      46.906   8.389  12.375  0.00  0.00    +0.000 C 
BRANCH  20  21
ATOM     21  N   UNL     1      46.006   7.652  13.296  0.00  0.00    +0.000 N 
ATOM     22  H   UNL     1      45.295   8.261  13.696  0.00  0.00    +0.000 HD
BRANCH  21  26
ATOM     23  C   UNL     1      44.481   4.161  11.762  0.00  0.00    +0.000 A 
ATOM     24  C   UNL     1      43.965   5.387  11.372  0.00  0.00    +0.000 A 
ATOM     25  N   UNL     1      44.430   6.567  11.866  0.00  0.00    +0.000 NA
ATOM     26  C   UNL     1      45.427   6.491  12.773  0.00  0.00    +0.000 A 
ATOM     27  C   UNL     1      45.935   5.239  13.152  0.00  0.00    +0.000 A 
ATOM     28  N   UNL     1      45.484   4.049  12.675  0.00  0.00    +0.000 NA
BRANCH  23  30
ATOM     29  N   UNL     1      44.667   2.394  10.121  0.00  0.00    +0.000 N 
ATOM     30  C   UNL     1      43.948   2.905  11.168  0.00  0.00    +0.000 C 
ATOM     31  O   UNL     1      42.934   2.362  11.584  0.00  0.00    +0.000 OA
ATOM     32  H   UNL     1      44.355   1.548   9.667  0.00  0.00    +0.000 HD
ATOM     33  H   UNL     1      45.501   2.873   9.798  0.00  0.00    +0.000 HD
ENDBRANCH  23  30
ENDBRANCH  21  26
ENDBRANCH  20  21
ENDBRANCH   1  20
TORSDOF 7
ENDMDL
