MODEL 1
REMARK VINA RESULT:    -6.119      0.000      0.000
REMARK INTER + INTRA:          -9.262
REMARK INTER:                  -8.623
REMARK INTRA:                  -0.639
REMARK UNBOUND:                -0.639
REMARK  Name = 
REMARK  9 active torsions:
REMARK  status: ('A' for Active; 'I' for Inactive)
REMARK    1  A    between atoms: C_1  and  N_2
REMARK    2  A    between atoms: N_2  and  C_3
REMARK    3  A    between atoms: N_2  and  C_4
REMARK    4  A    between atoms: C_4  and  C_5
REMARK    5  A    between atoms: C_5  and  O_6
REMARK    6  A    between atoms: O_6  and  C_7
REMARK    7  A    between atoms: C_7  and  C_8
REMARK    8  A    between atoms: C_7  and  C_14
REMARK    9  A    between atoms: C_17  and  C_18
REMARK                            x       y       z     vdW  Elec       q    Type
REMARK                         _______ _______ _______ _____ _____    ______ ____
ROOT
ATOM      1  C   UNL     1      44.739   5.089  10.731  0.00  0.00    +0.000 C 
ENDROOT
BRANCH   1   2
ATOM      2  C   UNL     1      45.758   5.207  11.865  0.00  0.00    +0.000 A 
ATOM      3  C   UNL     1      46.785   6.166  11.861  0.00  0.00    +0.000 A 
ATOM      4  C   UNL     1      47.611   6.333  12.976  0.00  0.00    +0.000 A 
ATOM      5  C   UNL     1      47.432   5.540  14.108  0.00  0.00    +0.000 A 
ATOM      6  C   UNL     1      46.439   4.564  14.118  0.00  0.00    +0.000 A 
ATOM      7  C   UNL     1      45.613   4.396  13.005  0.00  0.00    +0.000 A 
ENDBRANCH   1   2
BRANCH   1   8
ATOM      8  C   UNL     1      45.191   4.188   9.582  0.00  0.00    +0.000 A 
ATOM      9  C   UNL     1      45.033   2.801   9.634  0.00  0.00    +0.000 A 
ATOM     10  C   UNL     1      45.657   2.008   8.666  0.00  0.00    +0.000 A 
ATOM     11  C   UNL     1      46.394   2.620   7.650  0.00  0.00    +0.000 A 
ATOM     12  C   UNL     1      46.464   4.004   7.645  0.00  0.00    +0.000 A 
ATOM     13  N   UNL     1      45.879   4.797   8.577  0.00  0.00    +0.000 NA
BRANCH  11  14
ATOM     14  C   UNL     1      47.151   1.878   6.620  0.00  0.00    +0.000 C 
ATOM     15  N   UNL     1      47.901   2.601   5.736  0.00  0.00    +0.000 N 
ATOM     16  O   UNL     1      47.130   0.655   6.567  0.00  0.00    +0.000 OA
ATOM     17  H   UNL     1      48.128   3.574   5.869  0.00  0.00    +0.000 HD
ATOM     18  H   UNL     1      48.479   2.067   5.097  0.00  0.00    +0.000 HD
ENDBRANCH  11  14
ENDBRANCH   1   8
BRANCH   1  19
ATOM     19  O   UNL     1      44.323   6.397  10.293  0.00  0.00    +0.000 OA
BRANCH  19  20
ATOM     20  C   UNL     1      43.646   7.200  11.267  0.00  0.00    +0.000 C 
BRANCH  20  21
ATOM     21  C   UNL     1      44.157   8.647  11.412  0.00  0.00    +0.000 C 
BRANCH  21  23
ATOM     22  C   UNL     1      42.186   9.823  10.666  0.00  0.00    +0.000 C 
ATOM     23  N   UNL     1      43.605   9.572  10.401  0.00  0.00    +0.000 NA
ATOM     24  C   UNL     1      44.335  10.838  10.334  0.00  0.00    +0.000 C 
ENDBRANCH  21  23
ENDBRANCH  20  21
ENDBRANCH  19  20
ENDBRANCH   1  19
TORSDOF 7
ENDMDL
MODEL 2
REMARK VINA RESULT:    -5.907      4.479      7.205
REMARK INTER + INTRA:          -8.964
REMARK INTER:                  -8.347
REMARK INTRA:                  -0.617
REMARK UNBOUND:                -0.639
REMARK  Name = 
REMARK  9 active torsions:
REMARK  status: ('A' for Active; 'I' for Inactive)
REMARK    1  A    between atoms: C_1  and  N_2
REMARK    2  A    between atoms: N_2  and  C_3
REMARK    3  A    between atoms: N_2  and  C_4
REMARK    4  A    between atoms: C_4  and  C_5
REMARK    5  A    between atoms: C_5  and  O_6
REMARK    6  A    between atoms: O_6  and  C_7
REMARK    7  A    between atoms: C_7  and  C_8
REMARK    8  A    between atoms: C_7  and  C_14
REMARK    9  A    between atoms: C_17  and  C_18
REMARK                            x       y       z     vdW  Elec       q    Type
REMARK                         _______ _______ _______ _____ _____    ______ ____
ROOT
ATOM      1  C   UNL     1      46.421   5.171  13.976  0.00  0.00    +0.000 C 
ENDROOT
BRANCH   1   2
ATOM      2  C   UNL     1      45.286   4.722  13.054  0.00  0.00    +0.000 A 
ATOM      3  C   UNL     1      45.349   3.539  12.300  0.00  0.00    +0.000 A 
ATOM      4  C   UNL     1      44.238   3.092  11.578  0.00  0.00    +0.000 A 
ATOM      5  C   UNL     1      43.053   3.825  11.588  0.00  0.00    +0.000 A 
ATOM      6  C   UNL     1      42.982   5.016  12.305  0.00  0.00    +0.000 A 
ATOM      7  C   UNL     1      44.090   5.463  13.029  0.00  0.00    +0.000 A 
ENDBRANCH   1   2
BRANCH   1   8
ATOM      8  C   UNL     1      47.393   6.157  13.327  0.00  0.00    +0.000 A 
ATOM      9  C   UNL     1      47.180   6.655  12.040  0.00  0.00    +0.000 A 
ATOM     10  C   UNL     1      48.201   7.374  11.411  0.00  0.00    +0.000 A 
ATOM     11  C   UNL     1      49.396   7.608  12.095  0.00  0.00    +0.000 A 
ATOM     12  C   UNL     1      49.509   7.118  13.386  0.00  0.00    +0.000 A 
ATOM     13  N   UNL     1      48.541   6.408  14.016  0.00  0.00    +0.000 NA
BRANCH  11  14
ATOM     14  C   UNL     1      50.565   8.292  11.502  0.00  0.00    +0.000 C 
ATOM     15  N   UNL     1      51.627   7.523  11.118  0.00  0.00    +0.000 N 
ATOM     16  O   UNL     1      50.579   9.505  11.336  0.00  0.00    +0.000 OA
ATOM     17  H   UNL     1      51.579   6.520  11.027  0.00  0.00    +0.000 HD
ATOM     18  H   UNL     1      52.377   8.004  10.635  0.00  0.00    +0.000 HD
ENDBRANCH  11  14
ENDBRANCH   1   8
BRANCH   1  19
ATOM     19  O   UNL     1      47.079   4.027  14.555  0.00  0.00    +0.000 OA
BRANCH  19  20
ATOM     20  C   UNL     1      47.192   4.024  15.983  0.00  0.00    +0.000 C 
BRANCH  20  21
ATOM     21  C   UNL     1      48.075   2.910  16.580  0.00  0.00    +0.000 C 
BRANCH  21  23
ATOM     22  C   UNL     1      49.656   4.477  17.513  0.00  0.00    +0.000 C 
ATOM     23  N   UNL     1      49.502   3.279  16.684  0.00  0.00    +0.000 NA
ATOM     24  C   UNL     1      50.330   2.194  17.210  0.00  0.00    +0.000 C 
ENDBRANCH  21  23
ENDBRANCH  20  21
ENDBRANCH  19  20
ENDBRANCH   1  19
TORSDOF 7
ENDMDL
MODEL 3
REMARK VINA RESULT:    -5.815      4.492      7.161
REMARK INTER + INTRA:          -8.834
REMARK INTER:                  -8.331
REMARK INTRA:                  -0.503
REMARK UNBOUND:                -0.639
REMARK  Name = 
REMARK  9 active torsions:
REMARK  status: ('A' for Active; 'I' for Inactive)
REMARK    1  A    between atoms: C_1  and  N_2
REMARK    2  A    between atoms: N_2  and  C_3
REMARK    3  A    between atoms: N_2  and  C_4
REMARK    4  A    between atoms: C_4  and  C_5
REMARK    5  A    between atoms: C_5  and  O_6
REMARK    6  A    between atoms: O_6  and  C_7
REMARK    7  A    between atoms: C_7  and  C_8
REMARK    8  A    between atoms: C_7  and  C_14
REMARK    9  A    between atoms: C_17  and  C_18
REMARK                            x       y       z     vdW  Elec       q    Type
REMARK                         _______ _______ _______ _____ _____    ______ ____
ROOT
ATOM      1  C   UNL     1      46.278   4.578  14.121  0.00  0.00    +0.000 C 
ENDROOT
BRANCH   1   2
ATOM      2  C   UNL     1      46.634   5.798  13.270  0.00  0.00    +0.000 A 
ATOM      3  C   UNL     1      45.691   6.781  12.927  0.00  0.00    +0.000 A 
ATOM      4  C   UNL     1      46.085   7.948  12.266  0.00  0.00    +0.000 A 
ATOM      5  C   UNL     1      47.421   8.147  11.928  0.00  0.00    +0.000 A 
ATOM      6  C   UNL     1      48.365   7.170  12.233  0.00  0.00    +0.000 A 
ATOM      7  C   UNL     1      47.974   6.004  12.894  0.00  0.00    +0.000 A 
ENDBRANCH   1   2
BRANCH   1   8
ATOM      8  C   UNL     1      47.204   4.366  15.318  0.00  0.00    +0.000 A 
ATOM      9  C   UNL     1      47.712   5.441  16.050  0.00  0.00    +0.000 A 
ATOM     10  C   UNL     1      48.722   5.209  16.990  0.00  0.00    +0.000 A 
ATOM     11  C   UNL     1      49.174   3.905  17.201  0.00  0.00    +0.000 A 
ATOM     12  C   UNL     1      48.585   2.888  16.465  0.00  0.00    +0.000 A 
ATOM     13  N   UNL     1      47.613   3.086  15.540  0.00  0.00    +0.000 NA
BRANCH  11  14
ATOM     14  C   UNL     1      50.282   3.555  18.114  0.00  0.00    +0.000 C 
ATOM     15  N   UNL     1      50.274   4.102  19.366  0.00  0.00    +0.000 N 
ATOM     16  O   UNL     1      51.171   2.783  17.776  0.00  0.00    +0.000 OA
ATOM     17  H   UNL     1      49.467   4.556  19.766  0.00  0.00    +0.000 HD
ATOM     18  H   UNL     1      50.994   3.779  20.001  0.00  0.00    +0.000 HD
ENDBRANCH  11  14
ENDBRANCH   1   8
BRANCH   1  19
ATOM     19  O   UNL     1      46.150   3.407  13.290  0.00  0.00    +0.000 OA
BRANCH  19  20
ATOM     20  C   UNL     1      45.394   3.571  12.085  0.00  0.00    +0.000 C 
BRANCH  20  21
ATOM     21  C   UNL     1      43.887   3.267  12.196  0.00  0.00    +0.000 C 
BRANCH  21  23
ATOM     22  C   UNL     1      42.516   5.226  11.862  0.00  0.00    +0.000 C 
ATOM     23  N   UNL     1      43.060   4.021  11.230  0.00  0.00    +0.000 NA
ATOM     24  C   UNL     1      43.792   4.379  10.016  0.00  0.00    +0.000 C 
ENDBRANCH  21  23
ENDBRANCH  20  21
ENDBRANCH  19  20
ENDBRANCH   1  19
TORSDOF 7
ENDMDL
MODEL 4
REMARK VINA RESULT:    -5.787      4.005      6.574
REMARK INTER + INTRA:          -8.795
REMARK INTER:                  -8.000
REMARK INTRA:                  -0.795
REMARK UNBOUND:                -0.639
REMARK  Name = 
REMARK  9 active torsions:
REMARK  status: ('A' for Active; 'I' for Inactive)
REMARK    1  A    between atoms: C_1  and  N_2
REMARK    2  A    between atoms: N_2  and  C_3
REMARK    3  A    between atoms: N_2  and  C_4
REMARK    4  A    between atoms: C_4  and  C_5
REMARK    5  A    between atoms: C_5  and  O_6
REMARK    6  A    between atoms: O_6  and  C_7
REMARK    7  A    between atoms: C_7  and  C_8
REMARK    8  A    between atoms: C_7  and  C_14
REMARK    9  A    between atoms: C_17  and  C_18
REMARK                            x       y       z     vdW  Elec       q    Type
REMARK                         _______ _______ _______ _____ _____    ______ ____
ROOT
ATOM      1  C   UNL     1      48.206   6.742  13.288  0.00  0.00    +0.000 C 
ENDROOT
BRANCH   1   2
ATOM      2  C   UNL     1      48.606   7.996  12.511  0.00  0.00    +0.000 A 
ATOM      3  C   UNL     1      47.827   9.165  12.511  0.00  0.00    +0.000 A 
ATOM      4  C   UNL     1      48.294  10.334  11.902  0.00  0.00    +0.000 A 
ATOM      5  C   UNL     1      49.538  10.351  11.276  0.00  0.00    +0.000 A 
ATOM      6  C   UNL     1      50.311   9.194  11.240  0.00  0.00    +0.000 A 
ATOM      7  C   UNL     1      49.847   8.025  11.849  0.00  0.00    +0.000 A 
ENDBRANCH   1   2
BRANCH   1   8
ATOM      8  C   UNL     1      46.988   6.018  12.713  0.00  0.00    +0.000 A 
ATOM      9  C   UNL     1      46.535   6.266  11.415  0.00  0.00    +0.000 A 
ATOM     10  C   UNL     1      45.299   5.749  11.015  0.00  0.00    +0.000 A 
ATOM     11  C   UNL     1      44.562   4.967  11.907  0.00  0.00    +0.000 A 
ATOM     12  C   UNL     1      45.105   4.730  13.161  0.00  0.00    +0.000 A 
ATOM     13  N   UNL     1      46.295   5.229  13.579  0.00  0.00    +0.000 NA
BRANCH  11  14
ATOM     14  C   UNL     1      43.216   4.431  11.616  0.00  0.00    +0.000 C 
ATOM     15  N   UNL     1      42.159   5.295  11.674  0.00  0.00    +0.000 N 
ATOM     16  O   UNL     1      43.047   3.257  11.310  0.00  0.00    +0.000 OA
ATOM     17  H   UNL     1      42.265   6.297  11.701  0.00  0.00    +0.000 HD
ATOM     18  H   UNL     1      41.261   4.924  11.385  0.00  0.00    +0.000 HD
ENDBRANCH  11  14
ENDBRANCH   1   8
BRANCH   1  19
ATOM     19  O   UNL     1      48.073   7.043  14.692  0.00  0.00    +0.000 OA
BRANCH  19  20
ATOM     20  C   UNL     1      49.167   6.644  15.526  0.00  0.00    +0.000 C 
BRANCH  20  21
ATOM     21  C   UNL     1      48.784   5.880  16.808  0.00  0.00    +0.000 C 
BRANCH  21  23
ATOM     22  C   UNL     1      49.514   3.666  17.433  0.00  0.00    +0.000 C 
ATOM     23  N   UNL     1      48.587   4.431  16.596  0.00  0.00    +0.000 NA
ATOM     24  C   UNL     1      47.211   4.004  16.851  0.00  0.00    +0.000 C 
ENDBRANCH  21  23
ENDBRANCH  20  21
ENDBRANCH  19  20
ENDBRANCH   1  19
TORSDOF 7
ENDMDL
MODEL 5
REMARK VINA RESULT:    -5.760      3.657      6.136
REMARK INTER + INTRA:          -8.756
REMARK INTER:                  -7.968
REMARK INTRA:                  -0.788
REMARK UNBOUND:                -0.639
REMARK  Name = 
REMARK  9 active torsions:
REMARK  status: ('A' for Active; 'I' for Inactive)
REMARK    1  A    between atoms: C_1  and  N_2
REMARK    2  A    between atoms: N_2  and  C_3
REMARK    3  A    between atoms: N_2  and  C_4
REMARK    4  A    between atoms: C_4  and  C_5
REMARK    5  A    between atoms: C_5  and  O_6
REMARK    6  A    between atoms: O_6  and  C_7
REMARK    7  A    between atoms: C_7  and  C_8
REMARK    8  A    between atoms: C_7  and  C_14
REMARK    9  A    between atoms: C_17  and  C_18
REMARK                            x       y       z     vdW  Elec       q    Type
REMARK                         _______ _______ _______ _____ _____    ______ ____
ROOT
ATOM      1  C   UNL     1      46.869   4.718  13.664  0.00  0.00    +0.000 C 
ENDROOT
BRANCH   1   2
ATOM      2  C   UNL     1      47.442   4.738  15.081  0.00  0.00    +0.000 A 
ATOM      3  C   UNL     1      48.248   5.787  15.555  0.00  0.00    +0.000 A 
ATOM      4  C   UNL     1      48.638   5.838  16.896  0.00  0.00    +0.000 A 
ATOM      5  C   UNL     1      48.240   4.839  17.782  0.00  0.00    +0.000 A 
ATOM      6  C   UNL     1      47.467   3.776  17.324  0.00  0.00    +0.000 A 
ATOM      7  C   UNL     1      47.075   3.724  15.984  0.00  0.00    +0.000 A 
ENDBRANCH   1   2
BRANCH   1   8
ATOM      8  C   UNL     1      46.774   6.098  13.014  0.00  0.00    +0.000 A 
ATOM      9  C   UNL     1      47.872   6.687  12.384  0.00  0.00    +0.000 A 
ATOM     10  C   UNL     1      47.798   8.031  12.002  0.00  0.00    +0.000 A 
ATOM     11  C   UNL     1      46.617   8.743  12.226  0.00  0.00    +0.000 A 
ATOM     12  C   UNL     1      45.558   8.070  12.815  0.00  0.00    +0.000 A 
ATOM     13  N   UNL     1      45.606   6.773  13.206  0.00  0.00    +0.000 NA
BRANCH  11  14
ATOM     14  C   UNL     1      46.453  10.181  11.928  0.00  0.00    +0.000 C 
ATOM     15  N   UNL     1      45.240  10.752  12.189  0.00  0.00    +0.000 N 
ATOM     16  O   UNL     1      47.376  10.852  11.483  0.00  0.00    +0.000 OA
ATOM     17  H   UNL     1      44.530  10.309  12.752  0.00  0.00    +0.000 HD
ATOM     18  H   UNL     1      45.180  11.755  12.060  0.00  0.00    +0.000 HD
ENDBRANCH  11  14
ENDBRANCH   1   8
BRANCH   1  19
ATOM     19  O   UNL     1      45.623   3.993  13.638  0.00  0.00    +0.000 OA
BRANCH  19  20
ATOM     20  C   UNL     1      45.261   3.412  12.379  0.00  0.00    +0.000 C 
BRANCH  20  21
ATOM     21  C   UNL     1      43.761   3.111  12.190  0.00  0.00    +0.000 C 
BRANCH  21  23
ATOM     22  C   UNL     1      42.583   5.216  12.251  0.00  0.00    +0.000 C 
ATOM     23  N   UNL     1      43.051   4.128  11.389  0.00  0.00    +0.000 NA
ATOM     24  C   UNL     1      43.869   4.666  10.302  0.00  0.00    +0.000 C 
ENDBRANCH  21  23
ENDBRANCH  20  21
ENDBRANCH  19  20
ENDBRANCH   1  19
TORSDOF 7
ENDMDL
MODEL 6
REMARK VINA RESULT:    -5.681      3.157      5.971
REMARK INTER + INTRA:          -8.645
REMARK INTER:                  -7.952
REMARK INTRA:                  -0.693
REMARK UNBOUND:                -0.639
REMARK  Name = 
REMARK  9 active torsions:
REMARK  status: ('A' for Active; 'I' for Inactive)
REMARK    1  A    between atoms: C_1  and  N_2
REMARK    2  A    between atoms: N_2  and  C_3
REMARK    3  A    between atoms: N_2  and  C_4
REMARK    4  A    between atoms: C_4  and  C_5
REMARK    5  A    between atoms: C_5  and  O_6
REMARK    6  A    between atoms: O_6  and  C_7
REMARK    7  A    between atoms: C_7  and  C_8
REMARK    8  A    between atoms: C_7  and  C_14
REMARK    9  A    between atoms: C_17  and  C_18
REMARK                            x       y       z     vdW  Elec       q    Type
REMARK                         _______ _______ _______ _____ _____    ______ ____
ROOT
ATOM      1  C   UNL     1      47.124   7.535  12.706  0.00  0.00    +0.000 C 
ENDROOT
BRANCH   1   2
ATOM      2  C   UNL     1      46.690   8.949  12.320  0.00  0.00    +0.000 A 
ATOM      3  C   UNL     1      47.598   9.923  11.874  0.00  0.00    +0.000 A 
ATOM      4  C   UNL     1      47.146  11.157  11.399  0.00  0.00    +0.000 A 
ATOM      5  C   UNL     1      45.783  11.443  11.373  0.00  0.00    +0.000 A 
ATOM      6  C   UNL     1      44.870  10.502  11.840  0.00  0.00    +0.000 A 
ATOM      7  C   UNL     1      45.319   9.267  12.313  0.00  0.00    +0.000 A 
ENDBRANCH   1   2
BRANCH   1   8
ATOM      8  C   UNL     1      46.133   6.447  12.293  0.00  0.00    +0.000 A 
ATOM      9  C   UNL     1      45.391   5.735  13.238  0.00  0.00    +0.000 A 
ATOM     10  C   UNL     1      44.669   4.609  12.830  0.00  0.00    +0.000 A 
ATOM     11  C   UNL     1      44.677   4.242  11.483  0.00  0.00    +0.000 A 
ATOM     12  C   UNL     1      45.402   5.028  10.602  0.00  0.00    +0.000 A 
ATOM     13  N   UNL     1      46.120   6.117  10.971  0.00  0.00    +0.000 NA
BRANCH  11  14
ATOM     14  C   UNL     1      44.009   3.033  10.955  0.00  0.00    +0.000 C 
ATOM     15  N   UNL     1      44.629   2.352   9.946  0.00  0.00    +0.000 N 
ATOM     16  O   UNL     1      42.947   2.636  11.416  0.00  0.00    +0.000 OA
ATOM     17  H   UNL     1      45.592   2.503   9.686  0.00  0.00    +0.000 HD
ATOM     18  H   UNL     1      44.197   1.481   9.662  0.00  0.00    +0.000 HD
ENDBRANCH  11  14
ENDBRANCH   1   8
BRANCH   1  19
ATOM     19  O   UNL     1      47.472   7.481  14.104  0.00  0.00    +0.000 OA
BRANCH  19  20
ATOM     20  C   UNL     1      48.578   6.637  14.444  0.00  0.00    +0.000 C 
BRANCH  20  21
ATOM     21  C   UNL     1      48.755   6.342  15.946  0.00  0.00    +0.000 C 
BRANCH  21  23
ATOM     22  C   UNL     1      49.138   4.687  17.662  0.00  0.00    +0.000 C 
ATOM     23  N   UNL     1      48.725   4.901  16.272  0.00  0.00    +0.000 NA
ATOM     24  C   UNL     1      47.415   4.294  16.039  0.00  0.00    +0.000 C 
ENDBRANCH  21  23
ENDBRANCH  20  21
ENDBRANCH  19  20
ENDBRANCH   1  19
TORSDOF 7
ENDMDL
MODEL 7
REMARK VINA RESULT:    -5.681      3.806      6.352
REMARK INTER + INTRA:          -8.644
REMARK INTER:                  -7.964
REMARK INTRA:                  -0.681
REMARK UNBOUND:                -0.639
REMARK  Name = 
REMARK  9 active torsions:
REMARK  status: ('A' for Active; 'I' for Inactive)
REMARK    1  A    between atoms: C_1  and  N_2
REMARK    2  A    between atoms: N_2  and  C_3
REMARK    3  A    between atoms: N_2  and  C_4
REMARK    4  A    between atoms: C_4  and  C_5
REMARK    5  A    between atoms: C_5  and  O_6
REMARK    6  A    between atoms: O_6  and  C_7
REMARK    7  A    between atoms: C_7  and  C_8
REMARK    8  A    between atoms: C_7  and  C_14
REMARK    9  A    between atoms: C_17  and  C_18
REMARK                            x       y       z     vdW  Elec       q    Type
REMARK                         _______ _______ _______ _____ _____    ______ ____
ROOT
ATOM      1  C   UNL     1      46.819   6.935  12.386  0.00  0.00    +0.000 C 
ENDROOT
BRANCH   1   2
ATOM      2  C   UNL     1      47.996   7.829  11.995  0.00  0.00    +0.000 A 
ATOM      3  C   UNL     1      47.937   9.230  12.064  0.00  0.00    +0.000 A 
ATOM      4  C   UNL     1      49.076  10.006  11.831  0.00  0.00    +0.000 A 
ATOM      5  C   UNL     1      50.288   9.396  11.515  0.00  0.00    +0.000 A 
ATOM      6  C   UNL     1      50.359   8.010  11.411  0.00  0.00    +0.000 A 
ATOM      7  C   UNL     1      49.223   7.233  11.645  0.00  0.00    +0.000 A 
ENDBRANCH   1   2
BRANCH   1   8
ATOM      8  C   UNL     1      47.166   5.874  13.430  0.00  0.00    +0.000 A 
ATOM      9  C   UNL     1      46.774   4.542  13.278  0.00  0.00    +0.000 A 
ATOM     10  C   UNL     1      46.920   3.662  14.355  0.00  0.00    +0.000 A 
ATOM     11  C   UNL     1      47.487   4.124  15.545  0.00  0.00    +0.000 A 
ATOM     12  C   UNL     1      47.890   5.449  15.598  0.00  0.00    +0.000 A 
ATOM     13  N   UNL     1      47.750   6.327  14.574  0.00  0.00    +0.000 NA
BRANCH  11  14
ATOM     14  C   UNL     1      47.623   3.302  16.766  0.00  0.00    +0.000 C 
ATOM     15  N   UNL     1      48.877   2.892  17.121  0.00  0.00    +0.000 N 
ATOM     16  O   UNL     1      46.652   3.012  17.454  0.00  0.00    +0.000 OA
ATOM     17  H   UNL     1      49.719   3.279  16.725  0.00  0.00    +0.000 HD
ATOM     18  H   UNL     1      48.955   2.405  18.007  0.00  0.00    +0.000 HD
ENDBRANCH  11  14
ENDBRANCH   1   8
BRANCH   1  19
ATOM     19  O   UNL     1      46.193   6.387  11.209  0.00  0.00    +0.000 OA
BRANCH  19  20
ATOM     20  C   UNL     1      44.761   6.337  11.225  0.00  0.00    +0.000 C 
BRANCH  20  21
ATOM     21  C   UNL     1      44.133   5.034  10.691  0.00  0.00    +0.000 C 
BRANCH  21  23
ATOM     22  C   UNL     1      43.365   3.021  11.778  0.00  0.00    +0.000 C 
ATOM     23  N   UNL     1      43.119   4.453  11.595  0.00  0.00    +0.000 NA
ATOM     24  C   UNL     1      43.069   5.124  12.894  0.00  0.00    +0.000 C 
ENDBRANCH  21  23
ENDBRANCH  20  21
ENDBRANCH  19  20
ENDBRANCH   1  19
TORSDOF 7
ENDMDL
MODEL 8
REMARK VINA RESULT:    -5.524      4.428      7.454
REMARK INTER + INTRA:          -8.424
REMARK INTER:                  -7.864
REMARK INTRA:                  -0.560
REMARK UNBOUND:                -0.639
REMARK  Name = 
REMARK  9 active torsions:
REMARK  status: ('A' for Active; 'I' for Inactive)
REMARK    1  A    between atoms: C_1  and  N_2
REMARK    2  A    between atoms: N_2  and  C_3
REMARK    3  A    between atoms: N_2  and  C_4
REMARK    4  A    between atoms: C_4  and  C_5
REMARK    5  A    between atoms: C_5  and  O_6
REMARK    6  A    between atoms: O_6  and  C_7
REMARK    7  A    between atoms: C_7  and  C_8
REMARK    8  A    between atoms: C_7  and  C_14
REMARK    9  A    between atoms: C_17  and  C_18
REMARK                            x       y       z     vdW  Elec       q    Type
REMARK                         _______ _______ _______ _____ _____    ______ ____
ROOT
ATOM      1  C   UNL     1      46.776   5.548  13.784  0.00  0.00    +0.000 C 
ENDROOT
BRANCH   1   2
ATOM      2  C   UNL     1      47.446   6.767  13.151  0.00  0.00    +0.000 A 
ATOM      3  C   UNL     1      48.653   6.681  12.436  0.00  0.00    +0.000 A 
ATOM      4  C   UNL     1      49.161   7.791  11.756  0.00  0.00    +0.000 A 
ATOM      5  C   UNL     1      48.481   9.006  11.787  0.00  0.00    +0.000 A 
ATOM      6  C   UNL     1      47.299   9.119  12.515  0.00  0.00    +0.000 A 
ATOM      7  C   UNL     1      46.789   8.011  13.194  0.00  0.00    +0.000 A 
ENDBRANCH   1   2
BRANCH   1   8
ATOM      8  C   UNL     1      47.506   5.008  15.013  0.00  0.00    +0.000 A 
ATOM      9  C   UNL     1      47.200   3.757  15.555  0.00  0.00    +0.000 A 
ATOM     10  C   UNL     1      47.734   3.405  16.799  0.00  0.00    +0.000 A 
ATOM     11  C   UNL     1      48.588   4.295  17.455  0.00  0.00    +0.000 A 
ATOM     12  C   UNL     1      48.876   5.497  16.827  0.00  0.00    +0.000 A 
ATOM     13  N   UNL     1      48.364   5.868  15.628  0.00  0.00    +0.000 NA
BRANCH  11  14
ATOM     14  C   UNL     1      49.150   4.056  18.801  0.00  0.00    +0.000 C 
ATOM     15  N   UNL     1      48.435   3.273  19.661  0.00  0.00    +0.000 N 
ATOM     16  O   UNL     1      50.232   4.524  19.134  0.00  0.00    +0.000 OA
ATOM     17  H   UNL     1      47.664   2.692  19.370  0.00  0.00    +0.000 HD
ATOM     18  H   UNL     1      48.881   3.053  20.544  0.00  0.00    +0.000 HD
ENDBRANCH  11  14
ENDBRANCH   1   8
BRANCH   1  19
ATOM     19  O   UNL     1      46.527   4.538  12.786  0.00  0.00    +0.000 OA
BRANCH  19  20
ATOM     20  C   UNL     1      45.234   4.569  12.170  0.00  0.00    +0.000 C 
BRANCH  20  21
ATOM     21  C   UNL     1      44.641   3.197  11.793  0.00  0.00    +0.000 C 
BRANCH  21  23
ATOM     22  C   UNL     1      43.775   4.572  10.008  0.00  0.00    +0.000 C 
ATOM     23  N   UNL     1      43.913   3.202  10.507  0.00  0.00    +0.000 NA
ATOM     24  C   UNL     1      44.550   2.361   9.493  0.00  0.00    +0.000 C 
ENDBRANCH  21  23
ENDBRANCH  20  21
ENDBRANCH  19  20
ENDBRANCH   1  19
TORSDOF 7
ENDMDL
MODEL 9
REMARK VINA RESULT:    -5.373      3.574      7.215
REMARK INTER + INTRA:          -8.211
REMARK INTER:                  -7.586
REMARK INTRA:                  -0.624
REMARK UNBOUND:                -0.639
REMARK  Name = 
REMARK  9 active torsions:
REMARK  status: ('A' for Active; 'I' for Inactive)
REMARK    1  A    between atoms: C_1  and  N_2
REMARK    2  A    between atoms: N_2  and  C_3
REMARK    3  A    between atoms: N_2  and  C_4
REMARK    4  A    between atoms: C_4  and  C_5
REMARK    5  A    between atoms: C_5  and  O_6
REMARK    6  A    between atoms: O_6  and  C_7
REMARK    7  A    between atoms: C_7  and  C_8
REMARK    8  A    between atoms: C_7  and  C_14
REMARK    9  A    between atoms: C_17  and  C_18
REMARK                            x       y       z     vdW  Elec       q    Type
REMARK                         _______ _______ _______ _____ _____    ______ ____
ROOT
ATOM      1  C   UNL     1      45.866   5.365  12.644  0.00  0.00    +0.000 C 
ENDROOT
BRANCH   1   2
ATOM      2  C   UNL     1      45.301   4.656  11.413  0.00  0.00    +0.000 A 
ATOM      3  C   UNL     1      45.416   5.186  10.117  0.00  0.00    +0.000 A 
ATOM      4  C   UNL     1      45.010   4.444   9.004  0.00  0.00    +0.000 A 
ATOM      5  C   UNL     1      44.474   3.168   9.167  0.00  0.00    +0.000 A 
ATOM      6  C   UNL     1      44.324   2.639  10.446  0.00  0.00    +0.000 A 
ATOM      7  C   UNL     1      44.730   3.378  11.559  0.00  0.00    +0.000 A 
ENDBRANCH   1   2
BRANCH   1   8
ATOM      8  C   UNL     1      46.453   6.746  12.349  0.00  0.00    +0.000 A 
ATOM      9  C   UNL     1      47.777   6.904  11.934  0.00  0.00    +0.000 A 
ATOM     10  C   UNL     1      48.328   8.189  11.891  0.00  0.00    +0.000 A 
ATOM     11  C   UNL     1      47.534   9.287  12.230  0.00  0.00    +0.000 A 
ATOM     12  C   UNL     1      46.217   9.047  12.587  0.00  0.00    +0.000 A 
ATOM     13  N   UNL     1      45.660   7.812  12.648  0.00  0.00    +0.000 NA
BRANCH  11  14
ATOM     14  C   UNL     1      48.032  10.677  12.288  0.00  0.00    +0.000 C 
ATOM     15  N   UNL     1      48.015  11.409  11.134  0.00  0.00    +0.000 N 
ATOM     16  O   UNL     1      48.428  11.171  13.336  0.00  0.00    +0.000 OA
ATOM     17  H   UNL     1      47.503  11.133  10.311  0.00  0.00    +0.000 HD
ATOM     18  H   UNL     1      48.277  12.384  11.219  0.00  0.00    +0.000 HD
ENDBRANCH  11  14
ENDBRANCH   1   8
BRANCH   1  19
ATOM     19  O   UNL     1      46.780   4.500  13.345  0.00  0.00    +0.000 OA
BRANCH  19  20
ATOM     20  C   UNL     1      46.960   4.775  14.740  0.00  0.00    +0.000 C 
BRANCH  20  21
ATOM     21  C   UNL     1      47.458   3.592  15.594  0.00  0.00    +0.000 C 
BRANCH  21  23
ATOM     22  C   UNL     1      48.563   5.382  16.778  0.00  0.00    +0.000 C 
ATOM     23  N   UNL     1      48.575   3.945  16.495  0.00  0.00    +0.000 NA
ATOM     24  C   UNL     1      48.555   3.186  17.745  0.00  0.00    +0.000 C 
ENDBRANCH  21  23
ENDBRANCH  20  21
ENDBRANCH  19  20
ENDBRANCH   1  19
TORSDOF 7
ENDMDL
