MODEL 1
REMARK VINA RESULT:    -8.320      0.000      0.000
REMARK INTER + INTRA:         -10.592
REMARK INTER:                 -10.266
REMARK INTRA:                  -0.326
REMARK UNBOUND:                -0.326
REMARK  Name = 
REMARK  5 active torsions:
REMARK  status: ('A' for Active; 'I' for Inactive)
REMARK    1  A    between atoms: C_1  and  C_2
REMARK    2  A    between atoms: C_4  and  N_5
REMARK    3  A    between atoms: C_4  and  C_15
REMARK    4  A    between atoms: N_5  and  C_6
REMARK    5  A    between atoms: C_9  and  C_10
REMARK                            x       y       z     vdW  Elec       q    Type
REMARK                         _______ _______ _______ _____ _____    ______ ____
ROOT
ATOM      1  N   UNL     1      43.644   4.936   9.572  0.00  0.00    +0.000 N 
ATOM      2  H   UNL     1      42.711   4.850   9.178  0.00  0.00    +0.000 HD
ENDROOT
BRANCH   1   3
ATOM      3  C   UNL     1      44.562   4.024   9.015  0.00  0.00    +0.000 A 
ATOM      4  C   UNL     1      45.558   4.396   8.112  0.00  0.00    +0.000 A 
ATOM      5  C   UNL     1      46.425   3.440   7.583  0.00  0.00    +0.000 A 
ATOM      6  C   UNL     1      46.249   2.116   7.958  0.00  0.00    +0.000 A 
ATOM      7  N   UNL     1      45.270   1.691   8.801  0.00  0.00    +0.000 NA
ATOM      8  C   UNL     1      44.453   2.656   9.289  0.00  0.00    +0.000 A 
BRANCH   6   9
ATOM      9  C   UNL     1      47.169   1.063   7.422  0.00  0.00    +0.000 C 
ATOM     10  N   UNL     1      46.802  -0.226   7.702  0.00  0.00    +0.000 N 
ATOM     11  O   UNL     1      48.179   1.325   6.782  0.00  0.00    +0.000 OA
ATOM     12  H   UNL     1      45.959  -0.396   8.240  0.00  0.00    +0.000 HD
ATOM     13  H   UNL     1      47.375  -0.991   7.383  0.00  0.00    +0.000 HD
ENDBRANCH   6   9
ENDBRANCH   1   3
BRANCH   1  17
ATOM     14  C   UNL     1      43.807   4.013  13.343  0.00  0.00    +0.000 C 
ATOM     15  C   UNL     1      43.242   4.235  11.982  0.00  0.00    +0.000 C 
ATOM     16  C   UNL     1      42.357   5.423  11.754  0.00  0.00    +0.000 C 
ATOM     17  C   UNL     1      43.679   5.333  11.005  0.00  0.00    +0.000 C 
BRANCH  17  18
ATOM     18  C   UNL     1      44.836   6.277  11.369  0.00  0.00    +0.000 A 
ATOM     19  C   UNL     1      44.612   7.631  11.698  0.00  0.00    +0.000 A 
ATOM     20  C   UNL     1      45.653   8.474  12.103  0.00  0.00    +0.000 A 
ATOM     21  C   UNL     1      46.949   7.976  12.183  0.00  0.00    +0.000 A 
ATOM     22  F   UNL     1      47.948   8.779  12.571  0.00  0.00    +0.000 F 
ATOM     23  C   UNL     1      47.213   6.652  11.876  0.00  0.00    +0.000 A 
ATOM     24  C   UNL     1      46.165   5.811  11.484  0.00  0.00    +0.000 A 
ENDBRANCH  17  18
ENDBRANCH   1  17
TORSDOF 4
ENDMDL
MODEL 2
REMARK VINA RESULT:    -7.236      4.676      6.384
REMARK INTER + INTRA:          -9.255
REMARK INTER:                  -8.767
REMARK INTRA:                  -0.488
REMARK UNBOUND:                -0.326
REMARK  Name = 
REMARK  5 active torsions:
REMARK  status: ('A' for Active; 'I' for Inactive)
REMARK    1  A    between atoms: C_1  and  C_2
REMARK    2  A    between atoms: C_4  and  N_5
REMARK    3  A    between atoms: C_4  and  C_15
REMARK    4  A    between atoms: N_5  and  C_6
REMARK    5  A    between atoms: C_9  and  C_10
REMARK                            x       y       z     vdW  Elec       q    Type
REMARK                         _______ _______ _______ _____ _____    ______ ____
ROOT
ATOM      1  N   UNL     1      46.044   5.452  12.662  0.00  0.00    +0.000 N 
ATOM      2  H   UNL     1      46.689   5.844  11.983  0.00  0.00    +0.000 HD
ENDROOT
BRANCH   1   3
ATOM      3  C   UNL     1      46.694   4.917  13.792  0.00  0.00    +0.000 A 
ATOM      4  C   UNL     1      47.201   5.702  14.827  0.00  0.00    +0.000 A 
ATOM      5  C   UNL     1      47.851   5.110  15.911  0.00  0.00    +0.000 A 
ATOM      6  C   UNL     1      47.999   3.731  15.912  0.00  0.00    +0.000 A 
ATOM      7  N   UNL     1      47.563   2.920  14.910  0.00  0.00    +0.000 NA
ATOM      8  C   UNL     1      46.938   3.541  13.881  0.00  0.00    +0.000 A 
BRANCH   6   9
ATOM      9  C   UNL     1      48.678   3.057  17.063  0.00  0.00    +0.000 C 
ATOM     10  N   UNL     1      47.914   2.924  18.192  0.00  0.00    +0.000 N 
ATOM     11  O   UNL     1      49.834   2.654  17.011  0.00  0.00    +0.000 OA
ATOM     12  H   UNL     1      46.964   3.278  18.191  0.00  0.00    +0.000 HD
ATOM     13  H   UNL     1      48.304   2.489  19.014  0.00  0.00    +0.000 HD
ENDBRANCH   6   9
ENDBRANCH   1   3
BRANCH   1  17
ATOM     14  C   UNL     1      42.286   5.652  11.694  0.00  0.00    +0.000 C 
ATOM     15  C   UNL     1      43.506   5.486  12.535  0.00  0.00    +0.000 C 
ATOM     16  C   UNL     1      43.868   4.114  13.016  0.00  0.00    +0.000 C 
ATOM     17  C   UNL     1      44.820   4.841  12.078  0.00  0.00    +0.000 C 
BRANCH  17  18
ATOM     18  C   UNL     1      44.985   4.365  10.627  0.00  0.00    +0.000 A 
ATOM     19  C   UNL     1      45.626   5.162   9.654  0.00  0.00    +0.000 A 
ATOM     20  C   UNL     1      45.845   4.701   8.350  0.00  0.00    +0.000 A 
ATOM     21  C   UNL     1      45.421   3.427   7.991  0.00  0.00    +0.000 A 
ATOM     22  F   UNL     1      45.629   2.982   6.746  0.00  0.00    +0.000 F 
ATOM     23  C   UNL     1      44.794   2.608   8.915  0.00  0.00    +0.000 A 
ATOM     24  C   UNL     1      44.589   3.071  10.221  0.00  0.00    +0.000 A 
ENDBRANCH  17  18
ENDBRANCH   1  17
TORSDOF 4
ENDMDL
MODEL 3
REMARK VINA RESULT:    -6.908      4.129      6.309
REMARK INTER + INTRA:          -8.849
REMARK INTER:                  -8.982
REMARK INTRA:                   0.132
REMARK UNBOUND:                -0.326
REMARK  Name = 
REMARK  5 active torsions:
REMARK  status: ('A' for Active; 'I' for Inactive)
REMARK    1  A    between atoms: C_1  and  C_2
REMARK    2  A    between atoms: C_4  and  N_5
REMARK    3  A    between atoms: C_4  and  C_15
REMARK    4  A    between atoms: N_5  and  C_6
REMARK    5  A    between atoms: C_9  and  C_10
REMARK                            x       y       z     vdW  Elec       q    Type
REMARK                         _______ _______ _______ _____ _____    ______ ____
ROOT
ATOM      1  N   UNL     1      45.670   3.314  12.722  0.00  0.00    +0.000 N 
ATOM      2  H   UNL     1      45.525   2.561  13.388  0.00  0.00    +0.000 HD
ENDROOT
BRANCH   1   3
ATOM      3  C   UNL     1      46.397   4.393  13.261  0.00  0.00    +0.000 A 
ATOM      4  C   UNL     1      46.529   5.624  12.618  0.00  0.00    +0.000 A 
ATOM      5  C   UNL     1      47.279   6.647  13.199  0.00  0.00    +0.000 A 
ATOM      6  C   UNL     1      47.907   6.394  14.410  0.00  0.00    +0.000 A 
ATOM      7  N   UNL     1      47.849   5.200  15.059  0.00  0.00    +0.000 NA
ATOM      8  C   UNL     1      47.108   4.238  14.457  0.00  0.00    +0.000 A 
BRANCH   6   9
ATOM      9  C   UNL     1      48.710   7.471  15.071  0.00  0.00    +0.000 C 
ATOM     10  N   UNL     1      47.994   8.569  15.468  0.00  0.00    +0.000 N 
ATOM     11  O   UNL     1      49.919   7.388  15.245  0.00  0.00    +0.000 OA
ATOM     12  H   UNL     1      46.995   8.596  15.298  0.00  0.00    +0.000 HD
ATOM     13  H   UNL     1      48.465   9.341  15.912  0.00  0.00    +0.000 HD
ENDBRANCH   6   9
ENDBRANCH   1   3
BRANCH   1  17
ATOM     14  C   UNL     1      42.614   5.322  11.409  0.00  0.00    +0.000 C 
ATOM     15  C   UNL     1      43.416   4.387  12.248  0.00  0.00    +0.000 C 
ATOM     16  C   UNL     1      43.201   2.913  12.089  0.00  0.00    +0.000 C 
ATOM     17  C   UNL     1      44.562   3.502  11.746  0.00  0.00    +0.000 C 
BRANCH  17  18
ATOM     18  C   UNL     1      45.020   3.584  10.282  0.00  0.00    +0.000 A 
ATOM     19  C   UNL     1      45.471   4.794   9.714  0.00  0.00    +0.000 A 
ATOM     20  C   UNL     1      45.959   4.858   8.403  0.00  0.00    +0.000 A 
ATOM     21  C   UNL     1      46.001   3.703   7.629  0.00  0.00    +0.000 A 
ATOM     22  F   UNL     1      46.468   3.760   6.376  0.00  0.00    +0.000 F 
ATOM     23  C   UNL     1      45.575   2.493   8.148  0.00  0.00    +0.000 A 
ATOM     24  C   UNL     1      45.100   2.435   9.464  0.00  0.00    +0.000 A 
ENDBRANCH  17  18
ENDBRANCH   1  17
TORSDOF 4
ENDMDL
MODEL 4
REMARK VINA RESULT:    -6.625      3.910      6.496
REMARK INTER + INTRA:          -8.500
REMARK INTER:                  -8.262
REMARK INTRA:                  -0.238
REMARK UNBOUND:                -0.326
REMARK  Name = 
REMARK  5 active torsions:
REMARK  status: ('A' for Active; 'I' for Inactive)
REMARK    1  A    between atoms: C_1  and  C_2
REMARK    2  A    between atoms: C_4  and  N_5
REMARK    3  A    between atoms: C_4  and  C_15
REMARK    4  A    between atoms: N_5  and  C_6
REMARK    5  A    between atoms: C_9  and  C_10
REMARK                            x       y       z     vdW  Elec       q    Type
REMARK                         _______ _______ _______ _____ _____    ______ ____
ROOT
ATOM      1  N   UNL     1      45.939   5.146  12.848  0.00  0.00    +0.000 N 
ATOM      2  H   UNL     1      46.103   4.780  13.782  0.00  0.00    +0.000 HD
ENDROOT
BRANCH   1   3
ATOM      3  C   UNL     1      46.360   6.482  12.699  0.00  0.00    +0.000 A 
ATOM      4  C   UNL     1      45.514   7.576  12.881  0.00  0.00    +0.000 A 
ATOM      5  C   UNL     1      45.990   8.875  12.700  0.00  0.00    +0.000 A 
ATOM      6  C   UNL     1      47.311   9.041  12.310  0.00  0.00    +0.000 A 
ATOM      7  N   UNL     1      48.168   8.010  12.077  0.00  0.00    +0.000 NA
ATOM      8  C   UNL     1      47.660   6.769  12.266  0.00  0.00    +0.000 A 
BRANCH   6   9
ATOM      9  C   UNL     1      47.862  10.420  12.119  0.00  0.00    +0.000 C 
ATOM     10  N   UNL     1      47.067  11.433  12.584  0.00  0.00    +0.000 N 
ATOM     11  O   UNL     1      48.942  10.637  11.584  0.00  0.00    +0.000 OA
ATOM     12  H   UNL     1      46.177  11.207  13.015  0.00  0.00    +0.000 HD
ATOM     13  H   UNL     1      47.365  12.391  12.484  0.00  0.00    +0.000 HD
ENDBRANCH   6   9
ENDBRANCH   1   3
BRANCH   1  17
ATOM     14  C   UNL     1      42.241   5.521  11.718  0.00  0.00    +0.000 C 
ATOM     15  C   UNL     1      43.413   5.269  12.604  0.00  0.00    +0.000 C 
ATOM     16  C   UNL     1      43.709   3.862  13.024  0.00  0.00    +0.000 C 
ATOM     17  C   UNL     1      44.728   4.608  12.174  0.00  0.00    +0.000 C 
BRANCH  17  18
ATOM     18  C   UNL     1      44.948   4.207  10.707  0.00  0.00    +0.000 A 
ATOM     19  C   UNL     1      45.504   5.103   9.770  0.00  0.00    +0.000 A 
ATOM     20  C   UNL     1      45.777   4.718   8.452  0.00  0.00    +0.000 A 
ATOM     21  C   UNL     1      45.493   3.420   8.043  0.00  0.00    +0.000 A 
ATOM     22  F   UNL     1      45.753   3.048   6.783  0.00  0.00    +0.000 F 
ATOM     23  C   UNL     1      44.953   2.506   8.931  0.00  0.00    +0.000 A 
ATOM     24  C   UNL     1      44.694   2.894  10.251  0.00  0.00    +0.000 A 
ENDBRANCH  17  18
ENDBRANCH   1  17
TORSDOF 4
ENDMDL
MODEL 5
REMARK VINA RESULT:    -6.403      4.479      6.695
REMARK INTER + INTRA:          -8.227
REMARK INTER:                  -7.646
REMARK INTRA:                  -0.581
REMARK UNBOUND:                -0.326
REMARK  Name = 
REMARK  5 active torsions:
REMARK  status: ('A' for Active; 'I' for Inactive)
REMARK    1  A    between atoms: C_1  and  C_2
REMARK    2  A    between atoms: C_4  and  N_5
REMARK    3  A    between atoms: C_4  and  C_15
REMARK    4  A    between atoms: N_5  and  C_6
REMARK    5  A    between atoms: C_9  and  C_10
REMARK                            x       y       z     vdW  Elec       q    Type
REMARK                         _______ _______ _______ _____ _____    ______ ____
ROOT
ATOM      1  N   UNL     1      45.857   6.916  11.561  0.00  0.00    +0.000 N 
ATOM      2  H   UNL     1      46.163   7.187  10.630  0.00  0.00    +0.000 HD
ENDROOT
BRANCH   1   3
ATOM      3  C   UNL     1      46.833   7.152  12.550  0.00  0.00    +0.000 A 
ATOM      4  C   UNL     1      46.848   8.292  13.353  0.00  0.00    +0.000 A 
ATOM      5  C   UNL     1      47.854   8.474  14.303  0.00  0.00    +0.000 A 
ATOM      6  C   UNL     1      48.844   7.507  14.402  0.00  0.00    +0.000 A 
ATOM      7  N   UNL     1      48.903   6.398  13.617  0.00  0.00    +0.000 NA
ATOM      8  C   UNL     1      47.904   6.266  12.710  0.00  0.00    +0.000 A 
BRANCH   6   9
ATOM      9  C   UNL     1      49.932   7.660  15.419  0.00  0.00    +0.000 C 
ATOM     10  N   UNL     1      51.194   7.383  14.966  0.00  0.00    +0.000 N 
ATOM     11  O   UNL     1      49.719   8.003  16.576  0.00  0.00    +0.000 OA
ATOM     12  H   UNL     1      51.323   7.097  14.002  0.00  0.00    +0.000 HD
ATOM     13  H   UNL     1      51.980   7.454  15.594  0.00  0.00    +0.000 HD
ENDBRANCH   6   9
ENDBRANCH   1   3
BRANCH   1  17
ATOM     14  C   UNL     1      42.281   5.402  11.664  0.00  0.00    +0.000 C 
ATOM     15  C   UNL     1      43.542   6.041  12.136  0.00  0.00    +0.000 C 
ATOM     16  C   UNL     1      44.495   5.231  12.960  0.00  0.00    +0.000 C 
ATOM     17  C   UNL     1      44.946   5.741  11.598  0.00  0.00    +0.000 C 
BRANCH  17  18
ATOM     18  C   UNL     1      45.135   4.759  10.432  0.00  0.00    +0.000 A 
ATOM     19  C   UNL     1      45.684   5.171   9.199  0.00  0.00    +0.000 A 
ATOM     20  C   UNL     1      45.927   4.265   8.160  0.00  0.00    +0.000 A 
ATOM     21  C   UNL     1      45.621   2.920   8.335  0.00  0.00    +0.000 A 
ATOM     22  F   UNL     1      45.853   2.051   7.344  0.00  0.00    +0.000 F 
ATOM     23  C   UNL     1      45.087   2.471   9.531  0.00  0.00    +0.000 A 
ATOM     24  C   UNL     1      44.858   3.381  10.570  0.00  0.00    +0.000 A 
ENDBRANCH  17  18
ENDBRANCH   1  17
TORSDOF 4
ENDMDL
MODEL 6
REMARK VINA RESULT:    -6.146      3.592      5.455
REMARK INTER + INTRA:          -7.909
REMARK INTER:                  -7.157
REMARK INTRA:                  -0.752
REMARK UNBOUND:                -0.326
REMARK  Name = 
REMARK  5 active torsions:
REMARK  status: ('A' for Active; 'I' for Inactive)
REMARK    1  A    between atoms: C_1  and  C_2
REMARK    2  A    between atoms: C_4  and  N_5
REMARK    3  A    between atoms: C_4  and  C_15
REMARK    4  A    between atoms: N_5  and  C_6
REMARK    5  A    between atoms: C_9  and  C_10
REMARK                            x       y       z     vdW  Elec       q    Type
REMARK                         _______ _______ _______ _____ _____    ______ ____
ROOT
ATOM      1  N   UNL     1      46.179   7.660  13.212  0.00  0.00    +0.000 N 
ATOM      2  H   UNL     1      45.752   7.921  14.097  0.00  0.00    +0.000 HD
ENDROOT
BRANCH   1   3
ATOM      3  C   UNL     1      45.610   6.502  12.648  0.00  0.00    +0.000 A 
ATOM      4  C   UNL     1      44.852   6.514  11.477  0.00  0.00    +0.000 A 
ATOM      5  C   UNL     1      44.300   5.332  10.980  0.00  0.00    +0.000 A 
ATOM      6  C   UNL     1      44.504   4.162  11.696  0.00  0.00    +0.000 A 
ATOM      7  N   UNL     1      45.197   4.099  12.865  0.00  0.00    +0.000 NA
ATOM      8  C   UNL     1      45.714   5.271  13.306  0.00  0.00    +0.000 A 
BRANCH   6   9
ATOM      9  C   UNL     1      43.940   2.872  11.187  0.00  0.00    +0.000 C 
ATOM     10  N   UNL     1      44.577   2.349  10.094  0.00  0.00    +0.000 N 
ATOM     11  O   UNL     1      42.976   2.318  11.702  0.00  0.00    +0.000 OA
ATOM     12  H   UNL     1      45.368   2.845   9.697  0.00  0.00    +0.000 HD
ATOM     13  H   UNL     1      44.250   1.487   9.687  0.00  0.00    +0.000 HD
ENDBRANCH   6   9
ENDBRANCH   1   3
BRANCH   1  17
ATOM     14  C   UNL     1      49.065   9.998  12.072  0.00  0.00    +0.000 C 
ATOM     15  C   UNL     1      47.983   8.975  11.999  0.00  0.00    +0.000 C 
ATOM     16  C   UNL     1      48.363   7.534  11.846  0.00  0.00    +0.000 C 
ATOM     17  C   UNL     1      47.629   7.974  13.105  0.00  0.00    +0.000 C 
BRANCH  17  18
ATOM     18  C   UNL     1      48.366   8.016  14.452  0.00  0.00    +0.000 A 
ATOM     19  C   UNL     1      48.021   8.945  15.457  0.00  0.00    +0.000 A 
ATOM     20  C   UNL     1      48.639   8.937  16.712  0.00  0.00    +0.000 A 
ATOM     21  C   UNL     1      49.624   7.995  16.988  0.00  0.00    +0.000 A 
ATOM     22  F   UNL     1      50.217   7.984  18.188  0.00  0.00    +0.000 F 
ATOM     23  C   UNL     1      49.990   7.061  16.034  0.00  0.00    +0.000 A 
ATOM     24  C   UNL     1      49.358   7.067  14.784  0.00  0.00    +0.000 A 
ENDBRANCH  17  18
ENDBRANCH   1  17
TORSDOF 4
ENDMDL
MODEL 7
REMARK VINA RESULT:    -6.126      4.177      6.802
REMARK INTER + INTRA:          -7.885
REMARK INTER:                  -7.848
REMARK INTRA:                  -0.037
REMARK UNBOUND:                -0.326
REMARK  Name = 
REMARK  5 active torsions:
REMARK  status: ('A' for Active; 'I' for Inactive)
REMARK    1  A    between atoms: C_1  and  C_2
REMARK    2  A    between atoms: C_4  and  N_5
REMARK    3  A    between atoms: C_4  and  C_15
REMARK    4  A    between atoms: N_5  and  C_6
REMARK    5  A    between atoms: C_9  and  C_10
REMARK                            x       y       z     vdW  Elec       q    Type
REMARK                         _______ _______ _______ _____ _____    ______ ____
ROOT
ATOM      1  N   UNL     1      45.287   6.146  10.717  0.00  0.00    +0.000 N 
ATOM      2  H   UNL     1      45.395   6.483   9.764  0.00  0.00    +0.000 HD
ENDROOT
BRANCH   1   3
ATOM      3  C   UNL     1      46.035   6.889  11.651  0.00  0.00    +0.000 A 
ATOM      4  C   UNL     1      47.377   6.635  11.933  0.00  0.00    +0.000 A 
ATOM      5  C   UNL     1      48.056   7.399  12.883  0.00  0.00    +0.000 A 
ATOM      6  C   UNL     1      47.353   8.389  13.553  0.00  0.00    +0.000 A 
ATOM      7  N   UNL     1      46.033   8.651  13.350  0.00  0.00    +0.000 NA
ATOM      8  C   UNL     1      45.418   7.885  12.417  0.00  0.00    +0.000 A 
BRANCH   6   9
ATOM      9  C   UNL     1      48.050   9.237  14.570  0.00  0.00    +0.000 C 
ATOM     10  N   UNL     1      47.952   8.795  15.862  0.00  0.00    +0.000 N 
ATOM     11  O   UNL     1      48.664  10.257  14.279  0.00  0.00    +0.000 OA
ATOM     12  H   UNL     1      47.430   7.948  16.058  0.00  0.00    +0.000 HD
ATOM     13  H   UNL     1      48.388   9.318  16.606  0.00  0.00    +0.000 HD
ENDBRANCH   6   9
ENDBRANCH   1   3
BRANCH   1  17
ATOM     14  C   UNL     1      43.003   3.083  11.421  0.00  0.00    +0.000 C 
ATOM     15  C   UNL     1      43.871   4.268  11.677  0.00  0.00    +0.000 C 
ATOM     16  C   UNL     1      45.252   4.046  12.213  0.00  0.00    +0.000 C 
ATOM     17  C   UNL     1      45.087   4.677  10.838  0.00  0.00    +0.000 C 
BRANCH  17  18
ATOM     18  C   UNL     1      45.459   3.884   9.576  0.00  0.00    +0.000 A 
ATOM     19  C   UNL     1      45.902   4.527   8.401  0.00  0.00    +0.000 A 
ATOM     20  C   UNL     1      46.313   3.804   7.275  0.00  0.00    +0.000 A 
ATOM     21  C   UNL     1      46.287   2.414   7.302  0.00  0.00    +0.000 A 
ATOM     22  F   UNL     1      46.681   1.720   6.228  0.00  0.00    +0.000 F 
ATOM     23  C   UNL     1      45.866   1.742   8.437  0.00  0.00    +0.000 A 
ATOM     24  C   UNL     1      45.468   2.471   9.564  0.00  0.00    +0.000 A 
ENDBRANCH  17  18
ENDBRANCH   1  17
TORSDOF 4
ENDMDL
MODEL 8
REMARK VINA RESULT:    -5.783      3.798      5.799
REMARK INTER + INTRA:          -7.462
REMARK INTER:                  -6.580
REMARK INTRA:                  -0.881
REMARK UNBOUND:                -0.326
REMARK  Name = 
REMARK  5 active torsions:
REMARK  status: ('A' for Active; 'I' for Inactive)
REMARK    1  A    between atoms: C_1  and  C_2
REMARK    2  A    between atoms: C_4  and  N_5
REMARK    3  A    between atoms: C_4  and  C_15
REMARK    4  A    between atoms: N_5  and  C_6
REMARK    5  A    between atoms: C_9  and  C_10
REMARK                            x       y       z     vdW  Elec       q    Type
REMARK                         _______ _______ _______ _____ _____    ______ ____
ROOT
ATOM      1  N   UNL     1      48.254   6.380  13.174  0.00  0.00    +0.000 N 
ATOM      2  H   UNL     1      49.040   5.888  12.760  0.00  0.00    +0.000 HD
ENDROOT
BRANCH   1   3
ATOM      3  C   UNL     1      47.008   5.902  12.724  0.00  0.00    +0.000 A 
ATOM      4  C   UNL     1      46.452   6.250  11.493  0.00  0.00    +0.000 A 
ATOM      5  C   UNL     1      45.204   5.755  11.115  0.00  0.00    +0.000 A 
ATOM      6  C   UNL     1      44.527   4.936  12.006  0.00  0.00    +0.000 A 
ATOM      7  N   UNL     1      45.000   4.598  13.236  0.00  0.00    +0.000 NA
ATOM      8  C   UNL     1      46.216   5.103  13.557  0.00  0.00    +0.000 A 
BRANCH   6   9
ATOM      9  C   UNL     1      43.191   4.374  11.631  0.00  0.00    +0.000 C 
ATOM     10  N   UNL     1      42.139   5.242  11.755  0.00  0.00    +0.000 N 
ATOM     11  O   UNL     1      43.038   3.222  11.243  0.00  0.00    +0.000 OA
ATOM     12  H   UNL     1      42.311   6.185  12.085  0.00  0.00    +0.000 HD
ATOM     13  H   UNL     1      41.206   4.935  11.530  0.00  0.00    +0.000 HD
ENDBRANCH   6   9
ENDBRANCH   1   3
BRANCH   1  17
ATOM     14  C   UNL     1      49.561   9.190  15.518  0.00  0.00    +0.000 C 
ATOM     15  C   UNL     1      48.654   8.151  14.952  0.00  0.00    +0.000 C 
ATOM     16  C   UNL     1      47.427   8.592  14.213  0.00  0.00    +0.000 C 
ATOM     17  C   UNL     1      48.503   7.818  13.463  0.00  0.00    +0.000 C 
BRANCH  17  18
ATOM     18  C   UNL     1      49.376   8.529  12.418  0.00  0.00    +0.000 A 
ATOM     19  C   UNL     1      49.048   9.811  11.927  0.00  0.00    +0.000 A 
ATOM     20  C   UNL     1      49.880  10.494  11.032  0.00  0.00    +0.000 A 
ATOM     21  C   UNL     1      51.064   9.901  10.606  0.00  0.00    +0.000 A 
ATOM     22  F   UNL     1      51.863  10.552   9.751  0.00  0.00    +0.000 F 
ATOM     23  C   UNL     1      51.428   8.648  11.067  0.00  0.00    +0.000 A 
ATOM     24  C   UNL     1      50.597   7.976  11.972  0.00  0.00    +0.000 A 
ENDBRANCH  17  18
ENDBRANCH   1  17
TORSDOF 4
ENDMDL
