MODEL 1
REMARK VINA RESULT:    -8.026      0.000      0.000
REMARK INTER + INTRA:         -11.825
REMARK INTER:                 -10.841
REMARK INTRA:                  -0.983
REMARK UNBOUND:                -0.983
REMARK  Name = 
REMARK  7 active torsions:
REMARK  status: ('A' for Active; 'I' for Inactive)
REMARK    1  A    between atoms: C_1  and  N_2
REMARK    2  A    between atoms: C_8  and  C_9
REMARK    3  A    between atoms: N_11  and  C_12
REMARK    4  A    between atoms: C_12  and  C_13
REMARK    5  A    between atoms: C_16  and  C_17
REMARK    6  A    between atoms: C_17  and  O_18
REMARK    7  A    between atoms: O_18  and  C_19
REMARK                            x       y       z     vdW  Elec       q    Type
REMARK                         _______ _______ _______ _____ _____    ______ ____
ROOT
ATOM      1  C   UNL     1      49.049   6.557  15.679  0.00  0.00    +0.000 C 
ATOM      2  O   UNL     1      50.164   6.786  15.217  0.00  0.00    +0.000 OA
ATOM      3  N   UNL     1      47.893   6.748  14.972  0.00  0.00    +0.000 N 
ATOM      4  H   UNL     1      47.014   6.436  15.364  0.00  0.00    +0.000 HD
ENDROOT
BRANCH   1  12
ATOM      5  C   UNL     1      46.996   9.818  19.888  0.00  0.00    +0.000 C 
ATOM      6  N   UNL     1      47.487   8.474  19.665  0.00  0.00    +0.000 N 
ATOM      7  C   UNL     1      47.550   7.565  20.701  0.00  0.00    +0.000 A 
ATOM      8  N   UNL     1      47.977   6.348  20.606  0.00  0.00    +0.000 NA
ATOM      9  C   UNL     1      48.379   5.988  19.359  0.00  0.00    +0.000 A 
ATOM     10  S   UNL     1      48.929   4.410  19.039  0.00  0.00    +0.000 S 
ATOM     11  C   UNL     1      49.173   4.769  17.390  0.00  0.00    +0.000 A 
ATOM     12  C   UNL     1      48.880   6.085  17.061  0.00  0.00    +0.000 A 
ATOM     13  C   UNL     1      48.398   6.784  18.231  0.00  0.00    +0.000 A 
ATOM     14  C   UNL     1      47.928   8.150  18.386  0.00  0.00    +0.000 A 
ATOM     15  O   UNL     1      47.949   8.966  17.468  0.00  0.00    +0.000 OA
ENDBRANCH   1  12
BRANCH   3  16
ATOM     16  C   UNL     1      47.875   7.107  13.577  0.00  0.00    +0.000 C 
BRANCH  16  17
ATOM     17  C   UNL     1      46.931   6.243  12.786  0.00  0.00    +0.000 A 
ATOM     18  C   UNL     1      46.544   4.993  13.286  0.00  0.00    +0.000 A 
ATOM     19  C   UNL     1      45.675   4.175  12.564  0.00  0.00    +0.000 A 
ATOM     20  C   UNL     1      45.191   4.583  11.316  0.00  0.00    +0.000 A 
ATOM     21  C   UNL     1      45.572   5.836  10.815  0.00  0.00    +0.000 A 
ATOM     22  C   UNL     1      46.443   6.655  11.538  0.00  0.00    +0.000 A 
BRANCH  20  23
ATOM     23  C   UNL     1      44.297   3.676  10.506  0.00  0.00    +0.000 C 
BRANCH  23  24
ATOM     24  O   UNL     1      44.328   4.064   9.133  0.00  0.00    +0.000 OA
BRANCH  24  25
ATOM     25  C   UNL     1      45.297   3.368   8.431  0.00  0.00    +0.000 A 
ATOM     26  C   UNL     1      45.438   2.021   8.720  0.00  0.00    +0.000 A 
ATOM     27  C   UNL     1      46.391   1.291   8.012  0.00  0.00    +0.000 A 
ATOM     28  C   UNL     1      47.158   1.930   7.044  0.00  0.00    +0.000 A 
ATOM     29  C   UNL     1      46.949   3.281   6.831  0.00  0.00    +0.000 A 
ATOM     30  N   UNL     1      46.035   4.014   7.501  0.00  0.00    +0.000 NA
ENDBRANCH  24  25
ENDBRANCH  23  24
ENDBRANCH  20  23
ENDBRANCH  16  17
ENDBRANCH   3  16
TORSDOF 6
ENDMDL
MODEL 2
REMARK VINA RESULT:    -7.875      1.735      2.549
REMARK INTER + INTRA:         -11.621
REMARK INTER:                 -10.588
REMARK INTRA:                  -1.032
REMARK UNBOUND:                -0.983
REMARK  Name = 
REMARK  7 active torsions:
REMARK  status: ('A' for Active; 'I' for Inactive)
REMARK    1  A    between atoms: C_1  and  N_2
REMARK    2  A    between atoms: C_8  and  C_9
REMARK    3  A    between atoms: N_11  and  C_12
REMARK    4  A    between atoms: C_12  and  C_13
REMARK    5  A    between atoms: C_16  and  C_17
REMARK    6  A    between atoms: C_17  and  O_18
REMARK    7  A    between atoms: O_18  and  C_19
REMARK                            x       y       z     vdW  Elec       q    Type
REMARK                         _______ _______ _______ _____ _____    ______ ____
ROOT
ATOM      1  C   UNL     1      48.853   8.091  15.172  0.00  0.00    +0.000 C 
ATOM      2  O   UNL     1      49.840   8.275  14.464  0.00  0.00    +0.000 OA
ATOM      3  N   UNL     1      47.571   8.238  14.718  0.00  0.00    +0.000 N 
ATOM      4  H   UNL     1      46.799   7.964  15.313  0.00  0.00    +0.000 HD
ENDROOT
BRANCH   1  12
ATOM      5  C   UNL     1      48.035   2.806  17.160  0.00  0.00    +0.000 C 
ATOM      6  N   UNL     1      48.387   4.127  17.635  0.00  0.00    +0.000 N 
ATOM      7  C   UNL     1      48.627   4.354  18.975  0.00  0.00    +0.000 A 
ATOM      8  N   UNL     1      48.939   5.495  19.498  0.00  0.00    +0.000 NA
ATOM      9  C   UNL     1      49.030   6.517  18.608  0.00  0.00    +0.000 A 
ATOM     10  S   UNL     1      49.474   8.080  19.112  0.00  0.00    +0.000 S 
ATOM     11  C   UNL     1      49.387   8.680  17.519  0.00  0.00    +0.000 A 
ATOM     12  C   UNL     1      48.989   7.729  16.590  0.00  0.00    +0.000 A 
ATOM     13  C   UNL     1      48.799   6.455  17.248  0.00  0.00    +0.000 A 
ATOM     14  C   UNL     1      48.431   5.159  16.703  0.00  0.00    +0.000 A 
ATOM     15  O   UNL     1      48.149   4.994  15.519  0.00  0.00    +0.000 OA
ENDBRANCH   1  12
BRANCH   3  16
ATOM     16  C   UNL     1      47.250   8.489  13.336  0.00  0.00    +0.000 C 
BRANCH  16  17
ATOM     17  C   UNL     1      46.409   7.389  12.746  0.00  0.00    +0.000 A 
ATOM     18  C   UNL     1      46.779   6.052  12.931  0.00  0.00    +0.000 A 
ATOM     19  C   UNL     1      46.016   5.019  12.385  0.00  0.00    +0.000 A 
ATOM     20  C   UNL     1      44.876   5.306  11.625  0.00  0.00    +0.000 A 
ATOM     21  C   UNL     1      44.500   6.644  11.443  0.00  0.00    +0.000 A 
ATOM     22  C   UNL     1      45.264   7.678  11.989  0.00  0.00    +0.000 A 
BRANCH  20  23
ATOM     23  C   UNL     1      44.081   4.194  10.986  0.00  0.00    +0.000 C 
BRANCH  23  24
ATOM     24  O   UNL     1      43.956   4.432   9.584  0.00  0.00    +0.000 OA
BRANCH  24  25
ATOM     25  C   UNL     1      44.897   3.718   8.862  0.00  0.00    +0.000 A 
ATOM     26  C   UNL     1      44.986   2.359   9.115  0.00  0.00    +0.000 A 
ATOM     27  C   UNL     1      45.909   1.612   8.386  0.00  0.00    +0.000 A 
ATOM     28  C   UNL     1      46.700   2.247   7.434  0.00  0.00    +0.000 A 
ATOM     29  C   UNL     1      46.543   3.610   7.257  0.00  0.00    +0.000 A 
ATOM     30  N   UNL     1      45.658   4.359   7.948  0.00  0.00    +0.000 NA
ENDBRANCH  24  25
ENDBRANCH  23  24
ENDBRANCH  20  23
ENDBRANCH  16  17
ENDBRANCH   3  16
TORSDOF 6
ENDMDL
MODEL 3
REMARK VINA RESULT:    -7.770      2.590      4.123
REMARK INTER + INTRA:         -11.478
REMARK INTER:                 -10.335
REMARK INTRA:                  -1.143
REMARK UNBOUND:                -0.983
REMARK  Name = 
REMARK  7 active torsions:
REMARK  status: ('A' for Active; 'I' for Inactive)
REMARK    1  A    between atoms: C_1  and  N_2
REMARK    2  A    between atoms: C_8  and  C_9
REMARK    3  A    between atoms: N_11  and  C_12
REMARK    4  A    between atoms: C_12  and  C_13
REMARK    5  A    between atoms: C_16  and  C_17
REMARK    6  A    between atoms: C_17  and  O_18
REMARK    7  A    between atoms: O_18  and  C_19
REMARK                            x       y       z     vdW  Elec       q    Type
REMARK                         _______ _______ _______ _____ _____    ______ ____
ROOT
ATOM      1  C   UNL     1      48.579   6.090  15.737  0.00  0.00    +0.000 C 
ATOM      2  O   UNL     1      49.109   5.165  16.347  0.00  0.00    +0.000 OA
ATOM      3  N   UNL     1      47.530   5.912  14.875  0.00  0.00    +0.000 N 
ATOM      4  H   UNL     1      47.062   6.722  14.490  0.00  0.00    +0.000 HD
ENDROOT
BRANCH   1  12
ATOM      5  C   UNL     1      50.463   9.195  11.336  0.00  0.00    +0.000 C 
ATOM      6  N   UNL     1      50.264   9.305  12.766  0.00  0.00    +0.000 N 
ATOM      7  C   UNL     1      50.590  10.466  13.437  0.00  0.00    +0.000 A 
ATOM      8  N   UNL     1      50.456  10.659  14.709  0.00  0.00    +0.000 NA
ATOM      9  C   UNL     1      49.943   9.602  15.389  0.00  0.00    +0.000 A 
ATOM     10  S   UNL     1      49.656   9.694  17.064  0.00  0.00    +0.000 S 
ATOM     11  C   UNL     1      49.036   8.106  17.102  0.00  0.00    +0.000 A 
ATOM     12  C   UNL     1      49.067   7.470  15.869  0.00  0.00    +0.000 A 
ATOM     13  C   UNL     1      49.590   8.373  14.868  0.00  0.00    +0.000 A 
ATOM     14  C   UNL     1      49.774   8.190  13.438  0.00  0.00    +0.000 A 
ATOM     15  O   UNL     1      49.547   7.123  12.872  0.00  0.00    +0.000 OA
ENDBRANCH   1  12
BRANCH   3  16
ATOM     16  C   UNL     1      46.860   4.649  14.702  0.00  0.00    +0.000 C 
BRANCH  16  17
ATOM     17  C   UNL     1      46.248   4.519  13.333  0.00  0.00    +0.000 A 
ATOM     18  C   UNL     1      46.242   5.618  12.465  0.00  0.00    +0.000 A 
ATOM     19  C   UNL     1      45.673   5.520  11.195  0.00  0.00    +0.000 A 
ATOM     20  C   UNL     1      45.081   4.323  10.776  0.00  0.00    +0.000 A 
ATOM     21  C   UNL     1      45.090   3.220  11.641  0.00  0.00    +0.000 A 
ATOM     22  C   UNL     1      45.660   3.319  12.913  0.00  0.00    +0.000 A 
BRANCH  20  23
ATOM     23  C   UNL     1      44.414   4.230   9.425  0.00  0.00    +0.000 C 
BRANCH  23  24
ATOM     24  O   UNL     1      44.320   2.864   9.024  0.00  0.00    +0.000 OA
BRANCH  24  25
ATOM     25  C   UNL     1      45.392   2.492   8.231  0.00  0.00    +0.000 A 
ATOM     26  C   UNL     1      45.830   3.414   7.294  0.00  0.00    +0.000 A 
ATOM     27  C   UNL     1      46.923   3.075   6.498  0.00  0.00    +0.000 A 
ATOM     28  C   UNL     1      47.535   1.838   6.671  0.00  0.00    +0.000 A 
ATOM     29  C   UNL     1      47.021   0.983   7.629  0.00  0.00    +0.000 A 
ATOM     30  N   UNL     1      45.965   1.282   8.414  0.00  0.00    +0.000 NA
ENDBRANCH  24  25
ENDBRANCH  23  24
ENDBRANCH  20  23
ENDBRANCH  16  17
ENDBRANCH   3  16
TORSDOF 6
ENDMDL
MODEL 4
REMARK VINA RESULT:    -7.730      4.746      9.214
REMARK INTER + INTRA:         -11.425
REMARK INTER:                 -10.542
REMARK INTRA:                  -0.883
REMARK UNBOUND:                -0.983
REMARK  Name = 
REMARK  7 active torsions:
REMARK  status: ('A' for Active; 'I' for Inactive)
REMARK    1  A    between atoms: C_1  and  N_2
REMARK    2  A    between atoms: C_8  and  C_9
REMARK    3  A    between atoms: N_11  and  C_12
REMARK    4  A    between atoms: C_12  and  C_13
REMARK    5  A    between atoms: C_16  and  C_17
REMARK    6  A    between atoms: C_17  and  O_18
REMARK    7  A    between atoms: O_18  and  C_19
REMARK                            x       y       z     vdW  Elec       q    Type
REMARK                         _______ _______ _______ _____ _____    ______ ____
ROOT
ATOM      1  C   UNL     1      47.187   4.267  14.805  0.00  0.00    +0.000 C 
ATOM      2  O   UNL     1      47.348   3.143  14.337  0.00  0.00    +0.000 OA
ATOM      3  N   UNL     1      47.121   4.513  16.150  0.00  0.00    +0.000 N 
ATOM      4  H   UNL     1      47.101   5.470  16.479  0.00  0.00    +0.000 HD
ENDROOT
BRANCH   1  12
ATOM      5  C   UNL     1      42.447   5.288  11.797  0.00  0.00    +0.000 C 
ATOM      6  N   UNL     1      43.749   5.870  12.045  0.00  0.00    +0.000 N 
ATOM      7  C   UNL     1      44.126   7.045  11.429  0.00  0.00    +0.000 A 
ATOM      8  N   UNL     1      45.266   7.638  11.580  0.00  0.00    +0.000 NA
ATOM      9  C   UNL     1      46.119   7.012  12.429  0.00  0.00    +0.000 A 
ATOM     10  S   UNL     1      47.647   7.673  12.782  0.00  0.00    +0.000 S 
ATOM     11  C   UNL     1      48.016   6.398  13.851  0.00  0.00    +0.000 A 
ATOM     12  C   UNL     1      47.017   5.438  13.934  0.00  0.00    +0.000 A 
ATOM     13  C   UNL     1      45.900   5.826  13.101  0.00  0.00    +0.000 A 
ATOM     14  C   UNL     1      44.615   5.181  12.890  0.00  0.00    +0.000 A 
ATOM     15  O   UNL     1      44.327   4.096  13.390  0.00  0.00    +0.000 OA
ENDBRANCH   1  12
BRANCH   3  16
ATOM     16  C   UNL     1      47.369   3.504  17.147  0.00  0.00    +0.000 C 
BRANCH  16  17
ATOM     17  C   UNL     1      48.840   3.280  17.367  0.00  0.00    +0.000 A 
ATOM     18  C   UNL     1      49.613   4.274  17.980  0.00  0.00    +0.000 A 
ATOM     19  C   UNL     1      50.981   4.088  18.186  0.00  0.00    +0.000 A 
ATOM     20  C   UNL     1      51.606   2.908  17.764  0.00  0.00    +0.000 A 
ATOM     21  C   UNL     1      50.833   1.909  17.156  0.00  0.00    +0.000 A 
ATOM     22  C   UNL     1      49.464   2.096  16.949  0.00  0.00    +0.000 A 
BRANCH  20  23
ATOM     23  C   UNL     1      53.095   2.728  17.934  0.00  0.00    +0.000 C 
BRANCH  23  24
ATOM     24  O   UNL     1      53.352   1.695  18.885  0.00  0.00    +0.000 OA
BRANCH  24  25
ATOM     25  C   UNL     1      53.911   0.580  18.286  0.00  0.00    +0.000 A 
ATOM     26  C   UNL     1      54.447   0.749  17.019  0.00  0.00    +0.000 A 
ATOM     27  C   UNL     1      55.037  -0.352  16.401  0.00  0.00    +0.000 A 
ATOM     28  C   UNL     1      55.074  -1.571  17.071  0.00  0.00    +0.000 A 
ATOM     29  C   UNL     1      54.507  -1.642  18.331  0.00  0.00    +0.000 A 
ATOM     30  N   UNL     1      53.929  -0.594  18.954  0.00  0.00    +0.000 NA
ENDBRANCH  24  25
ENDBRANCH  23  24
ENDBRANCH  20  23
ENDBRANCH  16  17
ENDBRANCH   3  16
TORSDOF 6
ENDMDL
MODEL 5
REMARK VINA RESULT:    -7.187      2.390      3.328
REMARK INTER + INTRA:         -10.691
REMARK INTER:                 -10.138
REMARK INTRA:                  -0.553
REMARK UNBOUND:                -0.983
REMARK  Name = 
REMARK  7 active torsions:
REMARK  status: ('A' for Active; 'I' for Inactive)
REMARK    1  A    between atoms: C_1  and  N_2
REMARK    2  A    between atoms: C_8  and  C_9
REMARK    3  A    between atoms: N_11  and  C_12
REMARK    4  A    between atoms: C_12  and  C_13
REMARK    5  A    between atoms: C_16  and  C_17
REMARK    6  A    between atoms: C_17  and  O_18
REMARK    7  A    between atoms: O_18  and  C_19
REMARK                            x       y       z     vdW  Elec       q    Type
REMARK                         _______ _______ _______ _____ _____    ______ ____
ROOT
ATOM      1  C   UNL     1      48.366   6.896  13.924  0.00  0.00    +0.000 C 
ATOM      2  O   UNL     1      49.152   6.261  13.226  0.00  0.00    +0.000 OA
ATOM      3  N   UNL     1      47.194   6.371  14.398  0.00  0.00    +0.000 N 
ATOM      4  H   UNL     1      46.644   6.902  15.060  0.00  0.00    +0.000 HD
ENDROOT
BRANCH   1  12
ATOM      5  C   UNL     1      49.159   8.708  19.277  0.00  0.00    +0.000 C 
ATOM      6  N   UNL     1      49.115   9.226  17.926  0.00  0.00    +0.000 N 
ATOM      7  C   UNL     1      49.296  10.572  17.680  0.00  0.00    +0.000 A 
ATOM      8  N   UNL     1      49.268  11.132  16.515  0.00  0.00    +0.000 NA
ATOM      9  C   UNL     1      49.043  10.276  15.484  0.00  0.00    +0.000 A 
ATOM     10  S   UNL     1      49.017  10.831  13.876  0.00  0.00    +0.000 S 
ATOM     11  C   UNL     1      48.736   9.259  13.278  0.00  0.00    +0.000 A 
ATOM     12  C   UNL     1      48.621   8.301  14.275  0.00  0.00    +0.000 A 
ATOM     13  C   UNL     1      48.821   8.916  15.568  0.00  0.00    +0.000 A 
ATOM     14  C   UNL     1      48.842   8.330  16.897  0.00  0.00    +0.000 A 
ATOM     15  O   UNL     1      48.604   7.142  17.102  0.00  0.00    +0.000 OA
ENDBRANCH   1  12
BRANCH   3  16
ATOM     16  C   UNL     1      46.833   4.985  14.238  0.00  0.00    +0.000 C 
BRANCH  16  17
ATOM     17  C   UNL     1      46.148   4.731  12.922  0.00  0.00    +0.000 A 
ATOM     18  C   UNL     1      46.015   5.770  11.992  0.00  0.00    +0.000 A 
ATOM     19  C   UNL     1      45.377   5.555  10.770  0.00  0.00    +0.000 A 
ATOM     20  C   UNL     1      44.840   4.299  10.463  0.00  0.00    +0.000 A 
ATOM     21  C   UNL     1      44.976   3.257  11.390  0.00  0.00    +0.000 A 
ATOM     22  C   UNL     1      45.615   3.472  12.614  0.00  0.00    +0.000 A 
BRANCH  20  23
ATOM     23  C   UNL     1      44.098   4.080   9.167  0.00  0.00    +0.000 C 
BRANCH  23  24
ATOM     24  O   UNL     1      44.948   4.394   8.064  0.00  0.00    +0.000 OA
BRANCH  24  25
ATOM     25  C   UNL     1      45.776   3.332   7.743  0.00  0.00    +0.000 A 
ATOM     26  C   UNL     1      46.841   3.598   6.897  0.00  0.00    +0.000 A 
ATOM     27  C   UNL     1      47.704   2.552   6.574  0.00  0.00    +0.000 A 
ATOM     28  C   UNL     1      47.475   1.290   7.111  0.00  0.00    +0.000 A 
ATOM     29  C   UNL     1      46.381   1.121   7.941  0.00  0.00    +0.000 A 
ATOM     30  N   UNL     1      45.529   2.113   8.271  0.00  0.00    +0.000 NA
ENDBRANCH  24  25
ENDBRANCH  23  24
ENDBRANCH  20  23
ENDBRANCH  16  17
ENDBRANCH   3  16
TORSDOF 6
ENDMDL
MODEL 6
REMARK VINA RESULT:    -7.041      1.851      2.118
REMARK INTER + INTRA:         -10.494
REMARK INTER:                  -9.835
REMARK INTRA:                  -0.659
REMARK UNBOUND:                -0.983
REMARK  Name = 
REMARK  7 active torsions:
REMARK  status: ('A' for Active; 'I' for Inactive)
REMARK    1  A    between atoms: C_1  and  N_2
REMARK    2  A    between atoms: C_8  and  C_9
REMARK    3  A    between atoms: N_11  and  C_12
REMARK    4  A    between atoms: C_12  and  C_13
REMARK    5  A    between atoms: C_16  and  C_17
REMARK    6  A    between atoms: C_17  and  O_18
REMARK    7  A    between atoms: O_18  and  C_19
REMARK                            x       y       z     vdW  Elec       q    Type
REMARK                         _______ _______ _______ _____ _____    ______ ____
ROOT
ATOM      1  C   UNL     1      47.798   5.912  14.243  0.00  0.00    +0.000 C 
ATOM      2  O   UNL     1      48.605   5.725  13.336  0.00  0.00    +0.000 OA
ATOM      3  N   UNL     1      46.740   6.774  14.135  0.00  0.00    +0.000 N 
ATOM      4  H   UNL     1      46.046   6.801  14.871  0.00  0.00    +0.000 HD
ENDROOT
BRANCH   1  12
ATOM      5  C   UNL     1      50.870   8.008  18.571  0.00  0.00    +0.000 C 
ATOM      6  N   UNL     1      50.047   6.861  18.248  0.00  0.00    +0.000 N 
ATOM      7  C   UNL     1      49.844   5.856  19.172  0.00  0.00    +0.000 A 
ATOM      8  N   UNL     1      49.135   4.792  18.978  0.00  0.00    +0.000 NA
ATOM      9  C   UNL     1      48.561   4.713  17.749  0.00  0.00    +0.000 A 
ATOM     10  S   UNL     1      47.557   3.403  17.335  0.00  0.00    +0.000 S 
ATOM     11  C   UNL     1      47.261   4.048  15.784  0.00  0.00    +0.000 A 
ATOM     12  C   UNL     1      47.938   5.235  15.540  0.00  0.00    +0.000 A 
ATOM     13  C   UNL     1      48.686   5.620  16.716  0.00  0.00    +0.000 A 
ATOM     14  C   UNL     1      49.508   6.792  16.967  0.00  0.00    +0.000 A 
ATOM     15  O   UNL     1      49.736   7.638  16.107  0.00  0.00    +0.000 OA
ENDBRANCH   1  12
BRANCH   3  16
ATOM     16  C   UNL     1      46.392   7.442  12.907  0.00  0.00    +0.000 C 
BRANCH  16  17
ATOM     17  C   UNL     1      45.793   6.495  11.902  0.00  0.00    +0.000 A 
ATOM     18  C   UNL     1      44.740   5.652  12.280  0.00  0.00    +0.000 A 
ATOM     19  C   UNL     1      44.176   4.762  11.364  0.00  0.00    +0.000 A 
ATOM     20  C   UNL     1      44.670   4.685  10.057  0.00  0.00    +0.000 A 
ATOM     21  C   UNL     1      45.719   5.532   9.675  0.00  0.00    +0.000 A 
ATOM     22  C   UNL     1      46.285   6.422  10.592  0.00  0.00    +0.000 A 
BRANCH  20  23
ATOM     23  C   UNL     1      44.100   3.684   9.081  0.00  0.00    +0.000 C 
BRANCH  23  24
ATOM     24  O   UNL     1      44.861   2.477   9.127  0.00  0.00    +0.000 OA
BRANCH  24  25
ATOM     25  C   UNL     1      45.742   2.392   8.063  0.00  0.00    +0.000 A 
ATOM     26  C   UNL     1      46.560   1.274   8.012  0.00  0.00    +0.000 A 
ATOM     27  C   UNL     1      47.442   1.152   6.939  0.00  0.00    +0.000 A 
ATOM     28  C   UNL     1      47.468   2.141   5.962  0.00  0.00    +0.000 A 
ATOM     29  C   UNL     1      46.617   3.222   6.103  0.00  0.00    +0.000 A 
ATOM     30  N   UNL     1      45.754   3.369   7.130  0.00  0.00    +0.000 NA
ENDBRANCH  24  25
ENDBRANCH  23  24
ENDBRANCH  20  23
ENDBRANCH  16  17
ENDBRANCH   3  16
TORSDOF 6
ENDMDL
MODEL 7
REMARK VINA RESULT:    -6.958      4.446      8.770
REMARK INTER + INTRA:         -10.382
REMARK INTER:                  -9.254
REMARK INTRA:                  -1.128
REMARK UNBOUND:                -0.983
REMARK  Name = 
REMARK  7 active torsions:
REMARK  status: ('A' for Active; 'I' for Inactive)
REMARK    1  A    between atoms: C_1  and  N_2
REMARK    2  A    between atoms: C_8  and  C_9
REMARK    3  A    between atoms: N_11  and  C_12
REMARK    4  A    between atoms: C_12  and  C_13
REMARK    5  A    between atoms: C_16  and  C_17
REMARK    6  A    between atoms: C_17  and  O_18
REMARK    7  A    between atoms: O_18  and  C_19
REMARK                            x       y       z     vdW  Elec       q    Type
REMARK                         _______ _______ _______ _____ _____    ______ ____
ROOT
ATOM      1  C   UNL     1      47.017   4.023  14.823  0.00  0.00    +0.000 C 
ATOM      2  O   UNL     1      47.389   2.945  14.366  0.00  0.00    +0.000 OA
ATOM      3  N   UNL     1      46.884   4.260  16.164  0.00  0.00    +0.000 N 
ATOM      4  H   UNL     1      46.684   5.199  16.485  0.00  0.00    +0.000 HD
ENDROOT
BRANCH   1  12
ATOM      5  C   UNL     1      50.302   8.622  14.038  0.00  0.00    +0.000 C 
ATOM      6  N   UNL     1      49.032   8.080  13.604  0.00  0.00    +0.000 N 
ATOM      7  C   UNL     1      48.231   8.777  12.722  0.00  0.00    +0.000 A 
ATOM      8  N   UNL     1      47.081   8.382  12.282  0.00  0.00    +0.000 NA
ATOM      9  C   UNL     1      46.681   7.173  12.754  0.00  0.00    +0.000 A 
ATOM     10  S   UNL     1      45.213   6.477  12.246  0.00  0.00    +0.000 S 
ATOM     11  C   UNL     1      45.478   5.088  13.200  0.00  0.00    +0.000 A 
ATOM     12  C   UNL     1      46.650   5.140  13.940  0.00  0.00    +0.000 A 
ATOM     13  C   UNL     1      47.354   6.369  13.652  0.00  0.00    +0.000 A 
ATOM     14  C   UNL     1      48.634   6.858  14.137  0.00  0.00    +0.000 A 
ATOM     15  O   UNL     1      49.297   6.257  14.979  0.00  0.00    +0.000 OA
ENDBRANCH   1  12
BRANCH   3  16
ATOM     16  C   UNL     1      47.294   3.317  17.173  0.00  0.00    +0.000 C 
BRANCH  16  17
ATOM     17  C   UNL     1      48.781   3.350  17.402  0.00  0.00    +0.000 A 
ATOM     18  C   UNL     1      49.568   2.250  17.039  0.00  0.00    +0.000 A 
ATOM     19  C   UNL     1      50.947   2.259  17.251  0.00  0.00    +0.000 A 
ATOM     20  C   UNL     1      51.564   3.365  17.848  0.00  0.00    +0.000 A 
ATOM     21  C   UNL     1      50.780   4.470  18.206  0.00  0.00    +0.000 A 
ATOM     22  C   UNL     1      49.399   4.460  17.996  0.00  0.00    +0.000 A 
BRANCH  20  23
ATOM     23  C   UNL     1      53.047   3.355  18.130  0.00  0.00    +0.000 C 
BRANCH  23  24
ATOM     24  O   UNL     1      53.370   2.258  18.984  0.00  0.00    +0.000 OA
BRANCH  24  25
ATOM     25  C   UNL     1      53.975   1.229  18.284  0.00  0.00    +0.000 A 
ATOM     26  C   UNL     1      54.798   1.586  17.228  0.00  0.00    +0.000 A 
ATOM     27  C   UNL     1      55.438   0.571  16.519  0.00  0.00    +0.000 A 
ATOM     28  C   UNL     1      55.236  -0.753  16.893  0.00  0.00    +0.000 A 
ATOM     29  C   UNL     1      54.391  -1.010  17.958  0.00  0.00    +0.000 A 
ATOM     30  N   UNL     1      53.758  -0.050  18.662  0.00  0.00    +0.000 NA
ENDBRANCH  24  25
ENDBRANCH  23  24
ENDBRANCH  20  23
ENDBRANCH  16  17
ENDBRANCH   3  16
TORSDOF 6
ENDMDL
MODEL 8
REMARK VINA RESULT:    -6.727      3.934      4.936
REMARK INTER + INTRA:         -10.069
REMARK INTER:                  -9.042
REMARK INTRA:                  -1.028
REMARK UNBOUND:                -0.983
REMARK  Name = 
REMARK  7 active torsions:
REMARK  status: ('A' for Active; 'I' for Inactive)
REMARK    1  A    between atoms: C_1  and  N_2
REMARK    2  A    between atoms: C_8  and  C_9
REMARK    3  A    between atoms: N_11  and  C_12
REMARK    4  A    between atoms: C_12  and  C_13
REMARK    5  A    between atoms: C_16  and  C_17
REMARK    6  A    between atoms: C_17  and  O_18
REMARK    7  A    between atoms: O_18  and  C_19
REMARK                            x       y       z     vdW  Elec       q    Type
REMARK                         _______ _______ _______ _____ _____    ______ ____
ROOT
ATOM      1  C   UNL     1      48.863   8.494  12.935  0.00  0.00    +0.000 C 
ATOM      2  O   UNL     1      48.163   9.500  13.014  0.00  0.00    +0.000 OA
ATOM      3  N   UNL     1      48.435   7.254  13.324  0.00  0.00    +0.000 N 
ATOM      4  H   UNL     1      49.014   6.446  13.130  0.00  0.00    +0.000 HD
ENDROOT
BRANCH   1  12
ATOM      5  C   UNL     1      53.434   7.659  16.248  0.00  0.00    +0.000 C 
ATOM      6  N   UNL     1      53.103   7.964  14.872  0.00  0.00    +0.000 N 
ATOM      7  C   UNL     1      54.095   8.150  13.931  0.00  0.00    +0.000 A 
ATOM      8  N   UNL     1      53.903   8.431  12.684  0.00  0.00    +0.000 NA
ATOM      9  C   UNL     1      52.597   8.535  12.324  0.00  0.00    +0.000 A 
ATOM     10  S   UNL     1      52.156   8.856  10.713  0.00  0.00    +0.000 S 
ATOM     11  C   UNL     1      50.495   8.792  11.095  0.00  0.00    +0.000 A 
ATOM     12  C   UNL     1      50.246   8.565  12.442  0.00  0.00    +0.000 A 
ATOM     13  C   UNL     1      51.497   8.400  13.147  0.00  0.00    +0.000 A 
ATOM     14  C   UNL     1      51.757   8.103  14.546  0.00  0.00    +0.000 A 
ATOM     15  O   UNL     1      50.862   8.015  15.383  0.00  0.00    +0.000 OA
ENDBRANCH   1  12
BRANCH   3  16
ATOM     16  C   UNL     1      47.081   6.982  13.734  0.00  0.00    +0.000 C 
BRANCH  16  17
ATOM     17  C   UNL     1      46.338   6.162  12.714  0.00  0.00    +0.000 A 
ATOM     18  C   UNL     1      45.590   5.051  13.123  0.00  0.00    +0.000 A 
ATOM     19  C   UNL     1      44.901   4.274  12.191  0.00  0.00    +0.000 A 
ATOM     20  C   UNL     1      44.963   4.584  10.827  0.00  0.00    +0.000 A 
ATOM     21  C   UNL     1      45.706   5.698  10.416  0.00  0.00    +0.000 A 
ATOM     22  C   UNL     1      46.398   6.476  11.349  0.00  0.00    +0.000 A 
BRANCH  20  23
ATOM     23  C   UNL     1      44.265   3.712   9.812  0.00  0.00    +0.000 C 
BRANCH  23  24
ATOM     24  O   UNL     1      44.698   4.059   8.497  0.00  0.00    +0.000 OA
BRANCH  24  25
ATOM     25  C   UNL     1      45.612   3.143   8.005  0.00  0.00    +0.000 A 
ATOM     26  C   UNL     1      46.535   3.609   7.082  0.00  0.00    +0.000 A 
ATOM     27  C   UNL     1      47.482   2.714   6.587  0.00  0.00    +0.000 A 
ATOM     28  C   UNL     1      47.473   1.397   7.034  0.00  0.00    +0.000 A 
ATOM     29  C   UNL     1      46.507   1.024   7.952  0.00  0.00    +0.000 A 
ATOM     30  N   UNL     1      45.579   1.867   8.449  0.00  0.00    +0.000 NA
ENDBRANCH  24  25
ENDBRANCH  23  24
ENDBRANCH  20  23
ENDBRANCH  16  17
ENDBRANCH   3  16
TORSDOF 6
ENDMDL
MODEL 9
REMARK VINA RESULT:    -6.642      2.849      3.789
REMARK INTER + INTRA:          -9.954
REMARK INTER:                  -9.002
REMARK INTRA:                  -0.953
REMARK UNBOUND:                -0.983
REMARK  Name = 
REMARK  7 active torsions:
REMARK  status: ('A' for Active; 'I' for Inactive)
REMARK    1  A    between atoms: C_1  and  N_2
REMARK    2  A    between atoms: C_8  and  C_9
REMARK    3  A    between atoms: N_11  and  C_12
REMARK    4  A    between atoms: C_12  and  C_13
REMARK    5  A    between atoms: C_16  and  C_17
REMARK    6  A    between atoms: C_17  and  O_18
REMARK    7  A    between atoms: O_18  and  C_19
REMARK                            x       y       z     vdW  Elec       q    Type
REMARK                         _______ _______ _______ _____ _____    ______ ____
ROOT
ATOM      1  C   UNL     1      47.604   8.162  13.835  0.00  0.00    +0.000 C 
ATOM      2  O   UNL     1      46.940   9.176  14.037  0.00  0.00    +0.000 OA
ATOM      3  N   UNL     1      47.042   6.941  13.581  0.00  0.00    +0.000 N 
ATOM      4  H   UNL     1      47.637   6.167  13.310  0.00  0.00    +0.000 HD
ENDROOT
BRANCH   1  12
ATOM      5  C   UNL     1      50.658   5.450  17.820  0.00  0.00    +0.000 C 
ATOM      6  N   UNL     1      50.851   6.289  16.655  0.00  0.00    +0.000 N 
ATOM      7  C   UNL     1      52.119   6.648  16.245  0.00  0.00    +0.000 A 
ATOM      8  N   UNL     1      52.393   7.396  15.227  0.00  0.00    +0.000 NA
ATOM      9  C   UNL     1      51.307   7.831  14.538  0.00  0.00    +0.000 A 
ATOM     10  S   UNL     1      51.482   8.790  13.143  0.00  0.00    +0.000 S 
ATOM     11  C   UNL     1      49.794   8.854  12.907  0.00  0.00    +0.000 A 
ATOM     12  C   UNL     1      49.072   8.189  13.888  0.00  0.00    +0.000 A 
ATOM     13  C   UNL     1      49.982   7.579  14.832  0.00  0.00    +0.000 A 
ATOM     14  C   UNL     1      49.715   6.750  15.996  0.00  0.00    +0.000 A 
ATOM     15  O   UNL     1      48.577   6.503  16.387  0.00  0.00    +0.000 OA
ENDBRANCH   1  12
BRANCH   3  16
ATOM     16  C   UNL     1      45.627   6.750  13.392  0.00  0.00    +0.000 C 
BRANCH  16  17
ATOM     17  C   UNL     1      45.335   5.679  12.376  0.00  0.00    +0.000 A 
ATOM     18  C   UNL     1      44.854   4.432  12.795  0.00  0.00    +0.000 A 
ATOM     19  C   UNL     1      44.584   3.424  11.869  0.00  0.00    +0.000 A 
ATOM     20  C   UNL     1      44.810   3.638  10.504  0.00  0.00    +0.000 A 
ATOM     21  C   UNL     1      45.286   4.886  10.081  0.00  0.00    +0.000 A 
ATOM     22  C   UNL     1      45.557   5.896  11.009  0.00  0.00    +0.000 A 
BRANCH  20  23
ATOM     23  C   UNL     1      44.574   2.530   9.506  0.00  0.00    +0.000 C 
BRANCH  23  24
ATOM     24  O   UNL     1      44.651   3.050   8.179  0.00  0.00    +0.000 OA
BRANCH  24  25
ATOM     25  C   UNL     1      45.782   2.597   7.521  0.00  0.00    +0.000 A 
ATOM     26  C   UNL     1      46.196   3.318   6.413  0.00  0.00    +0.000 A 
ATOM     27  C   UNL     1      47.345   2.898   5.745  0.00  0.00    +0.000 A 
ATOM     28  C   UNL     1      48.034   1.783   6.210  0.00  0.00    +0.000 A 
ATOM     29  C   UNL     1      47.539   1.125   7.322  0.00  0.00    +0.000 A 
ATOM     30  N   UNL     1      46.430   1.507   7.988  0.00  0.00    +0.000 NA
ENDBRANCH  24  25
ENDBRANCH  23  24
ENDBRANCH  20  23
ENDBRANCH  16  17
ENDBRANCH   3  16
TORSDOF 6
ENDMDL
