MODEL 1
REMARK VINA RESULT:    -8.262      0.000      0.000
REMARK INTER + INTRA:         -13.542
REMARK INTER:                 -12.126
REMARK INTRA:                  -1.417
REMARK UNBOUND:                -1.417
REMARK  Name = 
REMARK  9 active torsions:
REMARK  status: ('A' for Active; 'I' for Inactive)
REMARK    1  A    between atoms: C_1  and  O_2
REMARK    2  A    between atoms: O_2  and  C_3
REMARK    3  A    between atoms: C_10  and  C_11
REMARK    4  A    between atoms: N_13  and  C_14
REMARK    5  A    between atoms: C_14  and  C_15
REMARK    6  A    between atoms: C_18  and  C_19
REMARK    7  A    between atoms: C_19  and  N_20
REMARK    8  A    between atoms: N_20  and  C_21
REMARK    9  A    between atoms: C_21  and  C_22
REMARK                            x       y       z     vdW  Elec       q    Type
REMARK                         _______ _______ _______ _____ _____    ______ ____
ROOT
ATOM      1  C   UNL     1      47.175   7.984  13.416  0.00  0.00    +0.000 C 
ENDROOT
BRANCH   1   2
ATOM      2  C   UNL     1      46.273   7.141  12.548  0.00  0.00    +0.000 A 
ATOM      3  C   UNL     1      46.728   6.628  11.326  0.00  0.00    +0.000 A 
ATOM      4  C   UNL     1      45.896   5.829  10.534  0.00  0.00    +0.000 A 
ATOM      5  C   UNL     1      44.587   5.530  10.939  0.00  0.00    +0.000 A 
ATOM      6  C   UNL     1      44.119   6.080  12.140  0.00  0.00    +0.000 A 
ATOM      7  C   UNL     1      44.951   6.881  12.932  0.00  0.00    +0.000 A 
BRANCH   5   8
ATOM      8  C   UNL     1      43.698   4.643  10.092  0.00  0.00    +0.000 C 
BRANCH   8   9
ATOM      9  N   UNL     1      44.437   3.500   9.561  0.00  0.00    +0.000 NA
ATOM     10  H   UNL     1      43.933   2.644   9.791  0.00  0.00    +0.000 HD
BRANCH   9  11
ATOM     11  C   UNL     1      44.595   3.586   8.110  0.00  0.00    +0.000 C 
BRANCH  11  12
ATOM     12  C   UNL     1      45.803   2.802   7.653  0.00  0.00    +0.000 A 
ATOM     13  C   UNL     1      46.754   3.367   6.798  0.00  0.00    +0.000 A 
ATOM     14  C   UNL     1      47.844   2.600   6.412  0.00  0.00    +0.000 A 
ATOM     15  N   UNL     1      48.051   1.327   6.817  0.00  0.00    +0.000 NA
ATOM     16  C   UNL     1      47.124   0.801   7.642  0.00  0.00    +0.000 A 
ATOM     17  C   UNL     1      46.005   1.487   8.085  0.00  0.00    +0.000 A 
ENDBRANCH  11  12
ENDBRANCH   9  11
ENDBRANCH   8   9
ENDBRANCH   5   8
ENDBRANCH   1   2
BRANCH   1  20
ATOM     18  C   UNL     1      48.861   6.828  14.792  0.00  0.00    +0.000 C 
ATOM     19  O   UNL     1      49.734   7.019  13.951  0.00  0.00    +0.000 OA
ATOM     20  N   UNL     1      47.580   7.266  14.598  0.00  0.00    +0.000 N 
ATOM     21  H   UNL     1      46.865   7.056  15.279  0.00  0.00    +0.000 HD
BRANCH  18  29
ATOM     22  C   UNL     1      47.347   4.202  16.420  0.00  0.00    +0.000 A 
ATOM     23  N   UNL     1      46.961   3.212  17.249  0.00  0.00    +0.000 NA
ATOM     24  C   UNL     1      47.669   3.018  18.366  0.00  0.00    +0.000 A 
ATOM     25  N   UNL     1      48.739   3.701  18.765  0.00  0.00    +0.000 NA
ATOM     26  C   UNL     1      49.094   4.671  17.906  0.00  0.00    +0.000 A 
ATOM     27  S   UNL     1      50.440   5.646  18.253  0.00  0.00    +0.000 S 
ATOM     28  C   UNL     1      50.229   6.535  16.819  0.00  0.00    +0.000 A 
ATOM     29  C   UNL     1      49.148   6.117  16.052  0.00  0.00    +0.000 A 
ATOM     30  C   UNL     1      48.470   4.999  16.706  0.00  0.00    +0.000 A 
BRANCH  22  32
ATOM     31  C   UNL     1      47.148   3.617  14.161  0.00  0.00    +0.000 C 
ATOM     32  O   UNL     1      46.640   4.380  15.252  0.00  0.00    +0.000 OA
ENDBRANCH  22  32
ENDBRANCH  18  29
ENDBRANCH   1  20
TORSDOF 8
ENDMDL
MODEL 2
REMARK VINA RESULT:    -7.845      1.572      1.796
REMARK INTER + INTRA:         -12.931
REMARK INTER:                 -11.580
REMARK INTRA:                  -1.351
REMARK UNBOUND:                -1.417
REMARK  Name = 
REMARK  9 active torsions:
REMARK  status: ('A' for Active; 'I' for Inactive)
REMARK    1  A    between atoms: C_1  and  O_2
REMARK    2  A    between atoms: O_2  and  C_3
REMARK    3  A    between atoms: C_10  and  C_11
REMARK    4  A    between atoms: N_13  and  C_14
REMARK    5  A    between atoms: C_14  and  C_15
REMARK    6  A    between atoms: C_18  and  C_19
REMARK    7  A    between atoms: C_19  and  N_20
REMARK    8  A    between atoms: N_20  and  C_21
REMARK    9  A    between atoms: C_21  and  C_22
REMARK                            x       y       z     vdW  Elec       q    Type
REMARK                         _______ _______ _______ _____ _____    ______ ____
ROOT
ATOM      1  C   UNL     1      48.128   6.632  13.187  0.00  0.00    +0.000 C 
ENDROOT
BRANCH   1   2
ATOM      2  C   UNL     1      46.918   5.926  12.625  0.00  0.00    +0.000 A 
ATOM      3  C   UNL     1      46.331   6.353  11.426  0.00  0.00    +0.000 A 
ATOM      4  C   UNL     1      45.222   5.682  10.898  0.00  0.00    +0.000 A 
ATOM      5  C   UNL     1      44.667   4.577  11.558  0.00  0.00    +0.000 A 
ATOM      6  C   UNL     1      45.228   4.179  12.780  0.00  0.00    +0.000 A 
ATOM      7  C   UNL     1      46.337   4.850  13.310  0.00  0.00    +0.000 A 
BRANCH   5   8
ATOM      8  C   UNL     1      43.483   3.837  10.970  0.00  0.00    +0.000 C 
BRANCH   8   9
ATOM      9  N   UNL     1      43.731   3.455   9.580  0.00  0.00    +0.000 NA
ATOM     10  H   UNL     1      44.236   4.209   9.116  0.00  0.00    +0.000 HD
BRANCH   9  11
ATOM     11  C   UNL     1      44.516   2.226   9.490  0.00  0.00    +0.000 C 
BRANCH  11  12
ATOM     12  C   UNL     1      45.614   2.363   8.462  0.00  0.00    +0.000 A 
ATOM     13  C   UNL     1      45.908   3.597   7.874  0.00  0.00    +0.000 A 
ATOM     14  C   UNL     1      46.929   3.663   6.936  0.00  0.00    +0.000 A 
ATOM     15  N   UNL     1      47.669   2.600   6.551  0.00  0.00    +0.000 NA
ATOM     16  C   UNL     1      47.370   1.420   7.130  0.00  0.00    +0.000 A 
ATOM     17  C   UNL     1      46.374   1.253   8.078  0.00  0.00    +0.000 A 
ENDBRANCH  11  12
ENDBRANCH   9  11
ENDBRANCH   8   9
ENDBRANCH   5   8
ENDBRANCH   1   2
BRANCH   1  20
ATOM     18  C   UNL     1      49.164   6.925  15.403  0.00  0.00    +0.000 C 
ATOM     19  O   UNL     1      50.282   7.031  14.909  0.00  0.00    +0.000 OA
ATOM     20  N   UNL     1      48.059   6.721  14.623  0.00  0.00    +0.000 N 
ATOM     21  H   UNL     1      47.155   6.588  15.051  0.00  0.00    +0.000 HD
BRANCH  18  29
ATOM     22  C   UNL     1      48.818   4.565  17.884  0.00  0.00    +0.000 A 
ATOM     23  N   UNL     1      48.658   3.868  19.025  0.00  0.00    +0.000 NA
ATOM     24  C   UNL     1      48.476   4.552  20.158  0.00  0.00    +0.000 A 
ATOM     25  N   UNL     1      48.436   5.875  20.297  0.00  0.00    +0.000 NA
ATOM     26  C   UNL     1      48.609   6.531  19.137  0.00  0.00    +0.000 A 
ATOM     27  S   UNL     1      48.589   8.229  19.123  0.00  0.00    +0.000 S 
ATOM     28  C   UNL     1      48.846   8.268  17.443  0.00  0.00    +0.000 A 
ATOM     29  C   UNL     1      48.955   7.011  16.861  0.00  0.00    +0.000 A 
ATOM     30  C   UNL     1      48.813   5.972  17.879  0.00  0.00    +0.000 A 
BRANCH  22  32
ATOM     31  C   UNL     1      47.878   3.200  16.230  0.00  0.00    +0.000 C 
ATOM     32  O   UNL     1      49.041   3.861  16.721  0.00  0.00    +0.000 OA
ENDBRANCH  22  32
ENDBRANCH  18  29
ENDBRANCH   1  20
TORSDOF 8
ENDMDL
MODEL 3
REMARK VINA RESULT:    -7.813      2.042      3.273
REMARK INTER + INTRA:         -12.883
REMARK INTER:                 -11.654
REMARK INTRA:                  -1.230
REMARK UNBOUND:                -1.417
REMARK  Name = 
REMARK  9 active torsions:
REMARK  status: ('A' for Active; 'I' for Inactive)
REMARK    1  A    between atoms: C_1  and  O_2
REMARK    2  A    between atoms: O_2  and  C_3
REMARK    3  A    between atoms: C_10  and  C_11
REMARK    4  A    between atoms: N_13  and  C_14
REMARK    5  A    between atoms: C_14  and  C_15
REMARK    6  A    between atoms: C_18  and  C_19
REMARK    7  A    between atoms: C_19  and  N_20
REMARK    8  A    between atoms: N_20  and  C_21
REMARK    9  A    between atoms: C_21  and  C_22
REMARK                            x       y       z     vdW  Elec       q    Type
REMARK                         _______ _______ _______ _____ _____    ______ ____
ROOT
ATOM      1  C   UNL     1      47.394   3.242  14.875  0.00  0.00    +0.000 C 
ENDROOT
BRANCH   1   2
ATOM      2  C   UNL     1      46.726   3.898  13.692  0.00  0.00    +0.000 A 
ATOM      3  C   UNL     1      47.002   5.231  13.359  0.00  0.00    +0.000 A 
ATOM      4  C   UNL     1      46.397   5.828  12.247  0.00  0.00    +0.000 A 
ATOM      5  C   UNL     1      45.495   5.112  11.448  0.00  0.00    +0.000 A 
ATOM      6  C   UNL     1      45.186   3.793  11.808  0.00  0.00    +0.000 A 
ATOM      7  C   UNL     1      45.790   3.195  12.921  0.00  0.00    +0.000 A 
BRANCH   5   8
ATOM      8  C   UNL     1      44.861   5.753  10.230  0.00  0.00    +0.000 C 
BRANCH   8   9
ATOM      9  N   UNL     1      45.490   5.286   8.995  0.00  0.00    +0.000 NA
ATOM     10  H   UNL     1      46.469   5.071   9.183  0.00  0.00    +0.000 HD
BRANCH   9  11
ATOM     11  C   UNL     1      44.830   4.092   8.471  0.00  0.00    +0.000 C 
BRANCH  11  12
ATOM     12  C   UNL     1      45.842   3.111   7.931  0.00  0.00    +0.000 A 
ATOM     13  C   UNL     1      46.813   3.505   7.006  0.00  0.00    +0.000 A 
ATOM     14  C   UNL     1      47.719   2.560   6.544  0.00  0.00    +0.000 A 
ATOM     15  N   UNL     1      47.726   1.267   6.939  0.00  0.00    +0.000 NA
ATOM     16  C   UNL     1      46.783   0.908   7.833  0.00  0.00    +0.000 A 
ATOM     17  C   UNL     1      45.839   1.777   8.353  0.00  0.00    +0.000 A 
ENDBRANCH  11  12
ENDBRANCH   9  11
ENDBRANCH   8   9
ENDBRANCH   5   8
ENDBRANCH   1   2
BRANCH   1  20
ATOM     18  C   UNL     1      47.358   4.134  17.172  0.00  0.00    +0.000 C 
ATOM     19  O   UNL     1      46.635   3.219  17.557  0.00  0.00    +0.000 OA
ATOM     20  N   UNL     1      47.766   4.217  15.869  0.00  0.00    +0.000 N 
ATOM     21  H   UNL     1      48.320   5.002  15.562  0.00  0.00    +0.000 HD
BRANCH  18  29
ATOM     22  C   UNL     1      50.464   5.382  17.968  0.00  0.00    +0.000 A 
ATOM     23  N   UNL     1      51.534   6.041  18.453  0.00  0.00    +0.000 NA
ATOM     24  C   UNL     1      51.323   6.987  19.372  0.00  0.00    +0.000 A 
ATOM     25  N   UNL     1      50.152   7.368  19.877  0.00  0.00    +0.000 NA
ATOM     26  C   UNL     1      49.112   6.691  19.359  0.00  0.00    +0.000 A 
ATOM     27  S   UNL     1      47.537   7.044  19.886  0.00  0.00    +0.000 S 
ATOM     28  C   UNL     1      46.875   5.868  18.853  0.00  0.00    +0.000 A 
ATOM     29  C   UNL     1      47.820   5.189  18.093  0.00  0.00    +0.000 A 
ATOM     30  C   UNL     1      49.160   5.686  18.398  0.00  0.00    +0.000 A 
BRANCH  22  32
ATOM     31  C   UNL     1      50.959   3.137  17.521  0.00  0.00    +0.000 C 
ATOM     32  O   UNL     1      50.677   4.430  16.995  0.00  0.00    +0.000 OA
ENDBRANCH  22  32
ENDBRANCH  18  29
ENDBRANCH   1  20
TORSDOF 8
ENDMDL
MODEL 4
REMARK VINA RESULT:    -7.587      2.476      3.337
REMARK INTER + INTRA:         -12.552
REMARK INTER:                 -11.291
REMARK INTRA:                  -1.261
REMARK UNBOUND:                -1.417
REMARK  Name = 
REMARK  9 active torsions:
REMARK  status: ('A' for Active; 'I' for Inactive)
REMARK    1  A    between atoms: C_1  and  O_2
REMARK    2  A    between atoms: O_2  and  C_3
REMARK    3  A    between atoms: C_10  and  C_11
REMARK    4  A    between atoms: N_13  and  C_14
REMARK    5  A    between atoms: C_14  and  C_15
REMARK    6  A    between atoms: C_18  and  C_19
REMARK    7  A    between atoms: C_19  and  N_20
REMARK    8  A    between atoms: N_20  and  C_21
REMARK    9  A    between atoms: C_21  and  C_22
REMARK                            x       y       z     vdW  Elec       q    Type
REMARK                         _______ _______ _______ _____ _____    ______ ____
ROOT
ATOM      1  C   UNL     1      48.403   6.951  13.876  0.00  0.00    +0.000 C 
ENDROOT
BRANCH   1   2
ATOM      2  C   UNL     1      47.312   6.239  13.114  0.00  0.00    +0.000 A 
ATOM      3  C   UNL     1      46.723   5.074  13.623  0.00  0.00    +0.000 A 
ATOM      4  C   UNL     1      45.697   4.429  12.924  0.00  0.00    +0.000 A 
ATOM      5  C   UNL     1      45.240   4.928  11.695  0.00  0.00    +0.000 A 
ATOM      6  C   UNL     1      45.860   6.068  11.166  0.00  0.00    +0.000 A 
ATOM      7  C   UNL     1      46.888   6.712  11.864  0.00  0.00    +0.000 A 
BRANCH   5   8
ATOM      8  C   UNL     1      44.111   4.243  10.953  0.00  0.00    +0.000 C 
BRANCH   8   9
ATOM      9  N   UNL     1      44.607   3.146  10.123  0.00  0.00    +0.000 NA
ATOM     10  H   UNL     1      43.964   2.358  10.199  0.00  0.00    +0.000 HD
BRANCH   9  11
ATOM     11  C   UNL     1      44.719   3.539   8.720  0.00  0.00    +0.000 C 
BRANCH  11  12
ATOM     12  C   UNL     1      45.836   2.786   8.038  0.00  0.00    +0.000 A 
ATOM     13  C   UNL     1      46.009   1.412   8.231  0.00  0.00    +0.000 A 
ATOM     14  C   UNL     1      47.053   0.772   7.576  0.00  0.00    +0.000 A 
ATOM     15  N   UNL     1      47.922   1.397   6.752  0.00  0.00    +0.000 NA
ATOM     16  C   UNL     1      47.737   2.721   6.578  0.00  0.00    +0.000 A 
ATOM     17  C   UNL     1      46.724   3.447   7.183  0.00  0.00    +0.000 A 
ENDBRANCH  11  12
ENDBRANCH   9  11
ENDBRANCH   8   9
ENDBRANCH   5   8
ENDBRANCH   1   2
BRANCH   1  20
ATOM     18  C   UNL     1      48.993   6.495  16.224  0.00  0.00    +0.000 C 
ATOM     19  O   UNL     1      50.068   6.000  15.898  0.00  0.00    +0.000 OA
ATOM     20  N   UNL     1      48.120   6.977  15.288  0.00  0.00    +0.000 N 
ATOM     21  H   UNL     1      47.220   7.335  15.573  0.00  0.00    +0.000 HD
BRANCH  18  29
ATOM     22  C   UNL     1      47.799   9.072  18.166  0.00  0.00    +0.000 A 
ATOM     23  N   UNL     1      47.327   9.885  19.132  0.00  0.00    +0.000 NA
ATOM     24  C   UNL     1      47.152   9.371  20.353  0.00  0.00    +0.000 A 
ATOM     25  N   UNL     1      47.392   8.120  20.737  0.00  0.00    +0.000 NA
ATOM     26  C   UNL     1      47.852   7.343  19.742  0.00  0.00    +0.000 A 
ATOM     27  S   UNL     1      48.212   5.713  20.051  0.00  0.00    +0.000 S 
ATOM     28  C   UNL     1      48.691   5.462  18.439  0.00  0.00    +0.000 A 
ATOM     29  C   UNL     1      48.589   6.594  17.639  0.00  0.00    +0.000 A 
ATOM     30  C   UNL     1      48.084   7.719  18.424  0.00  0.00    +0.000 A 
BRANCH  22  32
ATOM     31  C   UNL     1      49.192  10.256  16.702  0.00  0.00    +0.000 C 
ATOM     32  O   UNL     1      47.947   9.591  16.899  0.00  0.00    +0.000 OA
ENDBRANCH  22  32
ENDBRANCH  18  29
ENDBRANCH   1  20
TORSDOF 8
ENDMDL
MODEL 5
REMARK VINA RESULT:    -7.544      2.006      3.782
REMARK INTER + INTRA:         -12.489
REMARK INTER:                 -11.092
REMARK INTRA:                  -1.397
REMARK UNBOUND:                -1.417
REMARK  Name = 
REMARK  9 active torsions:
REMARK  status: ('A' for Active; 'I' for Inactive)
REMARK    1  A    between atoms: C_1  and  O_2
REMARK    2  A    between atoms: O_2  and  C_3
REMARK    3  A    between atoms: C_10  and  C_11
REMARK    4  A    between atoms: N_13  and  C_14
REMARK    5  A    between atoms: C_14  and  C_15
REMARK    6  A    between atoms: C_18  and  C_19
REMARK    7  A    between atoms: C_19  and  N_20
REMARK    8  A    between atoms: N_20  and  C_21
REMARK    9  A    between atoms: C_21  and  C_22
REMARK                            x       y       z     vdW  Elec       q    Type
REMARK                         _______ _______ _______ _____ _____    ______ ____
ROOT
ATOM      1  C   UNL     1      47.123   4.397  14.909  0.00  0.00    +0.000 C 
ENDROOT
BRANCH   1   2
ATOM      2  C   UNL     1      46.254   4.429  13.676  0.00  0.00    +0.000 A 
ATOM      3  C   UNL     1      45.999   3.260  12.946  0.00  0.00    +0.000 A 
ATOM      4  C   UNL     1      45.175   3.291  11.816  0.00  0.00    +0.000 A 
ATOM      5  C   UNL     1      44.593   4.491  11.382  0.00  0.00    +0.000 A 
ATOM      6  C   UNL     1      44.884   5.667  12.087  0.00  0.00    +0.000 A 
ATOM      7  C   UNL     1      45.710   5.637  13.217  0.00  0.00    +0.000 A 
BRANCH   5   8
ATOM      8  C   UNL     1      43.680   4.516  10.173  0.00  0.00    +0.000 C 
BRANCH   8   9
ATOM      9  N   UNL     1      44.142   3.593   9.138  0.00  0.00    +0.000 NA
ATOM     10  H   UNL     1      43.356   3.354   8.534  0.00  0.00    +0.000 HD
BRANCH   9  11
ATOM     11  C   UNL     1      45.207   4.180   8.328  0.00  0.00    +0.000 C 
BRANCH  11  12
ATOM     12  C   UNL     1      46.057   3.104   7.695  0.00  0.00    +0.000 A 
ATOM     13  C   UNL     1      46.122   1.817   8.238  0.00  0.00    +0.000 A 
ATOM     14  C   UNL     1      46.920   0.868   7.612  0.00  0.00    +0.000 A 
ATOM     15  N   UNL     1      47.643   1.109   6.497  0.00  0.00    +0.000 NA
ATOM     16  C   UNL     1      47.566   2.355   5.989  0.00  0.00    +0.000 A 
ATOM     17  C   UNL     1      46.798   3.368   6.538  0.00  0.00    +0.000 A 
ENDBRANCH  11  12
ENDBRANCH   9  11
ENDBRANCH   8   9
ENDBRANCH   5   8
ENDBRANCH   1   2
BRANCH   1  20
ATOM     18  C   UNL     1      48.621   5.953  16.094  0.00  0.00    +0.000 C 
ATOM     19  O   UNL     1      49.285   5.028  16.550  0.00  0.00    +0.000 OA
ATOM     20  N   UNL     1      47.541   5.722  15.287  0.00  0.00    +0.000 N 
ATOM     21  H   UNL     1      46.978   6.495  14.962  0.00  0.00    +0.000 HD
BRANCH  18  29
ATOM     22  C   UNL     1      48.817   8.798  14.167  0.00  0.00    +0.000 A 
ATOM     23  N   UNL     1      48.963  10.037  13.659  0.00  0.00    +0.000 NA
ATOM     24  C   UNL     1      49.327  11.017  14.490  0.00  0.00    +0.000 A 
ATOM     25  N   UNL     1      49.565  10.913  15.795  0.00  0.00    +0.000 NA
ATOM     26  C   UNL     1      49.399   9.664  16.262  0.00  0.00    +0.000 A 
ATOM     27  S   UNL     1      49.659   9.343  17.909  0.00  0.00    +0.000 S 
ATOM     28  C   UNL     1      49.282   7.699  17.700  0.00  0.00    +0.000 A 
ATOM     29  C   UNL     1      48.952   7.359  16.394  0.00  0.00    +0.000 A 
ATOM     30  C   UNL     1      49.022   8.540  15.535  0.00  0.00    +0.000 A 
BRANCH  22  32
ATOM     31  C   UNL     1      49.347   7.509  12.285  0.00  0.00    +0.000 C 
ATOM     32  O   UNL     1      48.408   7.793  13.318  0.00  0.00    +0.000 OA
ENDBRANCH  22  32
ENDBRANCH  18  29
ENDBRANCH   1  20
TORSDOF 8
ENDMDL
MODEL 6
REMARK VINA RESULT:    -7.248      2.539      3.406
REMARK INTER + INTRA:         -12.054
REMARK INTER:                 -11.024
REMARK INTRA:                  -1.030
REMARK UNBOUND:                -1.417
REMARK  Name = 
REMARK  9 active torsions:
REMARK  status: ('A' for Active; 'I' for Inactive)
REMARK    1  A    between atoms: C_1  and  O_2
REMARK    2  A    between atoms: O_2  and  C_3
REMARK    3  A    between atoms: C_10  and  C_11
REMARK    4  A    between atoms: N_13  and  C_14
REMARK    5  A    between atoms: C_14  and  C_15
REMARK    6  A    between atoms: C_18  and  C_19
REMARK    7  A    between atoms: C_19  and  N_20
REMARK    8  A    between atoms: N_20  and  C_21
REMARK    9  A    between atoms: C_21  and  C_22
REMARK                            x       y       z     vdW  Elec       q    Type
REMARK                         _______ _______ _______ _____ _____    ______ ____
ROOT
ATOM      1  C   UNL     1      47.216   4.276  14.862  0.00  0.00    +0.000 C 
ENDROOT
BRANCH   1   2
ATOM      2  C   UNL     1      46.335   4.351  13.639  0.00  0.00    +0.000 A 
ATOM      3  C   UNL     1      46.004   3.195  12.921  0.00  0.00    +0.000 A 
ATOM      4  C   UNL     1      45.169   3.266  11.801  0.00  0.00    +0.000 A 
ATOM      5  C   UNL     1      44.652   4.495  11.365  0.00  0.00    +0.000 A 
ATOM      6  C   UNL     1      45.019   5.656  12.059  0.00  0.00    +0.000 A 
ATOM      7  C   UNL     1      45.856   5.585  13.179  0.00  0.00    +0.000 A 
BRANCH   5   8
ATOM      8  C   UNL     1      43.727   4.565  10.168  0.00  0.00    +0.000 C 
BRANCH   8   9
ATOM      9  N   UNL     1      44.163   3.661   9.104  0.00  0.00    +0.000 NA
ATOM     10  H   UNL     1      43.372   3.467   8.491  0.00  0.00    +0.000 HD
BRANCH   9  11
ATOM     11  C   UNL     1      45.249   4.241   8.316  0.00  0.00    +0.000 C 
BRANCH  11  12
ATOM     12  C   UNL     1      46.084   3.159   7.673  0.00  0.00    +0.000 A 
ATOM     13  C   UNL     1      46.824   3.405   6.513  0.00  0.00    +0.000 A 
ATOM     14  C   UNL     1      47.574   2.372   5.968  0.00  0.00    +0.000 A 
ATOM     15  N   UNL     1      47.639   1.129   6.493  0.00  0.00    +0.000 NA
ATOM     16  C   UNL     1      46.920   0.912   7.612  0.00  0.00    +0.000 A 
ATOM     17  C   UNL     1      46.144   1.878   8.232  0.00  0.00    +0.000 A 
ENDBRANCH  11  12
ENDBRANCH   9  11
ENDBRANCH   8   9
ENDBRANCH   5   8
ENDBRANCH   1   2
BRANCH   1  20
ATOM     18  C   UNL     1      48.547   5.844  16.219  0.00  0.00    +0.000 C 
ATOM     19  O   UNL     1      49.310   4.950  16.573  0.00  0.00    +0.000 OA
ATOM     20  N   UNL     1      47.493   5.589  15.386  0.00  0.00    +0.000 N 
ATOM     21  H   UNL     1      46.848   6.328  15.146  0.00  0.00    +0.000 HD
BRANCH  18  29
ATOM     22  C   UNL     1      48.250   7.386  19.282  0.00  0.00    +0.000 A 
ATOM     23  N   UNL     1      48.208   8.223  20.336  0.00  0.00    +0.000 NA
ATOM     24  C   UNL     1      48.480   9.513  20.124  0.00  0.00    +0.000 A 
ATOM     25  N   UNL     1      48.800  10.084  18.965  0.00  0.00    +0.000 NA
ATOM     26  C   UNL     1      48.840   9.213  17.943  0.00  0.00    +0.000 A 
ATOM     27  S   UNL     1      49.233   9.764  16.386  0.00  0.00    +0.000 S 
ATOM     28  C   UNL     1      49.075   8.201  15.738  0.00  0.00    +0.000 A 
ATOM     29  C   UNL     1      48.727   7.236  16.675  0.00  0.00    +0.000 A 
ATOM     30  C   UNL     1      48.588   7.846  17.996  0.00  0.00    +0.000 A 
BRANCH  22  32
ATOM     31  C   UNL     1      47.889   5.719  20.887  0.00  0.00    +0.000 C 
ATOM     32  O   UNL     1      48.003   6.049  19.506  0.00  0.00    +0.000 OA
ENDBRANCH  22  32
ENDBRANCH  18  29
ENDBRANCH   1  20
TORSDOF 8
ENDMDL
MODEL 7
REMARK VINA RESULT:    -7.176      1.853      2.519
REMARK INTER + INTRA:         -11.948
REMARK INTER:                 -10.966
REMARK INTRA:                  -0.982
REMARK UNBOUND:                -1.417
REMARK  Name = 
REMARK  9 active torsions:
REMARK  status: ('A' for Active; 'I' for Inactive)
REMARK    1  A    between atoms: C_1  and  O_2
REMARK    2  A    between atoms: O_2  and  C_3
REMARK    3  A    between atoms: C_10  and  C_11
REMARK    4  A    between atoms: N_13  and  C_14
REMARK    5  A    between atoms: C_14  and  C_15
REMARK    6  A    between atoms: C_18  and  C_19
REMARK    7  A    between atoms: C_19  and  N_20
REMARK    8  A    between atoms: N_20  and  C_21
REMARK    9  A    between atoms: C_21  and  C_22
REMARK                            x       y       z     vdW  Elec       q    Type
REMARK                         _______ _______ _______ _____ _____    ______ ____
ROOT
ATOM      1  C   UNL     1      45.781   8.152  13.134  0.00  0.00    +0.000 C 
ENDROOT
BRANCH   1   2
ATOM      2  C   UNL     1      45.313   6.825  12.588  0.00  0.00    +0.000 A 
ATOM      3  C   UNL     1      45.510   5.641  13.311  0.00  0.00    +0.000 A 
ATOM      4  C   UNL     1      45.055   4.416  12.811  0.00  0.00    +0.000 A 
ATOM      5  C   UNL     1      44.400   4.342  11.574  0.00  0.00    +0.000 A 
ATOM      6  C   UNL     1      44.242   5.521  10.831  0.00  0.00    +0.000 A 
ATOM      7  C   UNL     1      44.699   6.747  11.330  0.00  0.00    +0.000 A 
BRANCH   5   8
ATOM      8  C   UNL     1      43.885   3.018  11.047  0.00  0.00    +0.000 C 
BRANCH   8   9
ATOM      9  N   UNL     1      44.833   2.411  10.115  0.00  0.00    +0.000 NA
ATOM     10  H   UNL     1      44.754   1.396  10.178  0.00  0.00    +0.000 HD
BRANCH   9  11
ATOM     11  C   UNL     1      44.575   2.826   8.737  0.00  0.00    +0.000 C 
BRANCH  11  12
ATOM     12  C   UNL     1      45.730   2.452   7.838  0.00  0.00    +0.000 A 
ATOM     13  C   UNL     1      46.149   3.296   6.805  0.00  0.00    +0.000 A 
ATOM     14  C   UNL     1      47.217   2.900   6.011  0.00  0.00    +0.000 A 
ATOM     15  N   UNL     1      47.889   1.739   6.176  0.00  0.00    +0.000 NA
ATOM     16  C   UNL     1      47.470   0.940   7.178  0.00  0.00    +0.000 A 
ATOM     17  C   UNL     1      46.418   1.248   8.024  0.00  0.00    +0.000 A 
ENDBRANCH  11  12
ENDBRANCH   9  11
ENDBRANCH   8   9
ENDBRANCH   5   8
ENDBRANCH   1   2
BRANCH   1  20
ATOM     18  C   UNL     1      48.244   8.088  13.124  0.00  0.00    +0.000 C 
ATOM     19  O   UNL     1      48.282   8.250  11.908  0.00  0.00    +0.000 OA
ATOM     20  N   UNL     1      47.054   8.022  13.795  0.00  0.00    +0.000 N 
ATOM     21  H   UNL     1      47.043   7.840  14.788  0.00  0.00    +0.000 HD
BRANCH  18  29
ATOM     22  C   UNL     1      49.190   5.985  15.678  0.00  0.00    +0.000 A 
ATOM     23  N   UNL     1      49.805   5.307  16.667  0.00  0.00    +0.000 NA
ATOM     24  C   UNL     1      51.043   5.676  17.005  0.00  0.00    +0.000 A 
ATOM     25  N   UNL     1      51.762   6.657  16.464  0.00  0.00    +0.000 NA
ATOM     26  C   UNL     1      51.116   7.300  15.477  0.00  0.00    +0.000 A 
ATOM     27  S   UNL     1      51.882   8.582  14.670  0.00  0.00    +0.000 S 
ATOM     28  C   UNL     1      50.528   8.829  13.672  0.00  0.00    +0.000 A 
ATOM     29  C   UNL     1      49.478   7.954  13.922  0.00  0.00    +0.000 A 
ATOM     30  C   UNL     1      49.834   7.039  15.004  0.00  0.00    +0.000 A 
BRANCH  22  32
ATOM     31  C   UNL     1      47.402   4.539  16.122  0.00  0.00    +0.000 C 
ATOM     32  O   UNL     1      47.926   5.582  15.306  0.00  0.00    +0.000 OA
ENDBRANCH  22  32
ENDBRANCH  18  29
ENDBRANCH   1  20
TORSDOF 8
ENDMDL
MODEL 8
REMARK VINA RESULT:    -6.720      4.576      9.142
REMARK INTER + INTRA:         -11.279
REMARK INTER:                 -10.263
REMARK INTRA:                  -1.016
REMARK UNBOUND:                -1.417
REMARK  Name = 
REMARK  9 active torsions:
REMARK  status: ('A' for Active; 'I' for Inactive)
REMARK    1  A    between atoms: C_1  and  O_2
REMARK    2  A    between atoms: O_2  and  C_3
REMARK    3  A    between atoms: C_10  and  C_11
REMARK    4  A    between atoms: N_13  and  C_14
REMARK    5  A    between atoms: C_14  and  C_15
REMARK    6  A    between atoms: C_18  and  C_19
REMARK    7  A    between atoms: C_19  and  N_20
REMARK    8  A    between atoms: N_20  and  C_21
REMARK    9  A    between atoms: C_21  and  C_22
REMARK                            x       y       z     vdW  Elec       q    Type
REMARK                         _______ _______ _______ _____ _____    ______ ____
ROOT
ATOM      1  C   UNL     1      47.164   3.372  16.810  0.00  0.00    +0.000 C 
ENDROOT
BRANCH   1   2
ATOM      2  C   UNL     1      48.636   3.287  17.135  0.00  0.00    +0.000 A 
ATOM      3  C   UNL     1      49.359   2.113  16.884  0.00  0.00    +0.000 A 
ATOM      4  C   UNL     1      50.728   2.045  17.166  0.00  0.00    +0.000 A 
ATOM      5  C   UNL     1      51.405   3.144  17.715  0.00  0.00    +0.000 A 
ATOM      6  C   UNL     1      50.671   4.302  18.007  0.00  0.00    +0.000 A 
ATOM      7  C   UNL     1      49.301   4.370  17.726  0.00  0.00    +0.000 A 
BRANCH   5   8
ATOM      8  C   UNL     1      52.892   3.077  17.995  0.00  0.00    +0.000 C 
BRANCH   8   9
ATOM      9  N   UNL     1      53.214   1.971  18.896  0.00  0.00    +0.000 NA
ATOM     10  H   UNL     1      52.616   1.176  18.671  0.00  0.00    +0.000 HD
BRANCH   9  11
ATOM     11  C   UNL     1      54.613   1.566  18.775  0.00  0.00    +0.000 C 
BRANCH  11  12
ATOM     12  C   UNL     1      54.728   0.221  18.100  0.00  0.00    +0.000 A 
ATOM     13  C   UNL     1      54.958   0.115  16.725  0.00  0.00    +0.000 A 
ATOM     14  C   UNL     1      55.055  -1.149  16.160  0.00  0.00    +0.000 A 
ATOM     15  N   UNL     1      54.944  -2.299  16.860  0.00  0.00    +0.000 NA
ATOM     16  C   UNL     1      54.723  -2.176  18.184  0.00  0.00    +0.000 A 
ATOM     17  C   UNL     1      54.614  -0.961  18.841  0.00  0.00    +0.000 A 
ENDBRANCH  11  12
ENDBRANCH   9  11
ENDBRANCH   8   9
ENDBRANCH   5   8
ENDBRANCH   1   2
BRANCH   1  20
ATOM     18  C   UNL     1      46.932   4.212  14.506  0.00  0.00    +0.000 C 
ATOM     19  O   UNL     1      47.200   3.110  14.036  0.00  0.00    +0.000 OA
ATOM     20  N   UNL     1      46.902   4.420  15.857  0.00  0.00    +0.000 N 
ATOM     21  H   UNL     1      46.727   5.345  16.223  0.00  0.00    +0.000 HD
BRANCH  18  29
ATOM     22  C   UNL     1      44.161   5.145  12.690  0.00  0.00    +0.000 A 
ATOM     23  N   UNL     1      43.236   5.734  11.907  0.00  0.00    +0.000 NA
ATOM     24  C   UNL     1      43.564   6.879  11.303  0.00  0.00    +0.000 A 
ATOM     25  N   UNL     1      44.725   7.525  11.385  0.00  0.00    +0.000 NA
ATOM     26  C   UNL     1      45.614   6.908  12.182  0.00  0.00    +0.000 A 
ATOM     27  S   UNL     1      47.152   7.591  12.407  0.00  0.00    +0.000 S 
ATOM     28  C   UNL     1      47.619   6.324  13.440  0.00  0.00    +0.000 A 
ATOM     29  C   UNL     1      46.630   5.367  13.638  0.00  0.00    +0.000 A 
ATOM     30  C   UNL     1      45.430   5.721  12.883  0.00  0.00    +0.000 A 
BRANCH  22  32
ATOM     31  C   UNL     1      43.720   2.855  12.476  0.00  0.00    +0.000 C 
ATOM     32  O   UNL     1      43.812   3.982  13.342  0.00  0.00    +0.000 OA
ENDBRANCH  22  32
ENDBRANCH  18  29
ENDBRANCH   1  20
TORSDOF 8
ENDMDL
MODEL 9
REMARK VINA RESULT:    -6.654      3.410      5.046
REMARK INTER + INTRA:         -11.182
REMARK INTER:                 -10.312
REMARK INTRA:                  -0.870
REMARK UNBOUND:                -1.417
REMARK  Name = 
REMARK  9 active torsions:
REMARK  status: ('A' for Active; 'I' for Inactive)
REMARK    1  A    between atoms: C_1  and  O_2
REMARK    2  A    between atoms: O_2  and  C_3
REMARK    3  A    between atoms: C_10  and  C_11
REMARK    4  A    between atoms: N_13  and  C_14
REMARK    5  A    between atoms: C_14  and  C_15
REMARK    6  A    between atoms: C_18  and  C_19
REMARK    7  A    between atoms: C_19  and  N_20
REMARK    8  A    between atoms: N_20  and  C_21
REMARK    9  A    between atoms: C_21  and  C_22
REMARK                            x       y       z     vdW  Elec       q    Type
REMARK                         _______ _______ _______ _____ _____    ______ ____
ROOT
ATOM      1  C   UNL     1      47.933   6.370  14.070  0.00  0.00    +0.000 C 
ENDROOT
BRANCH   1   2
ATOM      2  C   UNL     1      46.880   5.846  13.124  0.00  0.00    +0.000 A 
ATOM      3  C   UNL     1      46.139   4.699  13.438  0.00  0.00    +0.000 A 
ATOM      4  C   UNL     1      45.149   4.229  12.568  0.00  0.00    +0.000 A 
ATOM      5  C   UNL     1      44.882   4.888  11.360  0.00  0.00    +0.000 A 
ATOM      6  C   UNL     1      45.654   6.009  11.026  0.00  0.00    +0.000 A 
ATOM      7  C   UNL     1      46.646   6.478  11.896  0.00  0.00    +0.000 A 
BRANCH   5   8
ATOM      8  C   UNL     1      43.792   4.392  10.432  0.00  0.00    +0.000 C 
BRANCH   8   9
ATOM      9  N   UNL     1      44.297   3.372   9.514  0.00  0.00    +0.000 NA
ATOM     10  H   UNL     1      43.516   2.798   9.196  0.00  0.00    +0.000 HD
BRANCH   9  11
ATOM     11  C   UNL     1      44.956   3.968   8.355  0.00  0.00    +0.000 C 
BRANCH  11  12
ATOM     12  C   UNL     1      45.931   2.997   7.731  0.00  0.00    +0.000 A 
ATOM     13  C   UNL     1      46.079   1.698   8.227  0.00  0.00    +0.000 A 
ATOM     14  C   UNL     1      46.989   0.849   7.613  0.00  0.00    +0.000 A 
ATOM     15  N   UNL     1      47.748   1.199   6.551  0.00  0.00    +0.000 NA
ATOM     16  C   UNL     1      47.589   2.454   6.087  0.00  0.00    +0.000 A 
ATOM     17  C   UNL     1      46.706   3.373   6.629  0.00  0.00    +0.000 A 
ENDBRANCH  11  12
ENDBRANCH   9  11
ENDBRANCH   8   9
ENDBRANCH   5   8
ENDBRANCH   1   2
BRANCH   1  20
ATOM     18  C   UNL     1      49.376   8.267  13.448  0.00  0.00    +0.000 C 
ATOM     19  O   UNL     1      48.733   9.038  14.154  0.00  0.00    +0.000 OA
ATOM     20  N   UNL     1      49.040   6.945  13.351  0.00  0.00    +0.000 N 
ATOM     21  H   UNL     1      49.552   6.338  12.727  0.00  0.00    +0.000 HD
BRANCH  18  29
ATOM     22  C   UNL     1      52.759   8.336  14.074  0.00  0.00    +0.000 A 
ATOM     23  N   UNL     1      54.099   8.477  14.059  0.00  0.00    +0.000 NA
ATOM     24  C   UNL     1      54.660   9.026  12.979  0.00  0.00    +0.000 A 
ATOM     25  N   UNL     1      54.036   9.459  11.885  0.00  0.00    +0.000 NA
ATOM     26  C   UNL     1      52.704   9.290  11.938  0.00  0.00    +0.000 A 
ATOM     27  S   UNL     1      51.744   9.784  10.628  0.00  0.00    +0.000 S 
ATOM     28  C   UNL     1      50.324   9.278  11.412  0.00  0.00    +0.000 A 
ATOM     29  C   UNL     1      50.541   8.727  12.669  0.00  0.00    +0.000 A 
ATOM     30  C   UNL     1      51.970   8.735  12.981  0.00  0.00    +0.000 A 
BRANCH  22  32
ATOM     31  C   UNL     1      53.068   6.866  15.871  0.00  0.00    +0.000 C 
ATOM     32  O   UNL     1      52.183   7.738  15.174  0.00  0.00    +0.000 OA
ENDBRANCH  22  32
ENDBRANCH  18  29
ENDBRANCH   1  20
TORSDOF 8
ENDMDL
