MODEL 1
REMARK VINA RESULT:    -8.165      0.000      0.000
REMARK INTER + INTRA:         -11.896
REMARK INTER:                 -11.029
REMARK INTRA:                  -0.867
REMARK UNBOUND:                -0.867
REMARK  Name = 
REMARK  7 active torsions:
REMARK  status: ('A' for Active; 'I' for Inactive)
REMARK    1  A    between atoms: C_1  and  C_2
REMARK    2  A    between atoms: C_2  and  C_3
REMARK    3  A    between atoms: C_2  and  C_14
REMARK    4  A    between atoms: C_3  and  N_4
REMARK    5  A    between atoms: N_4  and  C_5
REMARK    6  A    between atoms: C_8  and  C_9
REMARK    7  A    between atoms: C_18  and  C_19
REMARK                            x       y       z     vdW  Elec       q    Type
REMARK                         _______ _______ _______ _____ _____    ______ ____
ROOT
ATOM      1  C   UNL     1      44.350   5.745  10.869  0.00  0.00    +0.000 C 
ENDROOT
BRANCH   1   3
ATOM      2  C   UNL     1      43.530   4.323  12.850  0.00  0.00    +0.000 C 
ATOM      3  C   UNL     1      44.670   4.940  12.099  0.00  0.00    +0.000 C 
BRANCH   3   4
ATOM      4  C   UNL     1      45.905   5.295  12.810  0.00  0.00    +0.000 A 
ATOM      5  C   UNL     1      46.603   6.465  12.498  0.00  0.00    +0.000 A 
ATOM      6  C   UNL     1      47.676   6.877  13.290  0.00  0.00    +0.000 A 
ATOM      7  C   UNL     1      48.037   6.141  14.419  0.00  0.00    +0.000 A 
ATOM      8  C   UNL     1      47.343   4.969  14.748  0.00  0.00    +0.000 A 
ATOM      9  C   UNL     1      46.311   4.530  13.909  0.00  0.00    +0.000 A 
BRANCH   8  10
ATOM     10  C   UNL     1      47.619   4.209  16.021  0.00  0.00    +0.000 C 
ATOM     11  F   UNL     1      47.891   2.891  15.823  0.00  0.00    +0.000 F 
ATOM     12  F   UNL     1      48.696   4.715  16.685  0.00  0.00    +0.000 F 
ATOM     13  F   UNL     1      46.582   4.258  16.901  0.00  0.00    +0.000 F 
ENDBRANCH   8  10
ENDBRANCH   3   4
ENDBRANCH   1   3
BRANCH   1  14
ATOM     14  N   UNL     1      43.749   4.835   9.897  0.00  0.00    +0.000 N 
ATOM     15  H   UNL     1      43.223   5.349   9.190  0.00  0.00    +0.000 HD
BRANCH  14  16
ATOM     16  C   UNL     1      44.593   3.891   9.293  0.00  0.00    +0.000 A 
ATOM     17  C   UNL     1      45.529   4.318   8.344  0.00  0.00    +0.000 A 
ATOM     18  C   UNL     1      46.354   3.396   7.698  0.00  0.00    +0.000 A 
ATOM     19  C   UNL     1      46.196   2.052   8.000  0.00  0.00    +0.000 A 
ATOM     20  N   UNL     1      45.265   1.577   8.873  0.00  0.00    +0.000 NA
ATOM     21  C   UNL     1      44.487   2.510   9.474  0.00  0.00    +0.000 A 
BRANCH  19  22
ATOM     22  C   UNL     1      47.082   1.036   7.348  0.00  0.00    +0.000 C 
ATOM     23  N   UNL     1      46.808  -0.269   7.655  0.00  0.00    +0.000 N 
ATOM     24  O   UNL     1      47.998   1.344   6.591  0.00  0.00    +0.000 OA
ATOM     25  H   UNL     1      46.046  -0.485   8.287  0.00  0.00    +0.000 HD
ATOM     26  H   UNL     1      47.373  -1.004   7.257  0.00  0.00    +0.000 HD
ENDBRANCH  19  22
ENDBRANCH  14  16
ENDBRANCH   1  14
TORSDOF 6
ENDMDL
MODEL 2
REMARK VINA RESULT:    -8.059      2.382      3.070
REMARK INTER + INTRA:         -11.753
REMARK INTER:                 -10.798
REMARK INTRA:                  -0.955
REMARK UNBOUND:                -0.867
REMARK  Name = 
REMARK  7 active torsions:
REMARK  status: ('A' for Active; 'I' for Inactive)
REMARK    1  A    between atoms: C_1  and  C_2
REMARK    2  A    between atoms: C_2  and  C_3
REMARK    3  A    between atoms: C_2  and  C_14
REMARK    4  A    between atoms: C_3  and  N_4
REMARK    5  A    between atoms: N_4  and  C_5
REMARK    6  A    between atoms: C_8  and  C_9
REMARK    7  A    between atoms: C_18  and  C_19
REMARK                            x       y       z     vdW  Elec       q    Type
REMARK                         _______ _______ _______ _____ _____    ______ ____
ROOT
ATOM      1  C   UNL     1      43.731   4.906  11.297  0.00  0.00    +0.000 C 
ENDROOT
BRANCH   1   3
ATOM      2  C   UNL     1      45.608   4.030  12.823  0.00  0.00    +0.000 C 
ATOM      3  C   UNL     1      45.132   5.044  11.828  0.00  0.00    +0.000 C 
BRANCH   3   4
ATOM      4  C   UNL     1      45.697   6.400  11.841  0.00  0.00    +0.000 A 
ATOM      5  C   UNL     1      44.883   7.514  12.065  0.00  0.00    +0.000 A 
ATOM      6  C   UNL     1      45.453   8.777  12.243  0.00  0.00    +0.000 A 
ATOM      7  C   UNL     1      46.840   8.927  12.235  0.00  0.00    +0.000 A 
ATOM      8  C   UNL     1      47.668   7.818  12.018  0.00  0.00    +0.000 A 
ATOM      9  C   UNL     1      47.084   6.569  11.773  0.00  0.00    +0.000 A 
BRANCH   8  10
ATOM     10  C   UNL     1      49.169   7.912  12.119  0.00  0.00    +0.000 C 
ATOM     11  F   UNL     1      49.704   7.120  13.088  0.00  0.00    +0.000 F 
ATOM     12  F   UNL     1      49.776   7.538  10.957  0.00  0.00    +0.000 F 
ATOM     13  F   UNL     1      49.604   9.175  12.376  0.00  0.00    +0.000 F 
ENDBRANCH   8  10
ENDBRANCH   3   4
ENDBRANCH   1   3
BRANCH   1  14
ATOM     14  N   UNL     1      43.817   4.901   9.838  0.00  0.00    +0.000 N 
ATOM     15  H   UNL     1      44.035   5.831   9.480  0.00  0.00    +0.000 HD
BRANCH  14  16
ATOM     16  C   UNL     1      44.647   3.938   9.246  0.00  0.00    +0.000 A 
ATOM     17  C   UNL     1      45.592   4.340   8.295  0.00  0.00    +0.000 A 
ATOM     18  C   UNL     1      46.404   3.398   7.660  0.00  0.00    +0.000 A 
ATOM     19  C   UNL     1      46.223   2.060   7.975  0.00  0.00    +0.000 A 
ATOM     20  N   UNL     1      45.282   1.609   8.850  0.00  0.00    +0.000 NA
ATOM     21  C   UNL     1      44.517   2.560   9.439  0.00  0.00    +0.000 A 
BRANCH  19  22
ATOM     22  C   UNL     1      47.093   1.024   7.334  0.00  0.00    +0.000 C 
ATOM     23  N   UNL     1      46.799  -0.273   7.655  0.00  0.00    +0.000 N 
ATOM     24  O   UNL     1      48.015   1.309   6.576  0.00  0.00    +0.000 OA
ATOM     25  H   UNL     1      46.032  -0.471   8.289  0.00  0.00    +0.000 HD
ATOM     26  H   UNL     1      47.352  -1.021   7.266  0.00  0.00    +0.000 HD
ENDBRANCH  19  22
ENDBRANCH  14  16
ENDBRANCH   1  14
TORSDOF 6
ENDMDL
MODEL 3
REMARK VINA RESULT:    -7.788      2.260      2.844
REMARK INTER + INTRA:         -11.387
REMARK INTER:                 -10.472
REMARK INTRA:                  -0.915
REMARK UNBOUND:                -0.867
REMARK  Name = 
REMARK  7 active torsions:
REMARK  status: ('A' for Active; 'I' for Inactive)
REMARK    1  A    between atoms: C_1  and  C_2
REMARK    2  A    between atoms: C_2  and  C_3
REMARK    3  A    between atoms: C_2  and  C_14
REMARK    4  A    between atoms: C_3  and  N_4
REMARK    5  A    between atoms: N_4  and  C_5
REMARK    6  A    between atoms: C_8  and  C_9
REMARK    7  A    between atoms: C_18  and  C_19
REMARK                            x       y       z     vdW  Elec       q    Type
REMARK                         _______ _______ _______ _____ _____    ______ ____
ROOT
ATOM      1  C   UNL     1      44.346   5.777  10.796  0.00  0.00    +0.000 C 
ENDROOT
BRANCH   1   3
ATOM      2  C   UNL     1      43.557   4.355  12.789  0.00  0.00    +0.000 C 
ATOM      3  C   UNL     1      44.672   5.055  12.075  0.00  0.00    +0.000 C 
BRANCH   3   4
ATOM      4  C   UNL     1      45.823   5.558  12.836  0.00  0.00    +0.000 A 
ATOM      5  C   UNL     1      46.268   4.899  13.986  0.00  0.00    +0.000 A 
ATOM      6  C   UNL     1      47.460   5.285  14.602  0.00  0.00    +0.000 A 
ATOM      7  C   UNL     1      48.233   6.308  14.051  0.00  0.00    +0.000 A 
ATOM      8  C   UNL     1      47.804   6.973  12.895  0.00  0.00    +0.000 A 
ATOM      9  C   UNL     1      46.574   6.622  12.325  0.00  0.00    +0.000 A 
BRANCH   8  10
ATOM     10  C   UNL     1      48.662   7.999  12.201  0.00  0.00    +0.000 C 
ATOM     11  F   UNL     1      49.231   7.549  11.049  0.00  0.00    +0.000 F 
ATOM     12  F   UNL     1      47.943   9.103  11.852  0.00  0.00    +0.000 F 
ATOM     13  F   UNL     1      49.682   8.450  12.980  0.00  0.00    +0.000 F 
ENDBRANCH   8  10
ENDBRANCH   3   4
ENDBRANCH   1   3
BRANCH   1  14
ATOM     14  N   UNL     1      43.738   4.806   9.889  0.00  0.00    +0.000 N 
ATOM     15  H   UNL     1      43.160   5.270   9.189  0.00  0.00    +0.000 HD
BRANCH  14  16
ATOM     16  C   UNL     1      44.591   3.871   9.284  0.00  0.00    +0.000 A 
ATOM     17  C   UNL     1      45.507   4.304   8.319  0.00  0.00    +0.000 A 
ATOM     18  C   UNL     1      46.340   3.391   7.671  0.00  0.00    +0.000 A 
ATOM     19  C   UNL     1      46.209   2.047   7.988  0.00  0.00    +0.000 A 
ATOM     20  N   UNL     1      45.297   1.565   8.877  0.00  0.00    +0.000 NA
ATOM     21  C   UNL     1      44.511   2.489   9.479  0.00  0.00    +0.000 A 
BRANCH  19  22
ATOM     22  C   UNL     1      47.103   1.040   7.333  0.00  0.00    +0.000 C 
ATOM     23  N   UNL     1      46.851  -0.267   7.650  0.00  0.00    +0.000 N 
ATOM     24  O   UNL     1      48.009   1.357   6.567  0.00  0.00    +0.000 OA
ATOM     25  H   UNL     1      46.097  -0.490   8.290  0.00  0.00    +0.000 HD
ATOM     26  H   UNL     1      47.423  -0.996   7.251  0.00  0.00    +0.000 HD
ENDBRANCH  19  22
ENDBRANCH  14  16
ENDBRANCH   1  14
TORSDOF 6
ENDMDL
MODEL 4
REMARK VINA RESULT:    -7.432      4.624      7.051
REMARK INTER + INTRA:         -10.907
REMARK INTER:                  -9.986
REMARK INTRA:                  -0.920
REMARK UNBOUND:                -0.867
REMARK  Name = 
REMARK  7 active torsions:
REMARK  status: ('A' for Active; 'I' for Inactive)
REMARK    1  A    between atoms: C_1  and  C_2
REMARK    2  A    between atoms: C_2  and  C_3
REMARK    3  A    between atoms: C_2  and  C_14
REMARK    4  A    between atoms: C_3  and  N_4
REMARK    5  A    between atoms: N_4  and  C_5
REMARK    6  A    between atoms: C_8  and  C_9
REMARK    7  A    between atoms: C_18  and  C_19
REMARK                            x       y       z     vdW  Elec       q    Type
REMARK                         _______ _______ _______ _____ _____    ______ ____
ROOT
ATOM      1  C   UNL     1      45.530   3.317  12.339  0.00  0.00    +0.000 C 
ENDROOT
BRANCH   1   3
ATOM      2  C   UNL     1      43.239   2.524  11.480  0.00  0.00    +0.000 C 
ATOM      3  C   UNL     1      44.518   3.259  11.227  0.00  0.00    +0.000 C 
BRANCH   3   4
ATOM      4  C   UNL     1      45.044   3.360   9.859  0.00  0.00    +0.000 A 
ATOM      5  C   UNL     1      45.243   4.606   9.256  0.00  0.00    +0.000 A 
ATOM      6  C   UNL     1      45.899   4.696   8.027  0.00  0.00    +0.000 A 
ATOM      7  C   UNL     1      46.390   3.545   7.409  0.00  0.00    +0.000 A 
ATOM      8  C   UNL     1      46.204   2.291   8.004  0.00  0.00    +0.000 A 
ATOM      9  C   UNL     1      45.486   2.206   9.204  0.00  0.00    +0.000 A 
BRANCH   8  10
ATOM     10  C   UNL     1      46.819   1.038   7.435  0.00  0.00    +0.000 C 
ATOM     11  F   UNL     1      46.341  -0.109   7.989  0.00  0.00    +0.000 F 
ATOM     12  F   UNL     1      46.588   0.928   6.096  0.00  0.00    +0.000 F 
ATOM     13  F   UNL     1      48.171   0.999   7.583  0.00  0.00    +0.000 F 
ENDBRANCH   8  10
ENDBRANCH   3   4
ENDBRANCH   1   3
BRANCH   1  14
ATOM     14  N   UNL     1      45.377   4.611  13.000  0.00  0.00    +0.000 N 
ATOM     15  H   UNL     1      45.024   4.499  13.950  0.00  0.00    +0.000 HD
BRANCH  14  16
ATOM     16  C   UNL     1      46.482   5.475  12.984  0.00  0.00    +0.000 A 
ATOM     17  C   UNL     1      46.666   6.331  11.892  0.00  0.00    +0.000 A 
ATOM     18  C   UNL     1      47.778   7.172  11.830  0.00  0.00    +0.000 A 
ATOM     19  C   UNL     1      48.704   7.110  12.860  0.00  0.00    +0.000 A 
ATOM     20  N   UNL     1      48.604   6.258  13.917  0.00  0.00    +0.000 NA
ATOM     21  C   UNL     1      47.508   5.460  13.933  0.00  0.00    +0.000 A 
BRANCH  19  22
ATOM     22  C   UNL     1      49.895   8.017  12.841  0.00  0.00    +0.000 C 
ATOM     23  N   UNL     1      50.856   7.748  13.777  0.00  0.00    +0.000 N 
ATOM     24  O   UNL     1      50.009   8.947  12.048  0.00  0.00    +0.000 OA
ATOM     25  H   UNL     1      50.726   6.974  14.420  0.00  0.00    +0.000 HD
ATOM     26  H   UNL     1      51.681   8.326  13.827  0.00  0.00    +0.000 HD
ENDBRANCH  19  22
ENDBRANCH  14  16
ENDBRANCH   1  14
TORSDOF 6
ENDMDL
MODEL 5
REMARK VINA RESULT:    -6.948      4.807      7.106
REMARK INTER + INTRA:         -10.253
REMARK INTER:                  -9.365
REMARK INTRA:                  -0.887
REMARK UNBOUND:                -0.867
REMARK  Name = 
REMARK  7 active torsions:
REMARK  status: ('A' for Active; 'I' for Inactive)
REMARK    1  A    between atoms: C_1  and  C_2
REMARK    2  A    between atoms: C_2  and  C_3
REMARK    3  A    between atoms: C_2  and  C_14
REMARK    4  A    between atoms: C_3  and  N_4
REMARK    5  A    between atoms: N_4  and  C_5
REMARK    6  A    between atoms: C_8  and  C_9
REMARK    7  A    between atoms: C_18  and  C_19
REMARK                            x       y       z     vdW  Elec       q    Type
REMARK                         _______ _______ _______ _____ _____    ______ ____
ROOT
ATOM      1  C   UNL     1      47.536   7.225  11.968  0.00  0.00    +0.000 C 
ENDROOT
BRANCH   1   3
ATOM      2  C   UNL     1      45.416   8.652  12.255  0.00  0.00    +0.000 C 
ATOM      3  C   UNL     1      46.099   7.487  11.608  0.00  0.00    +0.000 C 
BRANCH   3   4
ATOM      4  C   UNL     1      45.310   6.326  11.177  0.00  0.00    +0.000 A 
ATOM      5  C   UNL     1      44.006   6.131  11.641  0.00  0.00    +0.000 A 
ATOM      6  C   UNL     1      43.208   5.122  11.097  0.00  0.00    +0.000 A 
ATOM      7  C   UNL     1      43.697   4.326  10.061  0.00  0.00    +0.000 A 
ATOM      8  C   UNL     1      44.999   4.513   9.580  0.00  0.00    +0.000 A 
ATOM      9  C   UNL     1      45.813   5.483  10.180  0.00  0.00    +0.000 A 
BRANCH   8  10
ATOM     10  C   UNL     1      45.526   3.759   8.387  0.00  0.00    +0.000 C 
ATOM     11  F   UNL     1      44.607   3.587   7.398  0.00  0.00    +0.000 F 
ATOM     12  F   UNL     1      46.578   4.403   7.808  0.00  0.00    +0.000 F 
ATOM     13  F   UNL     1      45.980   2.516   8.705  0.00  0.00    +0.000 F 
ENDBRANCH   8  10
ENDBRANCH   3   4
ENDBRANCH   1   3
BRANCH   1  14
ATOM     14  N   UNL     1      47.680   7.472  13.401  0.00  0.00    +0.000 N 
ATOM     15  H   UNL     1      46.954   8.103  13.739  0.00  0.00    +0.000 HD
BRANCH  14  16
ATOM     16  C   UNL     1      47.790   6.352  14.238  0.00  0.00    +0.000 A 
ATOM     17  C   UNL     1      47.004   5.224  13.979  0.00  0.00    +0.000 A 
ATOM     18  C   UNL     1      47.062   4.111  14.819  0.00  0.00    +0.000 A 
ATOM     19  C   UNL     1      47.892   4.171  15.928  0.00  0.00    +0.000 A 
ATOM     20  N   UNL     1      48.636   5.262  16.258  0.00  0.00    +0.000 NA
ATOM     21  C   UNL     1      48.545   6.319  15.414  0.00  0.00    +0.000 A 
BRANCH  19  22
ATOM     22  C   UNL     1      48.002   2.986  16.837  0.00  0.00    +0.000 C 
ATOM     23  N   UNL     1      46.954   2.803  17.696  0.00  0.00    +0.000 N 
ATOM     24  O   UNL     1      48.967   2.227  16.823  0.00  0.00    +0.000 OA
ATOM     25  H   UNL     1      46.175   3.452  17.682  0.00  0.00    +0.000 HD
ATOM     26  H   UNL     1      46.968   2.029  18.343  0.00  0.00    +0.000 HD
ENDBRANCH  19  22
ENDBRANCH  14  16
ENDBRANCH   1  14
TORSDOF 6
ENDMDL
MODEL 6
REMARK VINA RESULT:    -6.840      4.716      7.227
REMARK INTER + INTRA:         -10.107
REMARK INTER:                  -9.801
REMARK INTRA:                  -0.306
REMARK UNBOUND:                -0.867
REMARK  Name = 
REMARK  7 active torsions:
REMARK  status: ('A' for Active; 'I' for Inactive)
REMARK    1  A    between atoms: C_1  and  C_2
REMARK    2  A    between atoms: C_2  and  C_3
REMARK    3  A    between atoms: C_2  and  C_14
REMARK    4  A    between atoms: C_3  and  N_4
REMARK    5  A    between atoms: N_4  and  C_5
REMARK    6  A    between atoms: C_8  and  C_9
REMARK    7  A    between atoms: C_18  and  C_19
REMARK                            x       y       z     vdW  Elec       q    Type
REMARK                         _______ _______ _______ _____ _____    ______ ____
ROOT
ATOM      1  C   UNL     1      45.043   6.713  11.481  0.00  0.00    +0.000 C 
ENDROOT
BRANCH   1   3
ATOM      2  C   UNL     1      42.598   5.920  11.565  0.00  0.00    +0.000 C 
ATOM      3  C   UNL     1      43.965   5.801  10.964  0.00  0.00    +0.000 C 
BRANCH   3   4
ATOM      4  C   UNL     1      44.407   4.516  10.405  0.00  0.00    +0.000 A 
ATOM      5  C   UNL     1      43.814   3.316  10.806  0.00  0.00    +0.000 A 
ATOM      6  C   UNL     1      44.122   2.124  10.148  0.00  0.00    +0.000 A 
ATOM      7  C   UNL     1      44.998   2.130   9.062  0.00  0.00    +0.000 A 
ATOM      8  C   UNL     1      45.595   3.326   8.644  0.00  0.00    +0.000 A 
ATOM      9  C   UNL     1      45.330   4.504   9.354  0.00  0.00    +0.000 A 
BRANCH   8  10
ATOM     10  C   UNL     1      46.452   3.400   7.406  0.00  0.00    +0.000 C 
ATOM     11  F   UNL     1      47.389   2.416   7.328  0.00  0.00    +0.000 F 
ATOM     12  F   UNL     1      45.705   3.292   6.270  0.00  0.00    +0.000 F 
ATOM     13  F   UNL     1      47.125   4.578   7.298  0.00  0.00    +0.000 F 
ENDBRANCH   8  10
ENDBRANCH   3   4
ENDBRANCH   1   3
BRANCH   1  14
ATOM     14  N   UNL     1      46.279   5.936  11.545  0.00  0.00    +0.000 N 
ATOM     15  H   UNL     1      46.998   6.340  10.946  0.00  0.00    +0.000 HD
BRANCH  14  16
ATOM     16  C   UNL     1      46.797   5.656  12.818  0.00  0.00    +0.000 A 
ATOM     17  C   UNL     1      46.240   4.614  13.569  0.00  0.00    +0.000 A 
ATOM     18  C   UNL     1      46.708   4.339  14.855  0.00  0.00    +0.000 A 
ATOM     19  C   UNL     1      47.710   5.144  15.373  0.00  0.00    +0.000 A 
ATOM     20  N   UNL     1      48.248   6.204  14.709  0.00  0.00    +0.000 NA
ATOM     21  C   UNL     1      47.761   6.433  13.465  0.00  0.00    +0.000 A 
BRANCH  19  22
ATOM     22  C   UNL     1      48.256   4.862  16.738  0.00  0.00    +0.000 C 
ATOM     23  N   UNL     1      47.418   5.153  17.780  0.00  0.00    +0.000 N 
ATOM     24  O   UNL     1      49.381   4.407  16.922  0.00  0.00    +0.000 OA
ATOM     25  H   UNL     1      46.497   5.532  17.591  0.00  0.00    +0.000 HD
ATOM     26  H   UNL     1      47.727   4.996  18.727  0.00  0.00    +0.000 HD
ENDBRANCH  19  22
ENDBRANCH  14  16
ENDBRANCH   1  14
TORSDOF 6
ENDMDL
MODEL 7
REMARK VINA RESULT:    -6.417      2.763      4.746
REMARK INTER + INTRA:          -9.535
REMARK INTER:                  -8.673
REMARK INTRA:                  -0.863
REMARK UNBOUND:                -0.867
REMARK  Name = 
REMARK  7 active torsions:
REMARK  status: ('A' for Active; 'I' for Inactive)
REMARK    1  A    between atoms: C_1  and  C_2
REMARK    2  A    between atoms: C_2  and  C_3
REMARK    3  A    between atoms: C_2  and  C_14
REMARK    4  A    between atoms: C_3  and  N_4
REMARK    5  A    between atoms: N_4  and  C_5
REMARK    6  A    between atoms: C_8  and  C_9
REMARK    7  A    between atoms: C_18  and  C_19
REMARK                            x       y       z     vdW  Elec       q    Type
REMARK                         _______ _______ _______ _____ _____    ______ ____
ROOT
ATOM      1  C   UNL     1      48.390   6.947  13.951  0.00  0.00    +0.000 C 
ENDROOT
BRANCH   1   3
ATOM      2  C   UNL     1      49.471   8.830  15.330  0.00  0.00    +0.000 C 
ATOM      3  C   UNL     1      48.661   7.572  15.292  0.00  0.00    +0.000 C 
BRANCH   3   4
ATOM      4  C   UNL     1      48.669   6.663  16.447  0.00  0.00    +0.000 A 
ATOM      5  C   UNL     1      48.649   7.162  17.753  0.00  0.00    +0.000 A 
ATOM      6  C   UNL     1      48.486   6.294  18.835  0.00  0.00    +0.000 A 
ATOM      7  C   UNL     1      48.307   4.928  18.616  0.00  0.00    +0.000 A 
ATOM      8  C   UNL     1      48.317   4.415  17.313  0.00  0.00    +0.000 A 
ATOM      9  C   UNL     1      48.549   5.285  16.240  0.00  0.00    +0.000 A 
BRANCH   8  10
ATOM     10  C   UNL     1      48.009   2.968  17.022  0.00  0.00    +0.000 C 
ATOM     11  F   UNL     1      46.919   2.496  17.687  0.00  0.00    +0.000 F 
ATOM     12  F   UNL     1      47.754   2.764  15.699  0.00  0.00    +0.000 F 
ATOM     13  F   UNL     1      49.038   2.135  17.336  0.00  0.00    +0.000 F 
ENDBRANCH   8  10
ENDBRANCH   3   4
ENDBRANCH   1   3
BRANCH   1  14
ATOM     14  N   UNL     1      46.975   7.156  13.650  0.00  0.00    +0.000 N 
ATOM     15  H   UNL     1      46.833   8.030  13.144  0.00  0.00    +0.000 HD
BRANCH  14  16
ATOM     16  C   UNL     1      46.290   6.105  13.023  0.00  0.00    +0.000 A 
ATOM     17  C   UNL     1      45.831   6.273  11.711  0.00  0.00    +0.000 A 
ATOM     18  C   UNL     1      45.111   5.261  11.076  0.00  0.00    +0.000 A 
ATOM     19  C   UNL     1      44.838   4.105  11.792  0.00  0.00    +0.000 A 
ATOM     20  N   UNL     1      45.212   3.910  13.087  0.00  0.00    +0.000 NA
ATOM     21  C   UNL     1      45.907   4.922  13.661  0.00  0.00    +0.000 A 
BRANCH  19  22
ATOM     22  C   UNL     1      44.092   2.985  11.135  0.00  0.00    +0.000 C 
ATOM     23  N   UNL     1      44.741   2.372  10.098  0.00  0.00    +0.000 N 
ATOM     24  O   UNL     1      42.970   2.637  11.491  0.00  0.00    +0.000 OA
ATOM     25  H   UNL     1      45.665   2.689   9.829  0.00  0.00    +0.000 HD
ATOM     26  H   UNL     1      44.291   1.615   9.605  0.00  0.00    +0.000 HD
ENDBRANCH  19  22
ENDBRANCH  14  16
ENDBRANCH   1  14
TORSDOF 6
ENDMDL
MODEL 8
REMARK VINA RESULT:    -5.926      5.168      7.685
REMARK INTER + INTRA:          -8.872
REMARK INTER:                  -8.166
REMARK INTRA:                  -0.706
REMARK UNBOUND:                -0.867
REMARK  Name = 
REMARK  7 active torsions:
REMARK  status: ('A' for Active; 'I' for Inactive)
REMARK    1  A    between atoms: C_1  and  C_2
REMARK    2  A    between atoms: C_2  and  C_3
REMARK    3  A    between atoms: C_2  and  C_14
REMARK    4  A    between atoms: C_3  and  N_4
REMARK    5  A    between atoms: N_4  and  C_5
REMARK    6  A    between atoms: C_8  and  C_9
REMARK    7  A    between atoms: C_18  and  C_19
REMARK                            x       y       z     vdW  Elec       q    Type
REMARK                         _______ _______ _______ _____ _____    ______ ____
ROOT
ATOM      1  C   UNL     1      46.013   6.605  13.319  0.00  0.00    +0.000 C 
ENDROOT
BRANCH   1   3
ATOM      2  C   UNL     1      44.821   7.427  11.193  0.00  0.00    +0.000 C 
ATOM      3  C   UNL     1      45.429   6.298  11.967  0.00  0.00    +0.000 C 
BRANCH   3   4
ATOM      4  C   UNL     1      44.945   4.927  11.759  0.00  0.00    +0.000 A 
ATOM      5  C   UNL     1      44.024   4.349  12.637  0.00  0.00    +0.000 A 
ATOM      6  C   UNL     1      43.444   3.115  12.338  0.00  0.00    +0.000 A 
ATOM      7  C   UNL     1      43.756   2.467  11.141  0.00  0.00    +0.000 A 
ATOM      8  C   UNL     1      44.673   3.036  10.249  0.00  0.00    +0.000 A 
ATOM      9  C   UNL     1      45.298   4.242  10.591  0.00  0.00    +0.000 A 
BRANCH   8  10
ATOM     10  C   UNL     1      44.948   2.433   8.895  0.00  0.00    +0.000 C 
ATOM     11  F   UNL     1      46.263   2.452   8.544  0.00  0.00    +0.000 F 
ATOM     12  F   UNL     1      44.568   1.125   8.841  0.00  0.00    +0.000 F 
ATOM     13  F   UNL     1      44.275   3.058   7.891  0.00  0.00    +0.000 F 
ENDBRANCH   8  10
ENDBRANCH   3   4
ENDBRANCH   1   3
BRANCH   1  14
ATOM     14  N   UNL     1      47.255   5.845  13.440  0.00  0.00    +0.000 N 
ATOM     15  H   UNL     1      48.019   6.311  12.951  0.00  0.00    +0.000 HD
BRANCH  14  16
ATOM     16  C   UNL     1      47.654   5.466  14.730  0.00  0.00    +0.000 A 
ATOM     17  C   UNL     1      48.596   6.245  15.412  0.00  0.00    +0.000 A 
ATOM     18  C   UNL     1      49.042   5.871  16.680  0.00  0.00    +0.000 A 
ATOM     19  C   UNL     1      48.550   4.694  17.226  0.00  0.00    +0.000 A 
ATOM     20  N   UNL     1      47.676   3.871  16.584  0.00  0.00    +0.000 NA
ATOM     21  C   UNL     1      47.273   4.276  15.355  0.00  0.00    +0.000 A 
BRANCH  19  22
ATOM     22  C   UNL     1      48.984   4.274  18.596  0.00  0.00    +0.000 C 
ATOM     23  N   UNL     1      49.990   3.347  18.637  0.00  0.00    +0.000 N 
ATOM     24  O   UNL     1      48.474   4.721  19.619  0.00  0.00    +0.000 OA
ATOM     25  H   UNL     1      50.384   2.997  17.771  0.00  0.00    +0.000 HD
ATOM     26  H   UNL     1      50.323   3.013  19.529  0.00  0.00    +0.000 HD
ENDBRANCH  19  22
ENDBRANCH  14  16
ENDBRANCH   1  14
TORSDOF 6
ENDMDL
MODEL 9
REMARK VINA RESULT:    -5.698      2.734      4.195
REMARK INTER + INTRA:          -8.563
REMARK INTER:                  -7.674
REMARK INTRA:                  -0.889
REMARK UNBOUND:                -0.867
REMARK  Name = 
REMARK  7 active torsions:
REMARK  status: ('A' for Active; 'I' for Inactive)
REMARK    1  A    between atoms: C_1  and  C_2
REMARK    2  A    between atoms: C_2  and  C_3
REMARK    3  A    between atoms: C_2  and  C_14
REMARK    4  A    between atoms: C_3  and  N_4
REMARK    5  A    between atoms: N_4  and  C_5
REMARK    6  A    between atoms: C_8  and  C_9
REMARK    7  A    between atoms: C_18  and  C_19
REMARK                            x       y       z     vdW  Elec       q    Type
REMARK                         _______ _______ _______ _____ _____    ______ ____
ROOT
ATOM      1  C   UNL     1      47.019   8.493  12.568  0.00  0.00    +0.000 C 
ENDROOT
BRANCH   1   3
ATOM      2  C   UNL     1      49.253   7.344  12.014  0.00  0.00    +0.000 C 
ATOM      3  C   UNL     1      48.410   8.104  12.990  0.00  0.00    +0.000 C 
BRANCH   3   4
ATOM      4  C   UNL     1      48.632   7.935  14.433  0.00  0.00    +0.000 A 
ATOM      5  C   UNL     1      48.630   9.037  15.293  0.00  0.00    +0.000 A 
ATOM      6  C   UNL     1      48.672   8.849  16.677  0.00  0.00    +0.000 A 
ATOM      7  C   UNL     1      48.681   7.559  17.208  0.00  0.00    +0.000 A 
ATOM      8  C   UNL     1      48.677   6.446  16.359  0.00  0.00    +0.000 A 
ATOM      9  C   UNL     1      48.702   6.646  14.972  0.00  0.00    +0.000 A 
BRANCH   8  10
ATOM     10  C   UNL     1      48.565   5.039  16.888  0.00  0.00    +0.000 C 
ATOM     11  F   UNL     1      49.767   4.449  17.133  0.00  0.00    +0.000 F 
ATOM     12  F   UNL     1      47.883   4.997  18.068  0.00  0.00    +0.000 F 
ATOM     13  F   UNL     1      47.897   4.207  16.042  0.00  0.00    +0.000 F 
ENDBRANCH   8  10
ENDBRANCH   3   4
ENDBRANCH   1   3
BRANCH   1  14
ATOM     14  N   UNL     1      46.085   7.670  13.332  0.00  0.00    +0.000 N 
ATOM     15  H   UNL     1      45.290   8.221  13.656  0.00  0.00    +0.000 HD
BRANCH  14  16
ATOM     16  C   UNL     1      45.648   6.476  12.739  0.00  0.00    +0.000 A 
ATOM     17  C   UNL     1      45.181   6.497  11.420  0.00  0.00    +0.000 A 
ATOM     18  C   UNL     1      44.702   5.332  10.818  0.00  0.00    +0.000 A 
ATOM     19  C   UNL     1      44.674   4.170  11.573  0.00  0.00    +0.000 A 
ATOM     20  N   UNL     1      45.064   4.104  12.877  0.00  0.00    +0.000 NA
ATOM     21  C   UNL     1      45.519   5.261  13.417  0.00  0.00    +0.000 A 
BRANCH  19  22
ATOM     22  C   UNL     1      44.193   2.895  10.954  0.00  0.00    +0.000 C 
ATOM     23  N   UNL     1      43.365   2.135  11.734  0.00  0.00    +0.000 N 
ATOM     24  O   UNL     1      44.520   2.542   9.824  0.00  0.00    +0.000 OA
ATOM     25  H   UNL     1      43.120   2.456  12.664  0.00  0.00    +0.000 HD
ATOM     26  H   UNL     1      43.012   1.259  11.381  0.00  0.00    +0.000 HD
ENDBRANCH  19  22
ENDBRANCH  14  16
ENDBRANCH   1  14
TORSDOF 6
ENDMDL
