MODEL 1
REMARK VINA RESULT:    -7.457      0.000      0.000
REMARK INTER + INTRA:          -8.078
REMARK INTER:                  -8.764
REMARK INTRA:                   0.687
REMARK UNBOUND:                 0.687
REMARK  Name = 
REMARK  5 active torsions:
REMARK  status: ('A' for Active; 'I' for Inactive)
REMARK    1  A    between atoms: C_1  and  C_2
REMARK    2  A    between atoms: C_2  and  C_3
REMARK    3  A    between atoms: C_2  and  N_4
REMARK    4  A    between atoms: C_2  and  C_14
REMARK    5  A    between atoms: C_8  and  C_9
REMARK                            x       y       z     vdW  Elec       q    Type
REMARK                         _______ _______ _______ _____ _____    ______ ____
ROOT
ATOM      1  N   UNL     1      44.309   3.095  10.955  0.00  0.00    +0.000 N 
ATOM      2  C   UNL     1      44.998   3.023   9.742  0.00  0.00    +0.000 A 
ATOM      3  C   UNL     1      45.314   1.784   9.163  0.00  0.00    +0.000 A 
ATOM      4  N   UNL     1      46.028   1.626   8.009  0.00  0.00    +0.000 NA
ATOM      5  C   UNL     1      46.423   2.793   7.430  0.00  0.00    +0.000 A 
ATOM      6  C   UNL     1      46.107   4.022   7.972  0.00  0.00    +0.000 A 
ATOM      7  N   UNL     1      45.412   4.143   9.134  0.00  0.00    +0.000 NA
ATOM      8  H   UNL     1      43.464   2.530  10.900  0.00  0.00    +0.000 HD
ENDROOT
BRANCH   5   9
ATOM      9  C   UNL     1      47.245   2.741   6.190  0.00  0.00    +0.000 C 
ATOM     10  N   UNL     1      48.584   2.518   6.366  0.00  0.00    +0.000 N 
ATOM     11  O   UNL     1      46.763   2.905   5.077  0.00  0.00    +0.000 OA
ATOM     12  H   UNL     1      48.972   2.426   7.300  0.00  0.00    +0.000 HD
ATOM     13  H   UNL     1      49.193   2.519   5.559  0.00  0.00    +0.000 HD
ENDBRANCH   5   9
BRANCH   1  15
ATOM     14  C   UNL     1      43.401   5.402  10.551  0.00  0.00    +0.000 C 
ATOM     15  C   UNL     1      44.008   4.417  11.571  0.00  0.00    +0.000 C 
ATOM     16  C   UNL     1      43.056   4.213  12.777  0.00  0.00    +0.000 C 
BRANCH  15  17
ATOM     17  C   UNL     1      45.346   5.047  12.059  0.00  0.00    +0.000 A 
ATOM     18  C   UNL     1      45.872   6.203  11.444  0.00  0.00    +0.000 A 
ATOM     19  C   UNL     1      47.041   6.814  11.903  0.00  0.00    +0.000 A 
ATOM     20  C   UNL     1      47.731   6.262  12.973  0.00  0.00    +0.000 A 
ATOM     21 CL   UNL     1      49.147   7.040  13.565  0.00  0.00    +0.000 Cl
ATOM     22  C   UNL     1      47.278   5.086  13.564  0.00  0.00    +0.000 A 
ATOM     23  C   UNL     1      46.102   4.477  13.103  0.00  0.00    +0.000 A 
ENDBRANCH  15  17
ENDBRANCH   1  15
TORSDOF 3
ENDMDL
MODEL 2
REMARK VINA RESULT:    -7.228      3.973      6.227
REMARK INTER + INTRA:          -7.809
REMARK INTER:                  -8.659
REMARK INTRA:                   0.850
REMARK UNBOUND:                 0.687
REMARK  Name = 
REMARK  5 active torsions:
REMARK  status: ('A' for Active; 'I' for Inactive)
REMARK    1  A    between atoms: C_1  and  C_2
REMARK    2  A    between atoms: C_2  and  C_3
REMARK    3  A    between atoms: C_2  and  N_4
REMARK    4  A    between atoms: C_2  and  C_14
REMARK    5  A    between atoms: C_8  and  C_9
REMARK                            x       y       z     vdW  Elec       q    Type
REMARK                         _______ _______ _______ _____ _____    ______ ____
ROOT
ATOM      1  N   UNL     1      45.232   3.365  12.488  0.00  0.00    +0.000 N 
ATOM      2  C   UNL     1      45.998   4.457  12.904  0.00  0.00    +0.000 A 
ATOM      3  C   UNL     1      46.953   4.323  13.923  0.00  0.00    +0.000 A 
ATOM      4  N   UNL     1      47.704   5.349  14.422  0.00  0.00    +0.000 NA
ATOM      5  C   UNL     1      47.462   6.556  13.841  0.00  0.00    +0.000 A 
ATOM      6  C   UNL     1      46.542   6.706  12.825  0.00  0.00    +0.000 A 
ATOM      7  N   UNL     1      45.795   5.667  12.365  0.00  0.00    +0.000 NA
ATOM      8  H   UNL     1      45.845   2.585  12.265  0.00  0.00    +0.000 HD
ENDROOT
BRANCH   5   9
ATOM      9  C   UNL     1      48.194   7.754  14.336  0.00  0.00    +0.000 C 
ATOM     10  N   UNL     1      47.423   8.839  14.657  0.00  0.00    +0.000 N 
ATOM     11  O   UNL     1      49.413   7.782  14.436  0.00  0.00    +0.000 OA
ATOM     12  H   UNL     1      46.416   8.810  14.527  0.00  0.00    +0.000 HD
ATOM     13  H   UNL     1      47.874   9.692  14.954  0.00  0.00    +0.000 HD
ENDBRANCH   5   9
BRANCH   1  15
ATOM     14  C   UNL     1      43.142   2.411  11.472  0.00  0.00    +0.000 C 
ATOM     15  C   UNL     1      44.201   3.531  11.425  0.00  0.00    +0.000 C 
ATOM     16  C   UNL     1      43.539   4.925  11.570  0.00  0.00    +0.000 C 
BRANCH  15  17
ATOM     17  C   UNL     1      44.904   3.425  10.039  0.00  0.00    +0.000 A 
ATOM     18  C   UNL     1      45.245   2.169   9.493  0.00  0.00    +0.000 A 
ATOM     19  C   UNL     1      45.825   2.051   8.228  0.00  0.00    +0.000 A 
ATOM     20  C   UNL     1      46.107   3.192   7.490  0.00  0.00    +0.000 A 
ATOM     21 CL   UNL     1      46.782   3.042   5.915  0.00  0.00    +0.000 Cl
ATOM     22  C   UNL     1      45.843   4.450   8.024  0.00  0.00    +0.000 A 
ATOM     23  C   UNL     1      45.258   4.566   9.293  0.00  0.00    +0.000 A 
ENDBRANCH  15  17
ENDBRANCH   1  15
TORSDOF 3
ENDMDL
MODEL 3
REMARK VINA RESULT:    -7.227      3.967      6.174
REMARK INTER + INTRA:          -7.808
REMARK INTER:                  -8.704
REMARK INTRA:                   0.896
REMARK UNBOUND:                 0.687
REMARK  Name = 
REMARK  5 active torsions:
REMARK  status: ('A' for Active; 'I' for Inactive)
REMARK    1  A    between atoms: C_1  and  C_2
REMARK    2  A    between atoms: C_2  and  C_3
REMARK    3  A    between atoms: C_2  and  N_4
REMARK    4  A    between atoms: C_2  and  C_14
REMARK    5  A    between atoms: C_8  and  C_9
REMARK                            x       y       z     vdW  Elec       q    Type
REMARK                         _______ _______ _______ _____ _____    ______ ____
ROOT
ATOM      1  N   UNL     1      45.364   3.496  12.525  0.00  0.00    +0.000 N 
ATOM      2  C   UNL     1      46.091   4.629  12.900  0.00  0.00    +0.000 A 
ATOM      3  C   UNL     1      47.103   4.551  13.868  0.00  0.00    +0.000 A 
ATOM      4  N   UNL     1      47.823   5.617  14.327  0.00  0.00    +0.000 NA
ATOM      5  C   UNL     1      47.488   6.807  13.756  0.00  0.00    +0.000 A 
ATOM      6  C   UNL     1      46.510   6.903  12.789  0.00  0.00    +0.000 A 
ATOM      7  N   UNL     1      45.797   5.824  12.369  0.00  0.00    +0.000 NA
ATOM      8  H   UNL     1      46.006   2.748  12.273  0.00  0.00    +0.000 HD
ENDROOT
BRANCH   5   9
ATOM      9  C   UNL     1      48.179   8.045  14.211  0.00  0.00    +0.000 C 
ATOM     10  N   UNL     1      47.420   8.925  14.934  0.00  0.00    +0.000 N 
ATOM     11  O   UNL     1      49.350   8.277  13.942  0.00  0.00    +0.000 OA
ATOM     12  H   UNL     1      46.438   8.734  15.111  0.00  0.00    +0.000 HD
ATOM     13  H   UNL     1      47.829   9.801  15.227  0.00  0.00    +0.000 HD
ENDBRANCH   5   9
BRANCH   1  15
ATOM     14  C   UNL     1      43.231   2.476  11.678  0.00  0.00    +0.000 C 
ATOM     15  C   UNL     1      44.273   3.602  11.517  0.00  0.00    +0.000 C 
ATOM     16  C   UNL     1      43.605   4.996  11.633  0.00  0.00    +0.000 C 
BRANCH  15  17
ATOM     17  C   UNL     1      44.897   3.436  10.100  0.00  0.00    +0.000 A 
ATOM     18  C   UNL     1      45.236   4.562   9.319  0.00  0.00    +0.000 A 
ATOM     19  C   UNL     1      45.847   4.433   8.070  0.00  0.00    +0.000 A 
ATOM     20  C   UNL     1      46.106   3.170   7.557  0.00  0.00    +0.000 A 
ATOM     21 CL   UNL     1      46.898   3.015   6.038  0.00  0.00    +0.000 Cl
ATOM     22  C   UNL     1      45.728   2.037   8.270  0.00  0.00    +0.000 A 
ATOM     23  C   UNL     1      45.117   2.168   9.526  0.00  0.00    +0.000 A 
ENDBRANCH  15  17
ENDBRANCH   1  15
TORSDOF 3
ENDMDL
MODEL 4
REMARK VINA RESULT:    -6.657      4.328      6.791
REMARK INTER + INTRA:          -7.138
REMARK INTER:                  -8.297
REMARK INTRA:                   1.159
REMARK UNBOUND:                 0.687
REMARK  Name = 
REMARK  5 active torsions:
REMARK  status: ('A' for Active; 'I' for Inactive)
REMARK    1  A    between atoms: C_1  and  C_2
REMARK    2  A    between atoms: C_2  and  C_3
REMARK    3  A    between atoms: C_2  and  N_4
REMARK    4  A    between atoms: C_2  and  C_14
REMARK    5  A    between atoms: C_8  and  C_9
REMARK                            x       y       z     vdW  Elec       q    Type
REMARK                         _______ _______ _______ _____ _____    ______ ____
ROOT
ATOM      1  N   UNL     1      45.551   5.582  11.632  0.00  0.00    +0.000 N 
ATOM      2  C   UNL     1      46.209   5.484  12.861  0.00  0.00    +0.000 A 
ATOM      3  C   UNL     1      47.058   6.506  13.310  0.00  0.00    +0.000 A 
ATOM      4  N   UNL     1      47.776   6.465  14.471  0.00  0.00    +0.000 NA
ATOM      5  C   UNL     1      47.602   5.327  15.198  0.00  0.00    +0.000 A 
ATOM      6  C   UNL     1      46.757   4.318  14.784  0.00  0.00    +0.000 A 
ATOM      7  N   UNL     1      46.072   4.382  13.611  0.00  0.00    +0.000 NA
ATOM      8  H   UNL     1      45.056   6.470  11.581  0.00  0.00    +0.000 HD
ENDROOT
BRANCH   5   9
ATOM      9  C   UNL     1      48.369   5.154  16.462  0.00  0.00    +0.000 C 
ATOM     10  N   UNL     1      48.279   6.181  17.363  0.00  0.00    +0.000 N 
ATOM     11  O   UNL     1      49.056   4.166  16.682  0.00  0.00    +0.000 OA
ATOM     12  H   UNL     1      47.738   7.012  17.145  0.00  0.00    +0.000 HD
ATOM     13  H   UNL     1      48.817   6.133  18.217  0.00  0.00    +0.000 HD
ENDBRANCH   5   9
BRANCH   1  15
ATOM     14  C   UNL     1      44.658   3.291  12.145  0.00  0.00    +0.000 C 
ATOM     15  C   UNL     1      44.676   4.475  11.156  0.00  0.00    +0.000 C 
ATOM     16  C   UNL     1      43.245   5.020  10.920  0.00  0.00    +0.000 C 
BRANCH  15  17
ATOM     17  C   UNL     1      45.258   3.931   9.817  0.00  0.00    +0.000 A 
ATOM     18  C   UNL     1      45.256   2.548   9.534  0.00  0.00    +0.000 A 
ATOM     19  C   UNL     1      45.723   2.047   8.316  0.00  0.00    +0.000 A 
ATOM     20  C   UNL     1      46.232   2.917   7.363  0.00  0.00    +0.000 A 
ATOM     21 CL   UNL     1      46.765   2.302   5.848  0.00  0.00    +0.000 Cl
ATOM     22  C   UNL     1      46.308   4.281   7.634  0.00  0.00    +0.000 A 
ATOM     23  C   UNL     1      45.837   4.782   8.856  0.00  0.00    +0.000 A 
ENDBRANCH  15  17
ENDBRANCH   1  15
TORSDOF 3
ENDMDL
MODEL 5
REMARK VINA RESULT:    -5.814      3.672      5.419
REMARK INTER + INTRA:          -6.147
REMARK INTER:                  -6.593
REMARK INTRA:                   0.447
REMARK UNBOUND:                 0.687
REMARK  Name = 
REMARK  5 active torsions:
REMARK  status: ('A' for Active; 'I' for Inactive)
REMARK    1  A    between atoms: C_1  and  C_2
REMARK    2  A    between atoms: C_2  and  C_3
REMARK    3  A    between atoms: C_2  and  N_4
REMARK    4  A    between atoms: C_2  and  C_14
REMARK    5  A    between atoms: C_8  and  C_9
REMARK                            x       y       z     vdW  Elec       q    Type
REMARK                         _______ _______ _______ _____ _____    ______ ____
ROOT
ATOM      1  N   UNL     1      46.995   6.893  13.702  0.00  0.00    +0.000 N 
ATOM      2  C   UNL     1      46.236   5.927  13.038  0.00  0.00    +0.000 A 
ATOM      3  C   UNL     1      45.875   4.729  13.673  0.00  0.00    +0.000 A 
ATOM      4  N   UNL     1      45.181   3.714  13.079  0.00  0.00    +0.000 NA
ATOM      5  C   UNL     1      44.842   3.951  11.781  0.00  0.00    +0.000 A 
ATOM      6  C   UNL     1      45.170   5.129  11.144  0.00  0.00    +0.000 A 
ATOM      7  N   UNL     1      45.881   6.112  11.759  0.00  0.00    +0.000 NA
ATOM      8  H   UNL     1      46.561   7.111  14.596  0.00  0.00    +0.000 HD
ENDROOT
BRANCH   5   9
ATOM      9  C   UNL     1      44.120   2.894  11.020  0.00  0.00    +0.000 C 
ATOM     10  N   UNL     1      44.747   2.431   9.895  0.00  0.00    +0.000 N 
ATOM     11  O   UNL     1      43.024   2.473  11.364  0.00  0.00    +0.000 OA
ATOM     12  H   UNL     1      45.637   2.822   9.603  0.00  0.00    +0.000 HD
ATOM     13  H   UNL     1      44.278   1.746   9.318  0.00  0.00    +0.000 HD
ENDBRANCH   5   9
BRANCH   1  15
ATOM     14  C   UNL     1      48.275   7.861  11.770  0.00  0.00    +0.000 C 
ATOM     15  C   UNL     1      47.395   8.147  13.004  0.00  0.00    +0.000 C 
ATOM     16  C   UNL     1      46.123   8.937  12.605  0.00  0.00    +0.000 C 
BRANCH  15  17
ATOM     17  C   UNL     1      48.258   8.999  13.981  0.00  0.00    +0.000 A 
ATOM     18  C   UNL     1      48.084   8.899  15.378  0.00  0.00    +0.000 A 
ATOM     19  C   UNL     1      48.886   9.614  16.272  0.00  0.00    +0.000 A 
ATOM     20  C   UNL     1      49.863  10.471  15.786  0.00  0.00    +0.000 A 
ATOM     21 CL   UNL     1      50.877  11.316  16.889  0.00  0.00    +0.000 Cl
ATOM     22  C   UNL     1      50.021  10.642  14.414  0.00  0.00    +0.000 A 
ATOM     23  C   UNL     1      49.216   9.922  13.519  0.00  0.00    +0.000 A 
ENDBRANCH  15  17
ENDBRANCH   1  15
TORSDOF 3
ENDMDL
MODEL 6
REMARK VINA RESULT:    -5.633      4.144      5.906
REMARK INTER + INTRA:          -5.934
REMARK INTER:                  -6.381
REMARK INTRA:                   0.447
REMARK UNBOUND:                 0.687
REMARK  Name = 
REMARK  5 active torsions:
REMARK  status: ('A' for Active; 'I' for Inactive)
REMARK    1  A    between atoms: C_1  and  C_2
REMARK    2  A    between atoms: C_2  and  C_3
REMARK    3  A    between atoms: C_2  and  N_4
REMARK    4  A    between atoms: C_2  and  C_14
REMARK    5  A    between atoms: C_8  and  C_9
REMARK                            x       y       z     vdW  Elec       q    Type
REMARK                         _______ _______ _______ _____ _____    ______ ____
ROOT
ATOM      1  N   UNL     1      48.038   6.247  13.719  0.00  0.00    +0.000 N 
ATOM      2  C   UNL     1      46.800   5.774  13.275  0.00  0.00    +0.000 A 
ATOM      3  C   UNL     1      46.347   4.494  13.627  0.00  0.00    +0.000 A 
ATOM      4  N   UNL     1      45.178   3.938  13.193  0.00  0.00    +0.000 NA
ATOM      5  C   UNL     1      44.446   4.741  12.372  0.00  0.00    +0.000 A 
ATOM      6  C   UNL     1      44.863   6.010  12.029  0.00  0.00    +0.000 A 
ATOM      7  N   UNL     1      46.045   6.525  12.462  0.00  0.00    +0.000 NA
ATOM      8  H   UNL     1      48.100   6.140  14.729  0.00  0.00    +0.000 HD
ENDROOT
BRANCH   5   9
ATOM      9  C   UNL     1      43.171   4.221  11.805  0.00  0.00    +0.000 C 
ATOM     10  N   UNL     1      42.129   5.107  11.759  0.00  0.00    +0.000 N 
ATOM     11  O   UNL     1      43.049   3.066  11.418  0.00  0.00    +0.000 OA
ATOM     12  H   UNL     1      42.238   6.049  12.124  0.00  0.00    +0.000 HD
ATOM     13  H   UNL     1      41.229   4.791  11.425  0.00  0.00    +0.000 HD
ENDBRANCH   5   9
BRANCH   1  15
ATOM     14  C   UNL     1      48.575   7.749  11.778  0.00  0.00    +0.000 C 
ATOM     15  C   UNL     1      48.517   7.598  13.312  0.00  0.00    +0.000 C 
ATOM     16  C   UNL     1      47.598   8.676  13.941  0.00  0.00    +0.000 C 
BRANCH  15  17
ATOM     17  C   UNL     1      49.973   7.779  13.835  0.00  0.00    +0.000 A 
ATOM     18  C   UNL     1      50.950   8.428  13.051  0.00  0.00    +0.000 A 
ATOM     19  C   UNL     1      52.245   8.649  13.525  0.00  0.00    +0.000 A 
ATOM     20  C   UNL     1      52.603   8.198  14.787  0.00  0.00    +0.000 A 
ATOM     21 CL   UNL     1      54.185   8.510  15.385  0.00  0.00    +0.000 Cl
ATOM     22  C   UNL     1      51.684   7.497  15.563  0.00  0.00    +0.000 A 
ATOM     23  C   UNL     1      50.384   7.279  15.086  0.00  0.00    +0.000 A 
ENDBRANCH  15  17
ENDBRANCH   1  15
TORSDOF 3
ENDMDL
MODEL 7
REMARK VINA RESULT:    -5.266      4.219      6.253
REMARK INTER + INTRA:          -5.503
REMARK INTER:                  -6.005
REMARK INTRA:                   0.503
REMARK UNBOUND:                 0.687
REMARK  Name = 
REMARK  5 active torsions:
REMARK  status: ('A' for Active; 'I' for Inactive)
REMARK    1  A    between atoms: C_1  and  C_2
REMARK    2  A    between atoms: C_2  and  C_3
REMARK    3  A    between atoms: C_2  and  N_4
REMARK    4  A    between atoms: C_2  and  C_14
REMARK    5  A    between atoms: C_8  and  C_9
REMARK                            x       y       z     vdW  Elec       q    Type
REMARK                         _______ _______ _______ _____ _____    ______ ____
ROOT
ATOM      1  N   UNL     1      47.894   7.372  11.264  0.00  0.00    +0.000 N 
ATOM      2  C   UNL     1      46.787   6.595  11.618  0.00  0.00    +0.000 A 
ATOM      3  C   UNL     1      46.006   5.962  10.639  0.00  0.00    +0.000 A 
ATOM      4  N   UNL     1      44.882   5.230  10.897  0.00  0.00    +0.000 NA
ATOM      5  C   UNL     1      44.560   5.144  12.217  0.00  0.00    +0.000 A 
ATOM      6  C   UNL     1      45.324   5.742  13.196  0.00  0.00    +0.000 A 
ATOM      7  N   UNL     1      46.427   6.482  12.903  0.00  0.00    +0.000 NA
ATOM      8  H   UNL     1      48.503   6.836  10.650  0.00  0.00    +0.000 HD
ENDROOT
BRANCH   5   9
ATOM      9  C   UNL     1      43.329   4.405  12.611  0.00  0.00    +0.000 C 
ATOM     10  N   UNL     1      42.979   3.351  11.812  0.00  0.00    +0.000 N 
ATOM     11  O   UNL     1      42.654   4.727  13.580  0.00  0.00    +0.000 OA
ATOM     12  H   UNL     1      43.528   3.125  10.988  0.00  0.00    +0.000 HD
ATOM     13  H   UNL     1      42.127   2.845  12.010  0.00  0.00    +0.000 HD
ENDBRANCH   5   9
BRANCH   1  15
ATOM     14  C   UNL     1      47.926   9.243  12.939  0.00  0.00    +0.000 C 
ATOM     15  C   UNL     1      48.695   8.061  12.313  0.00  0.00    +0.000 C 
ATOM     16  C   UNL     1      49.108   7.033  13.397  0.00  0.00    +0.000 C 
BRANCH  15  17
ATOM     17  C   UNL     1      49.968   8.659  11.644  0.00  0.00    +0.000 A 
ATOM     18  C   UNL     1      50.141  10.055  11.530  0.00  0.00    +0.000 A 
ATOM     19  C   UNL     1      51.300  10.610  10.983  0.00  0.00    +0.000 A 
ATOM     20  C   UNL     1      52.304   9.778  10.508  0.00  0.00    +0.000 A 
ATOM     21 CL   UNL     1      53.749  10.464   9.875  0.00  0.00    +0.000 Cl
ATOM     22  C   UNL     1      52.141   8.397  10.546  0.00  0.00    +0.000 A 
ATOM     23  C   UNL     1      50.977   7.842  11.097  0.00  0.00    +0.000 A 
ENDBRANCH  15  17
ENDBRANCH   1  15
TORSDOF 3
ENDMDL
MODEL 8
REMARK VINA RESULT:    -4.931      6.343      8.788
REMARK INTER + INTRA:          -5.109
REMARK INTER:                  -5.550
REMARK INTRA:                   0.440
REMARK UNBOUND:                 0.687
REMARK  Name = 
REMARK  5 active torsions:
REMARK  status: ('A' for Active; 'I' for Inactive)
REMARK    1  A    between atoms: C_1  and  C_2
REMARK    2  A    between atoms: C_2  and  C_3
REMARK    3  A    between atoms: C_2  and  N_4
REMARK    4  A    between atoms: C_2  and  C_14
REMARK    5  A    between atoms: C_8  and  C_9
REMARK                            x       y       z     vdW  Elec       q    Type
REMARK                         _______ _______ _______ _____ _____    ______ ____
ROOT
ATOM      1  N   UNL     1      47.883   6.259  14.824  0.00  0.00    +0.000 N 
ATOM      2  C   UNL     1      48.723   6.879  15.753  0.00  0.00    +0.000 A 
ATOM      3  C   UNL     1      48.910   6.337  17.033  0.00  0.00    +0.000 A 
ATOM      4  N   UNL     1      49.670   6.907  18.014  0.00  0.00    +0.000 NA
ATOM      5  C   UNL     1      50.265   8.077  17.654  0.00  0.00    +0.000 A 
ATOM      6  C   UNL     1      50.110   8.618  16.395  0.00  0.00    +0.000 A 
ATOM      7  N   UNL     1      49.328   8.035  15.447  0.00  0.00    +0.000 NA
ATOM      8  H   UNL     1      48.141   5.279  14.733  0.00  0.00    +0.000 HD
ENDROOT
BRANCH   5   9
ATOM      9  C   UNL     1      51.084   8.809  18.659  0.00  0.00    +0.000 C 
ATOM     10  N   UNL     1      51.693   8.039  19.612  0.00  0.00    +0.000 N 
ATOM     11  O   UNL     1      51.194  10.028  18.651  0.00  0.00    +0.000 OA
ATOM     12  H   UNL     1      51.555   7.033  19.627  0.00  0.00    +0.000 HD
ATOM     13  H   UNL     1      52.223   8.491  20.344  0.00  0.00    +0.000 HD
ENDBRANCH   5   9
BRANCH   1  15
ATOM     14  C   UNL     1      46.969   8.234  13.569  0.00  0.00    +0.000 C 
ATOM     15  C   UNL     1      47.672   6.864  13.479  0.00  0.00    +0.000 C 
ATOM     16  C   UNL     1      49.037   6.989  12.756  0.00  0.00    +0.000 C 
BRANCH  15  17
ATOM     17  C   UNL     1      46.730   5.930  12.664  0.00  0.00    +0.000 A 
ATOM     18  C   UNL     1      46.283   4.703  13.199  0.00  0.00    +0.000 A 
ATOM     19  C   UNL     1      45.394   3.878  12.506  0.00  0.00    +0.000 A 
ATOM     20  C   UNL     1      44.954   4.248  11.243  0.00  0.00    +0.000 A 
ATOM     21 CL   UNL     1      43.826   3.252  10.409  0.00  0.00    +0.000 Cl
ATOM     22  C   UNL     1      45.424   5.420  10.656  0.00  0.00    +0.000 A 
ATOM     23  C   UNL     1      46.314   6.247  11.356  0.00  0.00    +0.000 A 
ENDBRANCH  15  17
ENDBRANCH   1  15
TORSDOF 3
ENDMDL
