MODEL 1
REMARK VINA RESULT:    -9.269      0.000      0.000
REMARK INTER + INTRA:         -12.679
REMARK INTER:                 -11.437
REMARK INTRA:                  -1.242
REMARK UNBOUND:                -1.242
REMARK  Name = 
REMARK  4 active torsions:
REMARK  status: ('A' for Active; 'I' for Inactive)
REMARK    1  A    between atoms: C_2  and  C_4
REMARK    2  A    between atoms: N_8  and  C_9
REMARK    3  A    between atoms: C_9  and  C_10
REMARK    4  A    between atoms: C_14  and  C_15
REMARK                            x       y       z     vdW  Elec       q    Type
REMARK                         _______ _______ _______ _____ _____    ______ ____
ROOT
ATOM      1  C   UNL     1      43.806   4.900  11.367  0.00  0.00    +0.000 C 
ATOM      2  C   UNL     1      42.462   5.156  12.037  0.00  0.00    +0.000 C 
ATOM      3  C   UNL     1      42.994   6.141  11.051  0.00  0.00    +0.000 C 
ENDROOT
BRANCH   1   8
ATOM      4  C   UNL     1      46.596   2.787   7.511  0.00  0.00    +0.000 A 
ATOM      5  C   UNL     1      46.256   4.124   7.698  0.00  0.00    +0.000 A 
ATOM      6  C   UNL     1      45.368   4.468   8.722  0.00  0.00    +0.000 A 
ATOM      7  C   UNL     1      44.831   3.474   9.530  0.00  0.00    +0.000 A 
ATOM      8  N   UNL     1      43.837   3.718  10.485  0.00  0.00    +0.000 N 
ATOM      9  N   UNL     1      45.165   2.175   9.366  0.00  0.00    +0.000 NA
ATOM     10  C   UNL     1      46.029   1.858   8.367  0.00  0.00    +0.000 A 
ATOM     11  H   UNL     1      43.704   2.824  10.957  0.00  0.00    +0.000 HD
BRANCH   4  13
ATOM     12  N   UNL     1      47.376   2.958   5.214  0.00  0.00    +0.000 N 
ATOM     13  C   UNL     1      47.473   2.321   6.417  0.00  0.00    +0.000 C 
ATOM     14  O   UNL     1      48.270   1.406   6.586  0.00  0.00    +0.000 OA
ATOM     15  H   UNL     1      48.033   2.675   4.498  0.00  0.00    +0.000 HD
ATOM     16  H   UNL     1      46.915   3.848   5.098  0.00  0.00    +0.000 HD
ENDBRANCH   4  13
ENDBRANCH   1   8
BRANCH   1  17
ATOM     17  C   UNL     1      45.077   5.054  12.196  0.00  0.00    +0.000 A 
ATOM     18  C   UNL     1      45.563   4.019  13.009  0.00  0.00    +0.000 A 
ATOM     19  C   UNL     1      46.790   4.127  13.662  0.00  0.00    +0.000 A 
ATOM     20  C   UNL     1      47.574   5.267  13.488  0.00  0.00    +0.000 A 
ATOM     21  C   UNL     1      47.148   6.323  12.668  0.00  0.00    +0.000 A 
ATOM     22  C   UNL     1      45.878   6.206  12.071  0.00  0.00    +0.000 A 
BRANCH  21  23
ATOM     23  C   UNL     1      48.036   7.460  12.334  0.00  0.00    +0.000 A 
ATOM     24  C   UNL     1      49.417   7.256  12.133  0.00  0.00    +0.000 A 
ATOM     25  C   UNL     1      50.260   8.290  11.714  0.00  0.00    +0.000 A 
ATOM     26  C   UNL     1      49.737   9.555  11.479  0.00  0.00    +0.000 A 
ATOM     27  C   UNL     1      48.382   9.777  11.682  0.00  0.00    +0.000 A 
ATOM     28  F   UNL     1      47.871  10.991  11.438  0.00  0.00    +0.000 F 
ATOM     29  C   UNL     1      47.538   8.755  12.113  0.00  0.00    +0.000 A 
ENDBRANCH  21  23
ENDBRANCH   1  17
TORSDOF 4
ENDMDL
MODEL 2
REMARK VINA RESULT:    -9.071      2.550      3.773
REMARK INTER + INTRA:         -12.435
REMARK INTER:                 -11.869
REMARK INTRA:                  -0.565
REMARK UNBOUND:                -1.242
REMARK  Name = 
REMARK  4 active torsions:
REMARK  status: ('A' for Active; 'I' for Inactive)
REMARK    1  A    between atoms: C_2  and  C_4
REMARK    2  A    between atoms: N_8  and  C_9
REMARK    3  A    between atoms: C_9  and  C_10
REMARK    4  A    between atoms: C_14  and  C_15
REMARK                            x       y       z     vdW  Elec       q    Type
REMARK                         _______ _______ _______ _____ _____    ______ ____
ROOT
ATOM      1  C   UNL     1      43.893   4.958  11.466  0.00  0.00    +0.000 C 
ATOM      2  C   UNL     1      42.765   5.031  12.488  0.00  0.00    +0.000 C 
ATOM      3  C   UNL     1      42.794   5.996  11.351  0.00  0.00    +0.000 C 
ENDROOT
BRANCH   1   8
ATOM      4  C   UNL     1      46.466   2.717   7.532  0.00  0.00    +0.000 A 
ATOM      5  C   UNL     1      46.075   4.047   7.661  0.00  0.00    +0.000 A 
ATOM      6  C   UNL     1      45.257   4.419   8.732  0.00  0.00    +0.000 A 
ATOM      7  C   UNL     1      44.838   3.458   9.644  0.00  0.00    +0.000 A 
ATOM      8  N   UNL     1      43.913   3.721  10.661  0.00  0.00    +0.000 N 
ATOM      9  N   UNL     1      45.222   2.168   9.536  0.00  0.00    +0.000 NA
ATOM     10  C   UNL     1      46.018   1.823   8.490  0.00  0.00    +0.000 A 
ATOM     11  H   UNL     1      43.864   2.856  11.199  0.00  0.00    +0.000 HD
BRANCH   4  13
ATOM     12  N   UNL     1      47.331   2.989   5.275  0.00  0.00    +0.000 N 
ATOM     13  C   UNL     1      47.275   2.218   6.401  0.00  0.00    +0.000 C 
ATOM     14  O   UNL     1      47.886   1.158   6.473  0.00  0.00    +0.000 OA
ATOM     15  H   UNL     1      47.945   2.668   4.538  0.00  0.00    +0.000 HD
ATOM     16  H   UNL     1      47.044   3.956   5.255  0.00  0.00    +0.000 HD
ENDBRANCH   4  13
ENDBRANCH   1   8
BRANCH   1  17
ATOM     17  C   UNL     1      45.287   5.416  11.881  0.00  0.00    +0.000 A 
ATOM     18  C   UNL     1      45.982   6.411  11.177  0.00  0.00    +0.000 A 
ATOM     19  C   UNL     1      47.199   6.908  11.640  0.00  0.00    +0.000 A 
ATOM     20  C   UNL     1      47.733   6.439  12.840  0.00  0.00    +0.000 A 
ATOM     21  C   UNL     1      47.069   5.462  13.597  0.00  0.00    +0.000 A 
ATOM     22  C   UNL     1      45.872   4.939  13.071  0.00  0.00    +0.000 A 
BRANCH  21  23
ATOM     23  C   UNL     1      47.529   5.077  14.951  0.00  0.00    +0.000 A 
ATOM     24  C   UNL     1      48.395   5.918  15.680  0.00  0.00    +0.000 A 
ATOM     25  C   UNL     1      48.759   5.631  17.000  0.00  0.00    +0.000 A 
ATOM     26  C   UNL     1      48.260   4.495  17.623  0.00  0.00    +0.000 A 
ATOM     27  C   UNL     1      47.416   3.649  16.917  0.00  0.00    +0.000 A 
ATOM     28  F   UNL     1      46.917   2.563  17.522  0.00  0.00    +0.000 F 
ATOM     29  C   UNL     1      47.058   3.921  15.597  0.00  0.00    +0.000 A 
ENDBRANCH  21  23
ENDBRANCH   1  17
TORSDOF 4
ENDMDL
MODEL 3
REMARK VINA RESULT:    -7.478      4.077      7.128
REMARK INTER + INTRA:         -10.469
REMARK INTER:                  -9.416
REMARK INTRA:                  -1.054
REMARK UNBOUND:                -1.242
REMARK  Name = 
REMARK  4 active torsions:
REMARK  status: ('A' for Active; 'I' for Inactive)
REMARK    1  A    between atoms: C_2  and  C_4
REMARK    2  A    between atoms: N_8  and  C_9
REMARK    3  A    between atoms: C_9  and  C_10
REMARK    4  A    between atoms: C_14  and  C_15
REMARK                            x       y       z     vdW  Elec       q    Type
REMARK                         _______ _______ _______ _____ _____    ______ ____
ROOT
ATOM      1  C   UNL     1      46.158   5.254  13.333  0.00  0.00    +0.000 C 
ATOM      2  C   UNL     1      46.129   4.367  14.572  0.00  0.00    +0.000 C 
ATOM      3  C   UNL     1      47.303   4.312  13.653  0.00  0.00    +0.000 C 
ENDROOT
BRANCH   1   8
ATOM      4  C   UNL     1      48.335   9.652  11.590  0.00  0.00    +0.000 A 
ATOM      5  C   UNL     1      48.916   8.393  11.717  0.00  0.00    +0.000 A 
ATOM      6  C   UNL     1      48.203   7.371  12.351  0.00  0.00    +0.000 A 
ATOM      7  C   UNL     1      46.933   7.627  12.852  0.00  0.00    +0.000 A 
ATOM      8  N   UNL     1      46.210   6.702  13.615  0.00  0.00    +0.000 N 
ATOM      9  N   UNL     1      46.355   8.841  12.722  0.00  0.00    +0.000 NA
ATOM     10  C   UNL     1      47.061   9.823  12.104  0.00  0.00    +0.000 A 
ATOM     11  H   UNL     1      45.305   7.143  13.772  0.00  0.00    +0.000 HD
BRANCH   4  13
ATOM     12  N   UNL     1      50.238  11.166  11.535  0.00  0.00    +0.000 N 
ATOM     13  C   UNL     1      49.036  10.809  10.996  0.00  0.00    +0.000 C 
ATOM     14  O   UNL     1      48.563  11.418  10.043  0.00  0.00    +0.000 OA
ATOM     15  H   UNL     1      50.738  11.914  11.071  0.00  0.00    +0.000 HD
ATOM     16  H   UNL     1      50.765  10.565  12.151  0.00  0.00    +0.000 HD
ENDBRANCH   4  13
ENDBRANCH   1   8
BRANCH   1  17
ATOM     17  C   UNL     1      45.238   4.911  12.167  0.00  0.00    +0.000 A 
ATOM     18  C   UNL     1      43.970   5.495  12.024  0.00  0.00    +0.000 A 
ATOM     19  C   UNL     1      43.192   5.268  10.890  0.00  0.00    +0.000 A 
ATOM     20  C   UNL     1      43.684   4.474   9.855  0.00  0.00    +0.000 A 
ATOM     21  C   UNL     1      44.955   3.884   9.933  0.00  0.00    +0.000 A 
ATOM     22  C   UNL     1      45.689   4.085  11.118  0.00  0.00    +0.000 A 
BRANCH  21  23
ATOM     23  C   UNL     1      45.563   3.182   8.780  0.00  0.00    +0.000 A 
ATOM     24  C   UNL     1      46.082   3.911   7.690  0.00  0.00    +0.000 A 
ATOM     25  C   UNL     1      46.756   3.282   6.639  0.00  0.00    +0.000 A 
ATOM     26  C   UNL     1      46.932   1.904   6.657  0.00  0.00    +0.000 A 
ATOM     27  C   UNL     1      46.418   1.169   7.715  0.00  0.00    +0.000 A 
ATOM     28  F   UNL     1      46.602  -0.158   7.746  0.00  0.00    +0.000 F 
ATOM     29  C   UNL     1      45.733   1.787   8.761  0.00  0.00    +0.000 A 
ENDBRANCH  21  23
ENDBRANCH   1  17
TORSDOF 4
ENDMDL
MODEL 4
REMARK VINA RESULT:    -7.103      4.968      8.296
REMARK INTER + INTRA:         -10.007
REMARK INTER:                  -8.916
REMARK INTRA:                  -1.091
REMARK UNBOUND:                -1.242
REMARK  Name = 
REMARK  4 active torsions:
REMARK  status: ('A' for Active; 'I' for Inactive)
REMARK    1  A    between atoms: C_2  and  C_4
REMARK    2  A    between atoms: N_8  and  C_9
REMARK    3  A    between atoms: C_9  and  C_10
REMARK    4  A    between atoms: C_14  and  C_15
REMARK                            x       y       z     vdW  Elec       q    Type
REMARK                         _______ _______ _______ _____ _____    ______ ____
ROOT
ATOM      1  C   UNL     1      49.115   7.941  12.614  0.00  0.00    +0.000 C 
ATOM      2  C   UNL     1      50.064   8.094  11.432  0.00  0.00    +0.000 C 
ATOM      3  C   UNL     1      49.815   9.256  12.333  0.00  0.00    +0.000 C 
ENDROOT
BRANCH   1   8
ATOM      4  C   UNL     1      48.452   6.811  17.654  0.00  0.00    +0.000 A 
ATOM      5  C   UNL     1      48.554   8.064  17.057  0.00  0.00    +0.000 A 
ATOM      6  C   UNL     1      48.882   8.152  15.701  0.00  0.00    +0.000 A 
ATOM      7  C   UNL     1      49.111   6.991  14.972  0.00  0.00    +0.000 A 
ATOM      8  N   UNL     1      49.574   6.996  13.651  0.00  0.00    +0.000 N 
ATOM      9  N   UNL     1      49.001   5.770  15.539  0.00  0.00    +0.000 NA
ATOM     10  C   UNL     1      48.681   5.702  16.857  0.00  0.00    +0.000 A 
ATOM     11  H   UNL     1      49.574   6.016  13.371  0.00  0.00    +0.000 HD
BRANCH   4  13
ATOM     12  N   UNL     1      47.224   5.704  19.438  0.00  0.00    +0.000 N 
ATOM     13  C   UNL     1      48.174   6.621  19.093  0.00  0.00    +0.000 C 
ATOM     14  O   UNL     1      48.785   7.252  19.948  0.00  0.00    +0.000 OA
ATOM     15  H   UNL     1      47.097   5.535  20.428  0.00  0.00    +0.000 HD
ATOM     16  H   UNL     1      46.871   5.009  18.797  0.00  0.00    +0.000 HD
ENDBRANCH   4  13
ENDBRANCH   1   8
BRANCH   1  17
ATOM     17  C   UNL     1      47.618   7.840  12.342  0.00  0.00    +0.000 A 
ATOM     18  C   UNL     1      46.758   8.937  12.501  0.00  0.00    +0.000 A 
ATOM     19  C   UNL     1      45.417   8.865  12.130  0.00  0.00    +0.000 A 
ATOM     20  C   UNL     1      44.913   7.697  11.559  0.00  0.00    +0.000 A 
ATOM     21  C   UNL     1      45.733   6.576  11.354  0.00  0.00    +0.000 A 
ATOM     22  C   UNL     1      47.068   6.663  11.795  0.00  0.00    +0.000 A 
BRANCH  21  23
ATOM     23  C   UNL     1      45.266   5.393  10.597  0.00  0.00    +0.000 A 
ATOM     24  C   UNL     1      45.697   5.174   9.272  0.00  0.00    +0.000 A 
ATOM     25  C   UNL     1      45.356   4.012   8.571  0.00  0.00    +0.000 A 
ATOM     26  C   UNL     1      44.579   3.038   9.184  0.00  0.00    +0.000 A 
ATOM     27  C   UNL     1      44.136   3.242  10.483  0.00  0.00    +0.000 A 
ATOM     28  F   UNL     1      43.402   2.296  11.084  0.00  0.00    +0.000 F 
ATOM     29  C   UNL     1      44.459   4.403  11.184  0.00  0.00    +0.000 A 
ENDBRANCH  21  23
ENDBRANCH   1  17
TORSDOF 4
ENDMDL
MODEL 5
REMARK VINA RESULT:    -6.606      3.971      6.098
REMARK INTER + INTRA:          -9.393
REMARK INTER:                  -8.909
REMARK INTRA:                  -0.484
REMARK UNBOUND:                -1.242
REMARK  Name = 
REMARK  4 active torsions:
REMARK  status: ('A' for Active; 'I' for Inactive)
REMARK    1  A    between atoms: C_2  and  C_4
REMARK    2  A    between atoms: N_8  and  C_9
REMARK    3  A    between atoms: C_9  and  C_10
REMARK    4  A    between atoms: C_14  and  C_15
REMARK                            x       y       z     vdW  Elec       q    Type
REMARK                         _______ _______ _______ _____ _____    ______ ____
ROOT
ATOM      1  C   UNL     1      47.305   8.576  13.149  0.00  0.00    +0.000 C 
ATOM      2  C   UNL     1      47.382   9.930  12.455  0.00  0.00    +0.000 C 
ATOM      3  C   UNL     1      48.087   8.757  11.863  0.00  0.00    +0.000 C 
ENDROOT
BRANCH   1   8
ATOM      4  C   UNL     1      44.662   4.397  11.515  0.00  0.00    +0.000 A 
ATOM      5  C   UNL     1      45.617   5.138  10.824  0.00  0.00    +0.000 A 
ATOM      6  C   UNL     1      46.103   6.322  11.388  0.00  0.00    +0.000 A 
ATOM      7  C   UNL     1      45.621   6.746  12.620  0.00  0.00    +0.000 A 
ATOM      8  N   UNL     1      45.954   7.981  13.187  0.00  0.00    +0.000 N 
ATOM      9  N   UNL     1      44.705   6.027  13.304  0.00  0.00    +0.000 NA
ATOM     10  C   UNL     1      44.243   4.880  12.744  0.00  0.00    +0.000 A 
ATOM     11  H   UNL     1      45.513   7.974  14.106  0.00  0.00    +0.000 HD
BRANCH   4  13
ATOM     12  N   UNL     1      44.732   2.484  10.013  0.00  0.00    +0.000 N 
ATOM     13  C   UNL     1      44.043   3.170  10.972  0.00  0.00    +0.000 C 
ATOM     14  O   UNL     1      42.957   2.772  11.376  0.00  0.00    +0.000 OA
ATOM     15  H   UNL     1      44.328   1.610   9.704  0.00  0.00    +0.000 HD
ATOM     16  H   UNL     1      45.711   2.639   9.823  0.00  0.00    +0.000 HD
ENDBRANCH   4  13
ENDBRANCH   1   8
BRANCH   1  17
ATOM     17  C   UNL     1      48.077   8.375  14.448  0.00  0.00    +0.000 A 
ATOM     18  C   UNL     1      48.420   9.449  15.283  0.00  0.00    +0.000 A 
ATOM     19  C   UNL     1      49.014   9.238  16.526  0.00  0.00    +0.000 A 
ATOM     20  C   UNL     1      49.249   7.939  16.976  0.00  0.00    +0.000 A 
ATOM     21  C   UNL     1      48.905   6.827  16.192  0.00  0.00    +0.000 A 
ATOM     22  C   UNL     1      48.362   7.077  14.918  0.00  0.00    +0.000 A 
BRANCH  21  23
ATOM     23  C   UNL     1      48.987   5.445  16.718  0.00  0.00    +0.000 A 
ATOM     24  C   UNL     1      50.196   4.952  17.252  0.00  0.00    +0.000 A 
ATOM     25  C   UNL     1      50.275   3.691  17.851  0.00  0.00    +0.000 A 
ATOM     26  C   UNL     1      49.141   2.894  17.936  0.00  0.00    +0.000 A 
ATOM     27  C   UNL     1      47.945   3.358  17.406  0.00  0.00    +0.000 A 
ATOM     28  F   UNL     1      46.845   2.600  17.503  0.00  0.00    +0.000 F 
ATOM     29  C   UNL     1      47.861   4.608  16.795  0.00  0.00    +0.000 A 
ENDBRANCH  21  23
ENDBRANCH   1  17
TORSDOF 4
ENDMDL
MODEL 6
REMARK VINA RESULT:    -6.458      4.171      6.813
REMARK INTER + INTRA:          -9.211
REMARK INTER:                  -8.004
REMARK INTRA:                  -1.207
REMARK UNBOUND:                -1.242
REMARK  Name = 
REMARK  4 active torsions:
REMARK  status: ('A' for Active; 'I' for Inactive)
REMARK    1  A    between atoms: C_2  and  C_4
REMARK    2  A    between atoms: N_8  and  C_9
REMARK    3  A    between atoms: C_9  and  C_10
REMARK    4  A    between atoms: C_14  and  C_15
REMARK                            x       y       z     vdW  Elec       q    Type
REMARK                         _______ _______ _______ _____ _____    ______ ____
ROOT
ATOM      1  C   UNL     1      49.238   8.683  12.800  0.00  0.00    +0.000 C 
ATOM      2  C   UNL     1      50.433   9.468  12.274  0.00  0.00    +0.000 C 
ATOM      3  C   UNL     1      50.379   7.990  12.081  0.00  0.00    +0.000 C 
ENDROOT
BRANCH   1   8
ATOM      4  C   UNL     1      44.657   6.530  11.573  0.00  0.00    +0.000 A 
ATOM      5  C   UNL     1      45.926   5.963  11.493  0.00  0.00    +0.000 A 
ATOM      6  C   UNL     1      47.049   6.762  11.728  0.00  0.00    +0.000 A 
ATOM      7  C   UNL     1      46.885   8.109  12.028  0.00  0.00    +0.000 A 
ATOM      8  N   UNL     1      47.955   9.003  12.143  0.00  0.00    +0.000 N 
ATOM      9  N   UNL     1      45.658   8.666  12.121  0.00  0.00    +0.000 NA
ATOM     10  C   UNL     1      44.577   7.876  11.890  0.00  0.00    +0.000 A 
ATOM     11  H   UNL     1      47.530   9.883  12.435  0.00  0.00    +0.000 HD
BRANCH   4  13
ATOM     12  N   UNL     1      42.233   6.349  11.652  0.00  0.00    +0.000 N 
ATOM     13  C   UNL     1      43.418   5.783  11.277  0.00  0.00    +0.000 C 
ATOM     14  O   UNL     1      43.448   4.701  10.704  0.00  0.00    +0.000 OA
ATOM     15  H   UNL     1      41.391   5.859  11.378  0.00  0.00    +0.000 HD
ATOM     16  H   UNL     1      42.144   7.321  11.908  0.00  0.00    +0.000 HD
ENDBRANCH   4  13
ENDBRANCH   1   8
BRANCH   1  17
ATOM     17  C   UNL     1      49.098   8.484  14.305  0.00  0.00    +0.000 A 
ATOM     18  C   UNL     1      48.628   9.502  15.149  0.00  0.00    +0.000 A 
ATOM     19  C   UNL     1      48.387   9.267  16.501  0.00  0.00    +0.000 A 
ATOM     20  C   UNL     1      48.583   7.994  17.034  0.00  0.00    +0.000 A 
ATOM     21  C   UNL     1      49.030   6.932  16.232  0.00  0.00    +0.000 A 
ATOM     22  C   UNL     1      49.320   7.219  14.884  0.00  0.00    +0.000 A 
BRANCH  21  23
ATOM     23  C   UNL     1      49.080   5.540  16.734  0.00  0.00    +0.000 A 
ATOM     24  C   UNL     1      50.281   5.006  17.247  0.00  0.00    +0.000 A 
ATOM     25  C   UNL     1      50.331   3.733  17.824  0.00  0.00    +0.000 A 
ATOM     26  C   UNL     1      49.177   2.966  17.908  0.00  0.00    +0.000 A 
ATOM     27  C   UNL     1      47.989   3.471  17.398  0.00  0.00    +0.000 A 
ATOM     28  F   UNL     1      46.869   2.741  17.493  0.00  0.00    +0.000 F 
ATOM     29  C   UNL     1      47.933   4.733  16.808  0.00  0.00    +0.000 A 
ENDBRANCH  21  23
ENDBRANCH   1  17
TORSDOF 4
ENDMDL
