MODEL 1
REMARK VINA RESULT:    -7.564      0.000      0.000
REMARK INTER + INTRA:         -10.754
REMARK INTER:                  -9.775
REMARK INTRA:                  -0.980
REMARK UNBOUND:                -0.980
REMARK  Name = 
REMARK  6 active torsions:
REMARK  status: ('A' for Active; 'I' for Inactive)
REMARK    1  A    between atoms: C_1  and  C_2
REMARK    2  A    between atoms: C_5  and  C_6
REMARK    3  A    between atoms: C_6  and  C_7
REMARK    4  A    between atoms: C_10  and  C_11
REMARK    5  A    between atoms: C_11  and  N_12
REMARK    6  A    between atoms: C_13  and  C_15
REMARK                            x       y       z     vdW  Elec       q    Type
REMARK                         _______ _______ _______ _____ _____    ______ ____
ROOT
ATOM      1  C   UNL     1      48.903   5.785  17.380  0.00  0.00    +0.000 C 
ENDROOT
BRANCH   1   5
ATOM      2  C   UNL     1      51.321   2.192  17.441  0.00  0.00    +0.000 A 
ATOM      3  C   UNL     1      49.939   2.123  17.227  0.00  0.00    +0.000 A 
ATOM      4  C   UNL     1      49.156   3.280  17.211  0.00  0.00    +0.000 A 
ATOM      5  C   UNL     1      49.741   4.533  17.420  0.00  0.00    +0.000 A 
ATOM      6  C   UNL     1      51.112   4.599  17.698  0.00  0.00    +0.000 A 
ATOM      7  C   UNL     1      51.898   3.441  17.695  0.00  0.00    +0.000 A 
BRANCH   2   8
ATOM      8  C   UNL     1      52.166   0.939  17.402  0.00  0.00    +0.000 C 
BRANCH   8  13
ATOM      9  C   UNL     1      55.392  -2.234  15.910  0.00  0.00    +0.000 C 
ATOM     10  C   UNL     1      55.263  -1.048  16.868  0.00  0.00    +0.000 C 
ATOM     11  C   UNL     1      54.958   0.233  16.078  0.00  0.00    +0.000 C 
ATOM     12  C   UNL     1      54.692   1.409  17.013  0.00  0.00    +0.000 C 
ATOM     13  C   UNL     1      53.580   1.080  18.022  0.00  0.00    +0.000 C 
ATOM     14  C   UNL     1      53.982  -0.213  18.761  0.00  0.00    +0.000 C 
ATOM     15  N   UNL     1      54.222  -1.346  17.861  0.00  0.00    +0.000 NA
ATOM     16  H   UNL     1      53.357  -1.599  17.386  0.00  0.00    +0.000 HD
ENDBRANCH   8  13
ENDBRANCH   2   8
ENDBRANCH   1   5
BRANCH   1  17
ATOM     17  N   UNL     1      48.024   5.792  16.238  0.00  0.00    +0.000 N 
ATOM     18  C   UNL     1      48.449   6.248  15.020  0.00  0.00    +0.000 C 
ATOM     19  O   UNL     1      49.607   6.607  14.825  0.00  0.00    +0.000 OA
ATOM     20  H   UNL     1      47.030   5.705  16.427  0.00  0.00    +0.000 HD
BRANCH  18  21
ATOM     21  C   UNL     1      47.466   6.217  13.929  0.00  0.00    +0.000 A 
ATOM     22  C   UNL     1      47.097   7.399  13.301  0.00  0.00    +0.000 A 
ATOM     23  S   UNL     1      45.987   7.179  12.026  0.00  0.00    +0.000 S 
ATOM     24  C   UNL     1      45.923   5.501  12.299  0.00  0.00    +0.000 A 
ATOM     25  N   UNL     1      45.122   4.701  11.545  0.00  0.00    +0.000 NA
ATOM     26  C   UNL     1      45.148   3.454  11.877  0.00  0.00    +0.000 A 
ATOM     27  N   UNL     1      45.907   2.933  12.893  0.00  0.00    +0.000 N 
ATOM     28  C   UNL     1      46.750   3.697  13.663  0.00  0.00    +0.000 A 
ATOM     29  O   UNL     1      47.441   3.193  14.542  0.00  0.00    +0.000 OA
ATOM     30  C   UNL     1      46.750   5.111  13.336  0.00  0.00    +0.000 A 
ATOM     31  H   UNL     1      45.888   1.946  13.100  0.00  0.00    +0.000 HD
ENDBRANCH  18  21
ENDBRANCH   1  17
TORSDOF 5
ENDMDL
MODEL 2
REMARK VINA RESULT:    -7.231      3.043      8.863
REMARK INTER + INTRA:         -10.324
REMARK INTER:                  -9.206
REMARK INTRA:                  -1.118
REMARK UNBOUND:                -0.980
REMARK  Name = 
REMARK  6 active torsions:
REMARK  status: ('A' for Active; 'I' for Inactive)
REMARK    1  A    between atoms: C_1  and  C_2
REMARK    2  A    between atoms: C_5  and  C_6
REMARK    3  A    between atoms: C_6  and  C_7
REMARK    4  A    between atoms: C_10  and  C_11
REMARK    5  A    between atoms: C_11  and  N_12
REMARK    6  A    between atoms: C_13  and  C_15
REMARK                            x       y       z     vdW  Elec       q    Type
REMARK                         _______ _______ _______ _____ _____    ______ ____
ROOT
ATOM      1  C   UNL     1      49.391   6.402  17.484  0.00  0.00    +0.000 C 
ENDROOT
BRANCH   1   5
ATOM      2  C   UNL     1      47.033   4.877  14.187  0.00  0.00    +0.000 A 
ATOM      3  C   UNL     1      47.736   6.083  14.069  0.00  0.00    +0.000 A 
ATOM      4  C   UNL     1      48.494   6.579  15.132  0.00  0.00    +0.000 A 
ATOM      5  C   UNL     1      48.555   5.882  16.344  0.00  0.00    +0.000 A 
ATOM      6  C   UNL     1      47.801   4.710  16.485  0.00  0.00    +0.000 A 
ATOM      7  C   UNL     1      47.057   4.204  15.414  0.00  0.00    +0.000 A 
BRANCH   2   8
ATOM      8  C   UNL     1      46.260   4.323  13.012  0.00  0.00    +0.000 C 
BRANCH   8  13
ATOM      9  C   UNL     1      44.413   3.993   8.633  0.00  0.00    +0.000 C 
ATOM     10  C   UNL     1      44.051   4.508  10.026  0.00  0.00    +0.000 C 
ATOM     11  C   UNL     1      43.998   3.339  11.021  0.00  0.00    +0.000 C 
ATOM     12  C   UNL     1      43.771   3.835  12.446  0.00  0.00    +0.000 C 
ATOM     13  C   UNL     1      44.823   4.881  12.848  0.00  0.00    +0.000 C 
ATOM     14  C   UNL     1      44.794   6.008  11.794  0.00  0.00    +0.000 C 
ATOM     15  N   UNL     1      45.028   5.531  10.427  0.00  0.00    +0.000 NA
ATOM     16  H   UNL     1      45.971   5.153  10.351  0.00  0.00    +0.000 HD
ENDBRANCH   8  13
ENDBRANCH   2   8
ENDBRANCH   1   5
BRANCH   1  17
ATOM     17  N   UNL     1      50.358   5.425  17.915  0.00  0.00    +0.000 N 
ATOM     18  C   UNL     1      51.616   5.389  17.377  0.00  0.00    +0.000 C 
ATOM     19  O   UNL     1      52.000   6.219  16.558  0.00  0.00    +0.000 OA
ATOM     20  H   UNL     1      50.001   4.619  18.418  0.00  0.00    +0.000 HD
BRANCH  18  21
ATOM     21  C   UNL     1      52.517   4.347  17.885  0.00  0.00    +0.000 A 
ATOM     22  C   UNL     1      53.717   4.708  18.484  0.00  0.00    +0.000 A 
ATOM     23  S   UNL     1      54.619   3.381  19.062  0.00  0.00    +0.000 S 
ATOM     24  C   UNL     1      53.461   2.275  18.490  0.00  0.00    +0.000 A 
ATOM     25  N   UNL     1      53.638   0.935  18.645  0.00  0.00    +0.000 NA
ATOM     26  C   UNL     1      52.698   0.210  18.138  0.00  0.00    +0.000 A 
ATOM     27  N   UNL     1      51.592   0.703  17.495  0.00  0.00    +0.000 N 
ATOM     28  C   UNL     1      51.358   2.048  17.338  0.00  0.00    +0.000 A 
ATOM     29  O   UNL     1      50.341   2.456  16.788  0.00  0.00    +0.000 OA
ATOM     30  C   UNL     1      52.392   2.908  17.881  0.00  0.00    +0.000 A 
ATOM     31  H   UNL     1      50.888   0.082  17.126  0.00  0.00    +0.000 HD
ENDBRANCH  18  21
ENDBRANCH   1  17
TORSDOF 5
ENDMDL
MODEL 3
REMARK VINA RESULT:    -6.838      3.123      8.684
REMARK INTER + INTRA:          -9.816
REMARK INTER:                  -8.796
REMARK INTRA:                  -1.020
REMARK UNBOUND:                -0.980
REMARK  Name = 
REMARK  6 active torsions:
REMARK  status: ('A' for Active; 'I' for Inactive)
REMARK    1  A    between atoms: C_1  and  C_2
REMARK    2  A    between atoms: C_5  and  C_6
REMARK    3  A    between atoms: C_6  and  C_7
REMARK    4  A    between atoms: C_10  and  C_11
REMARK    5  A    between atoms: C_11  and  N_12
REMARK    6  A    between atoms: C_13  and  C_15
REMARK                            x       y       z     vdW  Elec       q    Type
REMARK                         _______ _______ _______ _____ _____    ______ ____
ROOT
ATOM      1  C   UNL     1      49.151   8.235  15.673  0.00  0.00    +0.000 C 
ENDROOT
BRANCH   1   5
ATOM      2  C   UNL     1      46.615   6.888  12.431  0.00  0.00    +0.000 A 
ATOM      3  C   UNL     1      47.675   6.095  12.890  0.00  0.00    +0.000 A 
ATOM      4  C   UNL     1      48.497   6.529  13.933  0.00  0.00    +0.000 A 
ATOM      5  C   UNL     1      48.281   7.775  14.533  0.00  0.00    +0.000 A 
ATOM      6  C   UNL     1      47.263   8.596  14.032  0.00  0.00    +0.000 A 
ATOM      7  C   UNL     1      46.429   8.153  13.000  0.00  0.00    +0.000 A 
BRANCH   2   8
ATOM      8  C   UNL     1      45.700   6.385  11.339  0.00  0.00    +0.000 C 
BRANCH   8  13
ATOM      9  C   UNL     1      44.679   2.268   9.168  0.00  0.00    +0.000 C 
ATOM     10  C   UNL     1      44.129   3.193  10.254  0.00  0.00    +0.000 C 
ATOM     11  C   UNL     1      45.117   3.270  11.427  0.00  0.00    +0.000 C 
ATOM     12  C   UNL     1      44.661   4.288  12.469  0.00  0.00    +0.000 C 
ATOM     13  C   UNL     1      44.418   5.667  11.834  0.00  0.00    +0.000 C 
ATOM     14  C   UNL     1      43.415   5.482  10.676  0.00  0.00    +0.000 C 
ATOM     15  N   UNL     1      43.863   4.515   9.669  0.00  0.00    +0.000 NA
ATOM     16  H   UNL     1      44.703   4.861   9.207  0.00  0.00    +0.000 HD
ENDBRANCH   8  13
ENDBRANCH   2   8
ENDBRANCH   1   5
BRANCH   1  17
ATOM     17  N   UNL     1      50.094   7.217  16.059  0.00  0.00    +0.000 N 
ATOM     18  C   UNL     1      49.892   6.450  17.174  0.00  0.00    +0.000 C 
ATOM     19  O   UNL     1      48.875   6.544  17.856  0.00  0.00    +0.000 OA
ATOM     20  H   UNL     1      51.019   7.270  15.644  0.00  0.00    +0.000 HD
BRANCH  18  21
ATOM     21  C   UNL     1      50.921   5.447  17.477  0.00  0.00    +0.000 A 
ATOM     22  C   UNL     1      52.174   5.858  17.911  0.00  0.00    +0.000 A 
ATOM     23  S   UNL     1      53.232   4.569  18.264  0.00  0.00    +0.000 S 
ATOM     24  C   UNL     1      52.069   3.416  17.804  0.00  0.00    +0.000 A 
ATOM     25  N   UNL     1      52.349   2.086  17.847  0.00  0.00    +0.000 NA
ATOM     26  C   UNL     1      51.388   1.325  17.442  0.00  0.00    +0.000 A 
ATOM     27  N   UNL     1      50.169   1.773  17.004  0.00  0.00    +0.000 N 
ATOM     28  C   UNL     1      49.833   3.105  16.967  0.00  0.00    +0.000 A 
ATOM     29  O   UNL     1      48.720   3.470  16.601  0.00  0.00    +0.000 OA
ATOM     30  C   UNL     1      50.884   4.005  17.402  0.00  0.00    +0.000 A 
ATOM     31  H   UNL     1      49.455   1.126  16.706  0.00  0.00    +0.000 HD
ENDBRANCH  18  21
ENDBRANCH   1  17
TORSDOF 5
ENDMDL
MODEL 4
REMARK VINA RESULT:    -6.638      3.361      4.516
REMARK INTER + INTRA:          -9.558
REMARK INTER:                  -8.703
REMARK INTRA:                  -0.855
REMARK UNBOUND:                -0.980
REMARK  Name = 
REMARK  6 active torsions:
REMARK  status: ('A' for Active; 'I' for Inactive)
REMARK    1  A    between atoms: C_1  and  C_2
REMARK    2  A    between atoms: C_5  and  C_6
REMARK    3  A    between atoms: C_6  and  C_7
REMARK    4  A    between atoms: C_10  and  C_11
REMARK    5  A    between atoms: C_11  and  N_12
REMARK    6  A    between atoms: C_13  and  C_15
REMARK                            x       y       z     vdW  Elec       q    Type
REMARK                         _______ _______ _______ _____ _____    ______ ____
ROOT
ATOM      1  C   UNL     1      47.395   3.378  16.505  0.00  0.00    +0.000 C 
ENDROOT
BRANCH   1   5
ATOM      2  C   UNL     1      51.286   4.691  17.883  0.00  0.00    +0.000 A 
ATOM      3  C   UNL     1      50.996   3.327  17.745  0.00  0.00    +0.000 A 
ATOM      4  C   UNL     1      49.740   2.901  17.305  0.00  0.00    +0.000 A 
ATOM      5  C   UNL     1      48.742   3.834  17.002  0.00  0.00    +0.000 A 
ATOM      6  C   UNL     1      49.009   5.194  17.201  0.00  0.00    +0.000 A 
ATOM      7  C   UNL     1      50.273   5.621  17.625  0.00  0.00    +0.000 A 
BRANCH   2   8
ATOM      8  C   UNL     1      52.664   5.141  18.308  0.00  0.00    +0.000 C 
BRANCH   8  13
ATOM      9  C   UNL     1      55.363   9.060  18.074  0.00  0.00    +0.000 C 
ATOM     10  C   UNL     1      55.168   7.722  17.360  0.00  0.00    +0.000 C 
ATOM     11  C   UNL     1      55.497   6.565  18.315  0.00  0.00    +0.000 C 
ATOM     12  C   UNL     1      55.184   5.215  17.676  0.00  0.00    +0.000 C 
ATOM     13  C   UNL     1      53.729   5.154  17.182  0.00  0.00    +0.000 C 
ATOM     14  C   UNL     1      53.503   6.350  16.233  0.00  0.00    +0.000 C 
ATOM     15  N   UNL     1      53.790   7.647  16.854  0.00  0.00    +0.000 NA
ATOM     16  H   UNL     1      53.135   7.816  17.616  0.00  0.00    +0.000 HD
ENDBRANCH   8  13
ENDBRANCH   2   8
ENDBRANCH   1   5
BRANCH   1  17
ATOM     17  N   UNL     1      46.801   4.356  15.628  0.00  0.00    +0.000 N 
ATOM     18  C   UNL     1      46.767   4.164  14.274  0.00  0.00    +0.000 C 
ATOM     19  O   UNL     1      47.176   3.132  13.750  0.00  0.00    +0.000 OA
ATOM     20  H   UNL     1      46.658   5.285  16.011  0.00  0.00    +0.000 HD
BRANCH  18  21
ATOM     21  C   UNL     1      46.143   5.229  13.477  0.00  0.00    +0.000 A 
ATOM     22  C   UNL     1      46.827   6.419  13.265  0.00  0.00    +0.000 A 
ATOM     23  S   UNL     1      45.983   7.526  12.280  0.00  0.00    +0.000 S 
ATOM     24  C   UNL     1      44.655   6.473  12.140  0.00  0.00    +0.000 A 
ATOM     25  N   UNL     1      43.552   6.830  11.428  0.00  0.00    +0.000 NA
ATOM     26  C   UNL     1      42.607   5.951  11.430  0.00  0.00    +0.000 A 
ATOM     27  N   UNL     1      42.667   4.742  12.074  0.00  0.00    +0.000 N 
ATOM     28  C   UNL     1      43.769   4.328  12.783  0.00  0.00    +0.000 A 
ATOM     29  O   UNL     1      43.803   3.225  13.319  0.00  0.00    +0.000 OA
ATOM     30  C   UNL     1      44.858   5.287  12.822  0.00  0.00    +0.000 A 
ATOM     31  H   UNL     1      41.896   4.093  12.032  0.00  0.00    +0.000 HD
ENDBRANCH  18  21
ENDBRANCH   1  17
TORSDOF 5
ENDMDL
MODEL 5
REMARK VINA RESULT:    -6.609      5.675      6.967
REMARK INTER + INTRA:          -9.520
REMARK INTER:                  -8.246
REMARK INTRA:                  -1.274
REMARK UNBOUND:                -0.980
REMARK  Name = 
REMARK  6 active torsions:
REMARK  status: ('A' for Active; 'I' for Inactive)
REMARK    1  A    between atoms: C_1  and  C_2
REMARK    2  A    between atoms: C_5  and  C_6
REMARK    3  A    between atoms: C_6  and  C_7
REMARK    4  A    between atoms: C_10  and  C_11
REMARK    5  A    between atoms: C_11  and  N_12
REMARK    6  A    between atoms: C_13  and  C_15
REMARK                            x       y       z     vdW  Elec       q    Type
REMARK                         _______ _______ _______ _____ _____    ______ ____
ROOT
ATOM      1  C   UNL     1      47.879   7.892  11.769  0.00  0.00    +0.000 C 
ENDROOT
BRANCH   1   5
ATOM      2  C   UNL     1      49.407   8.355  15.795  0.00  0.00    +0.000 A 
ATOM      3  C   UNL     1      48.294   9.088  15.361  0.00  0.00    +0.000 A 
ATOM      4  C   UNL     1      47.802   8.944  14.062  0.00  0.00    +0.000 A 
ATOM      5  C   UNL     1      48.422   8.068  13.163  0.00  0.00    +0.000 A 
ATOM      6  C   UNL     1      49.572   7.383  13.575  0.00  0.00    +0.000 A 
ATOM      7  C   UNL     1      50.053   7.514  14.883  0.00  0.00    +0.000 A 
BRANCH   2   8
ATOM      8  C   UNL     1      49.897   8.479  17.219  0.00  0.00    +0.000 C 
BRANCH   8  13
ATOM      9  C   UNL     1      47.203   8.768  21.139  0.00  0.00    +0.000 C 
ATOM     10  C   UNL     1      48.076   7.765  20.383  0.00  0.00    +0.000 C 
ATOM     11  C   UNL     1      47.471   7.481  19.000  0.00  0.00    +0.000 C 
ATOM     12  C   UNL     1      48.388   6.588  18.168  0.00  0.00    +0.000 C 
ATOM     13  C   UNL     1      49.802   7.182  18.063  0.00  0.00    +0.000 C 
ATOM     14  C   UNL     1      50.318   7.425  19.497  0.00  0.00    +0.000 C 
ATOM     15  N   UNL     1      49.444   8.296  20.289  0.00  0.00    +0.000 NA
ATOM     16  H   UNL     1      49.422   9.229  19.879  0.00  0.00    +0.000 HD
ENDBRANCH   8  13
ENDBRANCH   2   8
ENDBRANCH   1   5
BRANCH   1  17
ATOM     17  N   UNL     1      47.138   6.663  11.645  0.00  0.00    +0.000 N 
ATOM     18  C   UNL     1      45.777   6.639  11.783  0.00  0.00    +0.000 C 
ATOM     19  O   UNL     1      45.120   7.663  11.951  0.00  0.00    +0.000 OA
ATOM     20  H   UNL     1      47.668   5.800  11.720  0.00  0.00    +0.000 HD
BRANCH  18  21
ATOM     21  C   UNL     1      45.125   5.330  11.643  0.00  0.00    +0.000 A 
ATOM     22  C   UNL     1      44.477   4.766  12.734  0.00  0.00    +0.000 A 
ATOM     23  S   UNL     1      43.734   3.270  12.388  0.00  0.00    +0.000 S 
ATOM     24  C   UNL     1      44.294   3.302  10.782  0.00  0.00    +0.000 A 
ATOM     25  N   UNL     1      44.020   2.280   9.927  0.00  0.00    +0.000 NA
ATOM     26  C   UNL     1      44.530   2.418   8.749  0.00  0.00    +0.000 A 
ATOM     27  N   UNL     1      45.285   3.489   8.346  0.00  0.00    +0.000 N 
ATOM     28  C   UNL     1      45.565   4.556   9.166  0.00  0.00    +0.000 A 
ATOM     29  O   UNL     1      46.215   5.514   8.763  0.00  0.00    +0.000 OA
ATOM     30  C   UNL     1      45.023   4.444  10.508  0.00  0.00    +0.000 A 
ATOM     31  H   UNL     1      45.650   3.542   7.407  0.00  0.00    +0.000 HD
ENDBRANCH  18  21
ENDBRANCH   1  17
TORSDOF 5
ENDMDL
MODEL 6
REMARK VINA RESULT:    -6.589      6.476      7.577
REMARK INTER + INTRA:          -9.495
REMARK INTER:                  -8.439
REMARK INTRA:                  -1.056
REMARK UNBOUND:                -0.980
REMARK  Name = 
REMARK  6 active torsions:
REMARK  status: ('A' for Active; 'I' for Inactive)
REMARK    1  A    between atoms: C_1  and  C_2
REMARK    2  A    between atoms: C_5  and  C_6
REMARK    3  A    between atoms: C_6  and  C_7
REMARK    4  A    between atoms: C_10  and  C_11
REMARK    5  A    between atoms: C_11  and  N_12
REMARK    6  A    between atoms: C_13  and  C_15
REMARK                            x       y       z     vdW  Elec       q    Type
REMARK                         _______ _______ _______ _____ _____    ______ ____
ROOT
ATOM      1  C   UNL     1      46.374   8.193  12.131  0.00  0.00    +0.000 C 
ENDROOT
BRANCH   1   5
ATOM      2  C   UNL     1      50.660   8.712  11.781  0.00  0.00    +0.000 A 
ATOM      3  C   UNL     1      49.787   9.788  11.573  0.00  0.00    +0.000 A 
ATOM      4  C   UNL     1      48.404   9.623  11.681  0.00  0.00    +0.000 A 
ATOM      5  C   UNL     1      47.863   8.370  11.990  0.00  0.00    +0.000 A 
ATOM      6  C   UNL     1      48.730   7.279  12.135  0.00  0.00    +0.000 A 
ATOM      7  C   UNL     1      50.116   7.450  12.044  0.00  0.00    +0.000 A 
BRANCH   2   8
ATOM      8  C   UNL     1      52.156   8.915  11.714  0.00  0.00    +0.000 C 
BRANCH   8  13
ATOM      9  C   UNL     1      55.215   5.401  10.717  0.00  0.00    +0.000 C 
ATOM     10  C   UNL     1      54.586   6.634  10.066  0.00  0.00    +0.000 C 
ATOM     11  C   UNL     1      53.067   6.447   9.946  0.00  0.00    +0.000 C 
ATOM     12  C   UNL     1      52.393   7.713   9.423  0.00  0.00    +0.000 C 
ATOM     13  C   UNL     1      52.754   8.935  10.284  0.00  0.00    +0.000 C 
ATOM     14  C   UNL     1      54.293   9.035  10.338  0.00  0.00    +0.000 C 
ATOM     15  N   UNL     1      54.936   7.823  10.855  0.00  0.00    +0.000 NA
ATOM     16  H   UNL     1      54.669   7.680  11.829  0.00  0.00    +0.000 HD
ENDBRANCH   8  13
ENDBRANCH   2   8
ENDBRANCH   1   5
BRANCH   1  17
ATOM     17  N   UNL     1      45.977   6.837  11.851  0.00  0.00    +0.000 N 
ATOM     18  C   UNL     1      44.692   6.535  11.488  0.00  0.00    +0.000 C 
ATOM     19  O   UNL     1      43.841   7.404  11.320  0.00  0.00    +0.000 OA
ATOM     20  H   UNL     1      46.593   6.102  12.185  0.00  0.00    +0.000 HD
BRANCH  18  21
ATOM     21  C   UNL     1      44.397   5.119  11.234  0.00  0.00    +0.000 A 
ATOM     22  C   UNL     1      43.621   4.406  12.138  0.00  0.00    +0.000 A 
ATOM     23  S   UNL     1      43.335   2.792  11.668  0.00  0.00    +0.000 S 
ATOM     24  C   UNL     1      44.277   2.976  10.264  0.00  0.00    +0.000 A 
ATOM     25  N   UNL     1      44.463   1.936   9.407  0.00  0.00    +0.000 NA
ATOM     26  C   UNL     1      45.224   2.205   8.399  0.00  0.00    +0.000 A 
ATOM     27  N   UNL     1      45.810   3.422   8.166  0.00  0.00    +0.000 N 
ATOM     28  C   UNL     1      45.629   4.508   8.989  0.00  0.00    +0.000 A 
ATOM     29  O   UNL     1      46.141   5.593   8.733  0.00  0.00    +0.000 OA
ATOM     30  C   UNL     1      44.789   4.255  10.146  0.00  0.00    +0.000 A 
ATOM     31  H   UNL     1      46.390   3.572   7.354  0.00  0.00    +0.000 HD
ENDBRANCH  18  21
ENDBRANCH   1  17
TORSDOF 5
ENDMDL
MODEL 7
REMARK VINA RESULT:    -6.525      5.535      8.953
REMARK INTER + INTRA:          -9.412
REMARK INTER:                  -8.212
REMARK INTRA:                  -1.200
REMARK UNBOUND:                -0.980
REMARK  Name = 
REMARK  6 active torsions:
REMARK  status: ('A' for Active; 'I' for Inactive)
REMARK    1  A    between atoms: C_1  and  C_2
REMARK    2  A    between atoms: C_5  and  C_6
REMARK    3  A    between atoms: C_6  and  C_7
REMARK    4  A    between atoms: C_10  and  C_11
REMARK    5  A    between atoms: C_11  and  N_12
REMARK    6  A    between atoms: C_13  and  C_15
REMARK                            x       y       z     vdW  Elec       q    Type
REMARK                         _______ _______ _______ _____ _____    ______ ____
ROOT
ATOM      1  C   UNL     1      50.093   8.354  14.231  0.00  0.00    +0.000 C 
ENDROOT
BRANCH   1   5
ATOM      2  C   UNL     1      46.399   7.533  12.124  0.00  0.00    +0.000 A 
ATOM      3  C   UNL     1      47.616   7.009  11.670  0.00  0.00    +0.000 A 
ATOM      4  C   UNL     1      48.810   7.275  12.345  0.00  0.00    +0.000 A 
ATOM      5  C   UNL     1      48.811   8.084  13.487  0.00  0.00    +0.000 A 
ATOM      6  C   UNL     1      47.606   8.662  13.904  0.00  0.00    +0.000 A 
ATOM      7  C   UNL     1      46.408   8.379  13.238  0.00  0.00    +0.000 A 
BRANCH   2   8
ATOM      8  C   UNL     1      45.107   7.194  11.417  0.00  0.00    +0.000 C 
BRANCH   8  13
ATOM      9  C   UNL     1      44.451   2.870   9.525  0.00  0.00    +0.000 C 
ATOM     10  C   UNL     1      44.001   3.712  10.720  0.00  0.00    +0.000 C 
ATOM     11  C   UNL     1      45.205   4.032  11.619  0.00  0.00    +0.000 C 
ATOM     12  C   UNL     1      44.815   4.982  12.748  0.00  0.00    +0.000 C 
ATOM     13  C   UNL     1      44.154   6.257  12.202  0.00  0.00    +0.000 C 
ATOM     14  C   UNL     1      42.962   5.830  11.321  0.00  0.00    +0.000 C 
ATOM     15  N   UNL     1      43.341   4.929  10.227  0.00  0.00    +0.000 NA
ATOM     16  H   UNL     1      43.959   5.416   9.579  0.00  0.00    +0.000 HD
ENDBRANCH   8  13
ENDBRANCH   2   8
ENDBRANCH   1   5
BRANCH   1  17
ATOM     17  N   UNL     1      49.879   8.376  15.655  0.00  0.00    +0.000 N 
ATOM     18  C   UNL     1      50.158   7.283  16.430  0.00  0.00    +0.000 C 
ATOM     19  O   UNL     1      50.661   6.264  15.965  0.00  0.00    +0.000 OA
ATOM     20  H   UNL     1      49.279   9.111  16.016  0.00  0.00    +0.000 HD
BRANCH  18  21
ATOM     21  C   UNL     1      49.894   7.415  17.869  0.00  0.00    +0.000 A 
ATOM     22  C   UNL     1      50.671   8.274  18.634  0.00  0.00    +0.000 A 
ATOM     23  S   UNL     1      50.202   8.344  20.272  0.00  0.00    +0.000 S 
ATOM     24  C   UNL     1      48.974   7.193  20.026  0.00  0.00    +0.000 A 
ATOM     25  N   UNL     1      48.189   6.779  21.057  0.00  0.00    +0.000 NA
ATOM     26  C   UNL     1      47.318   5.881  20.737  0.00  0.00    +0.000 A 
ATOM     27  N   UNL     1      47.156   5.364  19.477  0.00  0.00    +0.000 N 
ATOM     28  C   UNL     1      47.908   5.771  18.401  0.00  0.00    +0.000 A 
ATOM     29  O   UNL     1      47.714   5.312  17.280  0.00  0.00    +0.000 OA
ATOM     30  C   UNL     1      48.911   6.773  18.710  0.00  0.00    +0.000 A 
ATOM     31  H   UNL     1      46.451   4.668  19.289  0.00  0.00    +0.000 HD
ENDBRANCH  18  21
ENDBRANCH   1  17
TORSDOF 5
ENDMDL
MODEL 8
REMARK VINA RESULT:    -6.375      3.337      9.160
REMARK INTER + INTRA:          -9.219
REMARK INTER:                  -7.974
REMARK INTRA:                  -1.245
REMARK UNBOUND:                -0.980
REMARK  Name = 
REMARK  6 active torsions:
REMARK  status: ('A' for Active; 'I' for Inactive)
REMARK    1  A    between atoms: C_1  and  C_2
REMARK    2  A    between atoms: C_5  and  C_6
REMARK    3  A    between atoms: C_6  and  C_7
REMARK    4  A    between atoms: C_10  and  C_11
REMARK    5  A    between atoms: C_11  and  N_12
REMARK    6  A    between atoms: C_13  and  C_15
REMARK                            x       y       z     vdW  Elec       q    Type
REMARK                         _______ _______ _______ _____ _____    ______ ____
ROOT
ATOM      1  C   UNL     1      49.846   8.235  14.700  0.00  0.00    +0.000 C 
ENDROOT
BRANCH   1   5
ATOM      2  C   UNL     1      46.364   7.492  12.233  0.00  0.00    +0.000 A 
ATOM      3  C   UNL     1      47.576   6.835  11.981  0.00  0.00    +0.000 A 
ATOM      4  C   UNL     1      48.701   7.076  12.773  0.00  0.00    +0.000 A 
ATOM      5  C   UNL     1      48.641   7.990  13.830  0.00  0.00    +0.000 A 
ATOM      6  C   UNL     1      47.450   8.696  14.042  0.00  0.00    +0.000 A 
ATOM      7  C   UNL     1      46.318   8.441  13.260  0.00  0.00    +0.000 A 
BRANCH   2   8
ATOM      8  C   UNL     1      45.139   7.183  11.404  0.00  0.00    +0.000 C 
BRANCH   8  13
ATOM      9  C   UNL     1      44.511   2.829   9.575  0.00  0.00    +0.000 C 
ATOM     10  C   UNL     1      43.973   3.725  10.691  0.00  0.00    +0.000 C 
ATOM     11  C   UNL     1      45.087   4.028  11.704  0.00  0.00    +0.000 C 
ATOM     12  C   UNL     1      44.619   5.027  12.758  0.00  0.00    +0.000 C 
ATOM     13  C   UNL     1      44.071   6.309  12.109  0.00  0.00    +0.000 C 
ATOM     14  C   UNL     1      42.962   5.898  11.118  0.00  0.00    +0.000 C 
ATOM     15  N   UNL     1      43.418   4.949  10.097  0.00  0.00    +0.000 NA
ATOM     16  H   UNL     1      44.119   5.391   9.505  0.00  0.00    +0.000 HD
ENDBRANCH   8  13
ENDBRANCH   2   8
ENDBRANCH   1   5
BRANCH   1  17
ATOM     17  N   UNL     1      50.304   7.016  15.317  0.00  0.00    +0.000 N 
ATOM     18  C   UNL     1      49.794   6.593  16.514  0.00  0.00    +0.000 C 
ATOM     19  O   UNL     1      48.884   7.188  17.083  0.00  0.00    +0.000 OA
ATOM     20  H   UNL     1      51.183   6.636  14.980  0.00  0.00    +0.000 HD
BRANCH  18  21
ATOM     21  C   UNL     1      50.340   5.340  17.054  0.00  0.00    +0.000 A 
ATOM     22  C   UNL     1      49.482   4.292  17.357  0.00  0.00    +0.000 A 
ATOM     23  S   UNL     1      50.283   2.898  17.926  0.00  0.00    +0.000 S 
ATOM     24  C   UNL     1      51.799   3.663  17.832  0.00  0.00    +0.000 A 
ATOM     25  N   UNL     1      52.934   3.012  18.205  0.00  0.00    +0.000 NA
ATOM     26  C   UNL     1      54.010   3.720  18.112  0.00  0.00    +0.000 A 
ATOM     27  N   UNL     1      54.055   5.018  17.673  0.00  0.00    +0.000 N 
ATOM     28  C   UNL     1      52.939   5.706  17.262  0.00  0.00    +0.000 A 
ATOM     29  O   UNL     1      53.019   6.856  16.842  0.00  0.00    +0.000 OA
ATOM     30  C   UNL     1      51.699   4.958  17.358  0.00  0.00    +0.000 A 
ATOM     31  H   UNL     1      54.930   5.516  17.616  0.00  0.00    +0.000 HD
ENDBRANCH  18  21
ENDBRANCH   1  17
TORSDOF 5
ENDMDL
MODEL 9
REMARK VINA RESULT:    -6.227      3.748      5.917
REMARK INTER + INTRA:          -9.027
REMARK INTER:                  -8.300
REMARK INTRA:                  -0.727
REMARK UNBOUND:                -0.980
REMARK  Name = 
REMARK  6 active torsions:
REMARK  status: ('A' for Active; 'I' for Inactive)
REMARK    1  A    between atoms: C_1  and  C_2
REMARK    2  A    between atoms: C_5  and  C_6
REMARK    3  A    between atoms: C_6  and  C_7
REMARK    4  A    between atoms: C_10  and  C_11
REMARK    5  A    between atoms: C_11  and  N_12
REMARK    6  A    between atoms: C_13  and  C_15
REMARK                            x       y       z     vdW  Elec       q    Type
REMARK                         _______ _______ _______ _____ _____    ______ ____
ROOT
ATOM      1  C   UNL     1      47.287   7.914  11.984  0.00  0.00    +0.000 C 
ENDROOT
BRANCH   1   5
ATOM      2  C   UNL     1      49.412   7.907  15.758  0.00  0.00    +0.000 A 
ATOM      3  C   UNL     1      49.792   7.048  14.718  0.00  0.00    +0.000 A 
ATOM      4  C   UNL     1      49.106   7.045  13.501  0.00  0.00    +0.000 A 
ATOM      5  C   UNL     1      48.014   7.897  13.303  0.00  0.00    +0.000 A 
ATOM      6  C   UNL     1      47.592   8.709  14.363  0.00  0.00    +0.000 A 
ATOM      7  C   UNL     1      48.291   8.725  15.575  0.00  0.00    +0.000 A 
BRANCH   2   8
ATOM      8  C   UNL     1      50.195   7.939  17.050  0.00  0.00    +0.000 C 
BRANCH   8  13
ATOM      9  C   UNL     1      51.164   3.323  17.728  0.00  0.00    +0.000 C 
ATOM     10  C   UNL     1      50.328   4.451  18.334  0.00  0.00    +0.000 C 
ATOM     11  C   UNL     1      51.248   5.561  18.863  0.00  0.00    +0.000 C 
ATOM     12  C   UNL     1      50.443   6.761  19.353  0.00  0.00    +0.000 C 
ATOM     13  C   UNL     1      49.490   7.278  18.262  0.00  0.00    +0.000 C 
ATOM     14  C   UNL     1      48.612   6.095  17.804  0.00  0.00    +0.000 C 
ATOM     15  N   UNL     1      49.388   4.949  17.319  0.00  0.00    +0.000 NA
ATOM     16  H   UNL     1      49.900   5.211  16.477  0.00  0.00    +0.000 HD
ENDBRANCH   8  13
ENDBRANCH   2   8
ENDBRANCH   1   5
BRANCH   1  17
ATOM     17  N   UNL     1      46.666   6.643  11.710  0.00  0.00    +0.000 N 
ATOM     18  C   UNL     1      45.304   6.512  11.684  0.00  0.00    +0.000 C 
ATOM     19  O   UNL     1      44.552   7.472  11.825  0.00  0.00    +0.000 OA
ATOM     20  H   UNL     1      47.251   5.819  11.804  0.00  0.00    +0.000 HD
BRANCH  18  21
ATOM     21  C   UNL     1      44.780   5.168  11.403  0.00  0.00    +0.000 A 
ATOM     22  C   UNL     1      44.039   4.503  12.370  0.00  0.00    +0.000 A 
ATOM     23  S   UNL     1      43.466   2.979  11.864  0.00  0.00    +0.000 S 
ATOM     24  C   UNL     1      44.227   3.134  10.351  0.00  0.00    +0.000 A 
ATOM     25  N   UNL     1      44.148   2.142   9.424  0.00  0.00    +0.000 NA
ATOM     26  C   UNL     1      44.797   2.377   8.333  0.00  0.00    +0.000 A 
ATOM     27  N   UNL     1      45.513   3.519   8.082  0.00  0.00    +0.000 N 
ATOM     28  C   UNL     1      45.600   4.558   8.977  0.00  0.00    +0.000 A 
ATOM     29  O   UNL     1      46.221   5.581   8.706  0.00  0.00    +0.000 OA
ATOM     30  C   UNL     1      44.896   4.339  10.227  0.00  0.00    +0.000 A 
ATOM     31  H   UNL     1      45.994   3.646   7.204  0.00  0.00    +0.000 HD
ENDBRANCH  18  21
ENDBRANCH   1  17
TORSDOF 5
ENDMDL
