MODEL 1
REMARK VINA RESULT:    -8.320      0.000      0.000
REMARK INTER + INTRA:         -13.521
REMARK INTER:                 -12.211
REMARK INTRA:                  -1.310
REMARK UNBOUND:                -1.310
REMARK  Name = 
REMARK  9 active torsions:
REMARK  status: ('A' for Active; 'I' for Inactive)
REMARK    1  A    between atoms: C_1  and  O_2
REMARK    2  A    between atoms: O_2  and  C_3
REMARK    3  A    between atoms: C_10  and  C_11
REMARK    4  A    between atoms: N_13  and  C_14
REMARK    5  A    between atoms: C_14  and  C_15
REMARK    6  A    between atoms: C_18  and  C_19
REMARK    7  A    between atoms: C_19  and  O_20
REMARK    8  A    between atoms: O_20  and  C_21
REMARK    9  A    between atoms: C_21  and  C_22
REMARK                            x       y       z     vdW  Elec       q    Type
REMARK                         _______ _______ _______ _____ _____    ______ ____
ROOT
ATOM      1  C   UNL     1      48.081   6.642  13.187  0.00  0.00    +0.000 C 
ENDROOT
BRANCH   1   2
ATOM      2  C   UNL     1      46.864   5.935  12.645  0.00  0.00    +0.000 A 
ATOM      3  C   UNL     1      46.256   4.898  13.364  0.00  0.00    +0.000 A 
ATOM      4  C   UNL     1      45.169   4.199  12.825  0.00  0.00    +0.000 A 
ATOM      5  C   UNL     1      44.680   4.512  11.550  0.00  0.00    +0.000 A 
ATOM      6  C   UNL     1      45.277   5.561  10.840  0.00  0.00    +0.000 A 
ATOM      7  C   UNL     1      46.358   6.264  11.380  0.00  0.00    +0.000 A 
BRANCH   5   8
ATOM      8  C   UNL     1      43.559   3.712  10.936  0.00  0.00    +0.000 C 
BRANCH   8   9
ATOM      9  O   UNL     1      43.879   3.385   9.590  0.00  0.00    +0.000 OA
BRANCH   9  10
ATOM     10  C   UNL     1      44.625   2.171   9.513  0.00  0.00    +0.000 C 
BRANCH  10  11
ATOM     11  C   UNL     1      45.633   2.286   8.402  0.00  0.00    +0.000 A 
ATOM     12  C   UNL     1      46.427   1.182   8.056  0.00  0.00    +0.000 A 
ATOM     13  C   UNL     1      47.359   1.273   7.021  0.00  0.00    +0.000 A 
ATOM     14  C   UNL     1      47.505   2.468   6.320  0.00  0.00    +0.000 A 
ATOM     15  C   UNL     1      46.721   3.572   6.653  0.00  0.00    +0.000 A 
ATOM     16  C   UNL     1      45.788   3.482   7.688  0.00  0.00    +0.000 A 
ENDBRANCH  10  11
ENDBRANCH   9  10
ENDBRANCH   8   9
ENDBRANCH   5   8
ENDBRANCH   1   2
BRANCH   1  19
ATOM     17  C   UNL     1      49.112   6.932  15.405  0.00  0.00    +0.000 C 
ATOM     18  O   UNL     1      50.236   6.981  14.908  0.00  0.00    +0.000 OA
ATOM     19  N   UNL     1      48.001   6.769  14.623  0.00  0.00    +0.000 N 
ATOM     20  H   UNL     1      47.081   6.773  15.040  0.00  0.00    +0.000 HD
BRANCH  17  28
ATOM     21  C   UNL     1      48.911   4.596  17.933  0.00  0.00    +0.000 A 
ATOM     22  N   UNL     1      48.869   3.920  19.099  0.00  0.00    +0.000 NA
ATOM     23  C   UNL     1      48.760   4.622  20.231  0.00  0.00    +0.000 A 
ATOM     24  N   UNL     1      48.673   5.944  20.347  0.00  0.00    +0.000 NA
ATOM     25  C   UNL     1      48.723   6.579  19.164  0.00  0.00    +0.000 A 
ATOM     26  S   UNL     1      48.611   8.272  19.120  0.00  0.00    +0.000 S 
ATOM     27  C   UNL     1      48.767   8.288  17.428  0.00  0.00    +0.000 A 
ATOM     28  C   UNL     1      48.917   7.026  16.863  0.00  0.00    +0.000 A 
ATOM     29  C   UNL     1      48.858   6.001  17.904  0.00  0.00    +0.000 A 
BRANCH  21  31
ATOM     30  C   UNL     1      47.803   3.170  16.424  0.00  0.00    +0.000 C 
ATOM     31  O   UNL     1      48.994   3.878  16.758  0.00  0.00    +0.000 OA
ENDBRANCH  21  31
ENDBRANCH  17  28
ENDBRANCH   1  19
TORSDOF 8
ENDMDL
MODEL 2
REMARK VINA RESULT:    -7.920      1.401      2.544
REMARK INTER + INTRA:         -12.934
REMARK INTER:                 -11.731
REMARK INTRA:                  -1.202
REMARK UNBOUND:                -1.310
REMARK  Name = 
REMARK  9 active torsions:
REMARK  status: ('A' for Active; 'I' for Inactive)
REMARK    1  A    between atoms: C_1  and  O_2
REMARK    2  A    between atoms: O_2  and  C_3
REMARK    3  A    between atoms: C_10  and  C_11
REMARK    4  A    between atoms: N_13  and  C_14
REMARK    5  A    between atoms: C_14  and  C_15
REMARK    6  A    between atoms: C_18  and  C_19
REMARK    7  A    between atoms: C_19  and  O_20
REMARK    8  A    between atoms: O_20  and  C_21
REMARK    9  A    between atoms: C_21  and  C_22
REMARK                            x       y       z     vdW  Elec       q    Type
REMARK                         _______ _______ _______ _____ _____    ______ ____
ROOT
ATOM      1  C   UNL     1      48.063   6.422  13.648  0.00  0.00    +0.000 C 
ENDROOT
BRANCH   1   2
ATOM      2  C   UNL     1      46.830   5.900  12.955  0.00  0.00    +0.000 A 
ATOM      3  C   UNL     1      46.020   4.931  13.560  0.00  0.00    +0.000 A 
ATOM      4  C   UNL     1      44.917   4.399  12.883  0.00  0.00    +0.000 A 
ATOM      5  C   UNL     1      44.611   4.814  11.580  0.00  0.00    +0.000 A 
ATOM      6  C   UNL     1      45.410   5.797  10.982  0.00  0.00    +0.000 A 
ATOM      7  C   UNL     1      46.508   6.333  11.660  0.00  0.00    +0.000 A 
BRANCH   5   8
ATOM      8  C   UNL     1      43.467   4.190  10.819  0.00  0.00    +0.000 C 
BRANCH   8   9
ATOM      9  O   UNL     1      43.907   3.791   9.528  0.00  0.00    +0.000 OA
BRANCH   9  10
ATOM     10  C   UNL     1      44.564   2.526   9.569  0.00  0.00    +0.000 C 
BRANCH  10  11
ATOM     11  C   UNL     1      45.564   2.458   8.447  0.00  0.00    +0.000 A 
ATOM     12  C   UNL     1      45.812   3.590   7.656  0.00  0.00    +0.000 A 
ATOM     13  C   UNL     1      46.744   3.543   6.619  0.00  0.00    +0.000 A 
ATOM     14  C   UNL     1      47.440   2.363   6.363  0.00  0.00    +0.000 A 
ATOM     15  C   UNL     1      47.204   1.232   7.142  0.00  0.00    +0.000 A 
ATOM     16  C   UNL     1      46.271   1.279   8.181  0.00  0.00    +0.000 A 
ENDBRANCH  10  11
ENDBRANCH   9  10
ENDBRANCH   8   9
ENDBRANCH   5   8
ENDBRANCH   1   2
BRANCH   1  19
ATOM     17  C   UNL     1      49.014   6.385  15.920  0.00  0.00    +0.000 C 
ATOM     18  O   UNL     1      50.144   6.591  15.482  0.00  0.00    +0.000 OA
ATOM     19  N   UNL     1      47.937   6.290  15.081  0.00  0.00    +0.000 N 
ATOM     20  H   UNL     1      47.009   6.163  15.458  0.00  0.00    +0.000 HD
BRANCH  17  28
ATOM     21  C   UNL     1      47.877   8.476  18.415  0.00  0.00    +0.000 A 
ATOM     22  N   UNL     1      47.401   9.039  19.544  0.00  0.00    +0.000 NA
ATOM     23  C   UNL     1      47.328   8.282  20.643  0.00  0.00    +0.000 A 
ATOM     24  N   UNL     1      47.689   7.009  20.763  0.00  0.00    +0.000 NA
ATOM     25  C   UNL     1      48.152   6.484  19.616  0.00  0.00    +0.000 A 
ATOM     26  S   UNL     1      48.674   4.870  19.586  0.00  0.00    +0.000 S 
ATOM     27  C   UNL     1      49.045   4.968  17.931  0.00  0.00    +0.000 A 
ATOM     28  C   UNL     1      48.775   6.209  17.364  0.00  0.00    +0.000 A 
ATOM     29  C   UNL     1      48.271   7.127  18.385  0.00  0.00    +0.000 A 
BRANCH  21  31
ATOM     30  C   UNL     1      49.229   9.940  17.164  0.00  0.00    +0.000 C 
ATOM     31  O   UNL     1      47.983   9.258  17.283  0.00  0.00    +0.000 OA
ENDBRANCH  21  31
ENDBRANCH  17  28
ENDBRANCH   1  19
TORSDOF 8
ENDMDL
MODEL 3
REMARK VINA RESULT:    -7.695      1.752      2.632
REMARK INTER + INTRA:         -12.605
REMARK INTER:                 -11.354
REMARK INTRA:                  -1.251
REMARK UNBOUND:                -1.310
REMARK  Name = 
REMARK  9 active torsions:
REMARK  status: ('A' for Active; 'I' for Inactive)
REMARK    1  A    between atoms: C_1  and  O_2
REMARK    2  A    between atoms: O_2  and  C_3
REMARK    3  A    between atoms: C_10  and  C_11
REMARK    4  A    between atoms: N_13  and  C_14
REMARK    5  A    between atoms: C_14  and  C_15
REMARK    6  A    between atoms: C_18  and  C_19
REMARK    7  A    between atoms: C_19  and  O_20
REMARK    8  A    between atoms: O_20  and  C_21
REMARK    9  A    between atoms: C_21  and  C_22
REMARK                            x       y       z     vdW  Elec       q    Type
REMARK                         _______ _______ _______ _____ _____    ______ ____
ROOT
ATOM      1  C   UNL     1      47.502   3.228  14.878  0.00  0.00    +0.000 C 
ENDROOT
BRANCH   1   2
ATOM      2  C   UNL     1      46.806   3.927  13.739  0.00  0.00    +0.000 A 
ATOM      3  C   UNL     1      45.850   3.260  12.962  0.00  0.00    +0.000 A 
ATOM      4  C   UNL     1      45.258   3.891  11.862  0.00  0.00    +0.000 A 
ATOM      5  C   UNL     1      45.622   5.196  11.506  0.00  0.00    +0.000 A 
ATOM      6  C   UNL     1      46.564   5.869  12.294  0.00  0.00    +0.000 A 
ATOM      7  C   UNL     1      47.151   5.242  13.397  0.00  0.00    +0.000 A 
BRANCH   5   8
ATOM      8  C   UNL     1      45.041   5.853  10.279  0.00  0.00    +0.000 C 
BRANCH   8   9
ATOM      9  O   UNL     1      45.648   5.315   9.111  0.00  0.00    +0.000 OA
BRANCH   9  10
ATOM     10  C   UNL     1      44.838   4.298   8.525  0.00  0.00    +0.000 C 
BRANCH  10  11
ATOM     11  C   UNL     1      45.731   3.234   7.946  0.00  0.00    +0.000 A 
ATOM     12  C   UNL     1      46.598   3.545   6.886  0.00  0.00    +0.000 A 
ATOM     13  C   UNL     1      47.439   2.570   6.347  0.00  0.00    +0.000 A 
ATOM     14  C   UNL     1      47.422   1.275   6.863  0.00  0.00    +0.000 A 
ATOM     15  C   UNL     1      46.566   0.955   7.915  0.00  0.00    +0.000 A 
ATOM     16  C   UNL     1      45.725   1.930   8.456  0.00  0.00    +0.000 A 
ENDBRANCH  10  11
ENDBRANCH   9  10
ENDBRANCH   8   9
ENDBRANCH   5   8
ENDBRANCH   1   2
BRANCH   1  19
ATOM     17  C   UNL     1      47.376   4.133  17.166  0.00  0.00    +0.000 C 
ATOM     18  O   UNL     1      46.556   3.276  17.490  0.00  0.00    +0.000 OA
ATOM     19  N   UNL     1      47.889   4.174  15.898  0.00  0.00    +0.000 N 
ATOM     20  H   UNL     1      48.593   4.858  15.657  0.00  0.00    +0.000 HD
BRANCH  17  28
ATOM     21  C   UNL     1      50.448   5.501  17.928  0.00  0.00    +0.000 A 
ATOM     22  N   UNL     1      51.486   6.243  18.365  0.00  0.00    +0.000 NA
ATOM     23  C   UNL     1      51.242   7.195  19.271  0.00  0.00    +0.000 A 
ATOM     24  N   UNL     1      50.068   7.497  19.817  0.00  0.00    +0.000 NA
ATOM     25  C   UNL     1      49.061   6.739  19.351  0.00  0.00    +0.000 A 
ATOM     26  S   UNL     1      47.491   6.978  19.949  0.00  0.00    +0.000 S 
ATOM     27  C   UNL     1      46.867   5.765  18.935  0.00  0.00    +0.000 A 
ATOM     28  C   UNL     1      47.821   5.164  18.120  0.00  0.00    +0.000 A 
ATOM     29  C   UNL     1      49.142   5.729  18.396  0.00  0.00    +0.000 A 
BRANCH  21  31
ATOM     30  C   UNL     1      51.202   3.297  17.593  0.00  0.00    +0.000 C 
ATOM     31  O   UNL     1      50.695   4.497  17.014  0.00  0.00    +0.000 OA
ENDBRANCH  21  31
ENDBRANCH  17  28
ENDBRANCH   1  19
TORSDOF 8
ENDMDL
MODEL 4
REMARK VINA RESULT:    -7.507      1.830      3.475
REMARK INTER + INTRA:         -12.328
REMARK INTER:                 -10.896
REMARK INTRA:                  -1.431
REMARK UNBOUND:                -1.310
REMARK  Name = 
REMARK  9 active torsions:
REMARK  status: ('A' for Active; 'I' for Inactive)
REMARK    1  A    between atoms: C_1  and  O_2
REMARK    2  A    between atoms: O_2  and  C_3
REMARK    3  A    between atoms: C_10  and  C_11
REMARK    4  A    between atoms: N_13  and  C_14
REMARK    5  A    between atoms: C_14  and  C_15
REMARK    6  A    between atoms: C_18  and  C_19
REMARK    7  A    between atoms: C_19  and  O_20
REMARK    8  A    between atoms: O_20  and  C_21
REMARK    9  A    between atoms: C_21  and  C_22
REMARK                            x       y       z     vdW  Elec       q    Type
REMARK                         _______ _______ _______ _____ _____    ______ ____
ROOT
ATOM      1  C   UNL     1      47.211   4.346  14.905  0.00  0.00    +0.000 C 
ENDROOT
BRANCH   1   2
ATOM      2  C   UNL     1      46.361   4.426  13.662  0.00  0.00    +0.000 A 
ATOM      3  C   UNL     1      45.895   5.659  13.189  0.00  0.00    +0.000 A 
ATOM      4  C   UNL     1      45.048   5.721  12.076  0.00  0.00    +0.000 A 
ATOM      5  C   UNL     1      44.637   4.551  11.424  0.00  0.00    +0.000 A 
ATOM      6  C   UNL     1      45.119   3.320  11.887  0.00  0.00    +0.000 A 
ATOM      7  C   UNL     1      45.970   3.257  12.994  0.00  0.00    +0.000 A 
BRANCH   5   8
ATOM      8  C   UNL     1      43.667   4.609  10.271  0.00  0.00    +0.000 C 
BRANCH   8   9
ATOM      9  O   UNL     1      44.097   3.739   9.233  0.00  0.00    +0.000 OA
BRANCH   9  10
ATOM     10  C   UNL     1      45.132   4.333   8.451  0.00  0.00    +0.000 C 
BRANCH  10  11
ATOM     11  C   UNL     1      45.938   3.244   7.797  0.00  0.00    +0.000 A 
ATOM     12  C   UNL     1      45.967   1.957   8.358  0.00  0.00    +0.000 A 
ATOM     13  C   UNL     1      46.702   0.936   7.755  0.00  0.00    +0.000 A 
ATOM     14  C   UNL     1      47.415   1.190   6.585  0.00  0.00    +0.000 A 
ATOM     15  C   UNL     1      47.394   2.463   6.018  0.00  0.00    +0.000 A 
ATOM     16  C   UNL     1      46.657   3.486   6.620  0.00  0.00    +0.000 A 
ENDBRANCH  10  11
ENDBRANCH   9  10
ENDBRANCH   8   9
ENDBRANCH   5   8
ENDBRANCH   1   2
BRANCH   1  19
ATOM     17  C   UNL     1      48.665   5.826  16.234  0.00  0.00    +0.000 C 
ATOM     18  O   UNL     1      49.132   4.865  16.844  0.00  0.00    +0.000 OA
ATOM     19  N   UNL     1      47.716   5.650  15.263  0.00  0.00    +0.000 N 
ATOM     20  H   UNL     1      47.372   6.444  14.741  0.00  0.00    +0.000 HD
BRANCH  17  28
ATOM     21  C   UNL     1      49.836   8.433  14.306  0.00  0.00    +0.000 A 
ATOM     22  N   UNL     1      50.237   9.615  13.795  0.00  0.00    +0.000 NA
ATOM     23  C   UNL     1      50.384  10.645  14.634  0.00  0.00    +0.000 A 
ATOM     24  N   UNL     1      50.190  10.641  15.948  0.00  0.00    +0.000 NA
ATOM     25  C   UNL     1      49.787   9.447  16.416  0.00  0.00    +0.000 A 
ATOM     26  S   UNL     1      49.504   9.253  18.077  0.00  0.00    +0.000 S 
ATOM     27  C   UNL     1      49.049   7.630  17.861  0.00  0.00    +0.000 A 
ATOM     28  C   UNL     1      49.090   7.203  16.537  0.00  0.00    +0.000 A 
ATOM     29  C   UNL     1      49.564   8.287  15.677  0.00  0.00    +0.000 A 
BRANCH  21  31
ATOM     30  C   UNL     1      48.919   7.621  12.297  0.00  0.00    +0.000 C 
ATOM     31  O   UNL     1      49.709   7.356  13.452  0.00  0.00    +0.000 OA
ENDBRANCH  21  31
ENDBRANCH  17  28
ENDBRANCH   1  19
TORSDOF 8
ENDMDL
MODEL 5
REMARK VINA RESULT:    -7.499      1.483      2.169
REMARK INTER + INTRA:         -12.317
REMARK INTER:                 -10.886
REMARK INTRA:                  -1.431
REMARK UNBOUND:                -1.310
REMARK  Name = 
REMARK  9 active torsions:
REMARK  status: ('A' for Active; 'I' for Inactive)
REMARK    1  A    between atoms: C_1  and  O_2
REMARK    2  A    between atoms: O_2  and  C_3
REMARK    3  A    between atoms: C_10  and  C_11
REMARK    4  A    between atoms: N_13  and  C_14
REMARK    5  A    between atoms: C_14  and  C_15
REMARK    6  A    between atoms: C_18  and  C_19
REMARK    7  A    between atoms: C_19  and  O_20
REMARK    8  A    between atoms: O_20  and  C_21
REMARK    9  A    between atoms: C_21  and  C_22
REMARK                            x       y       z     vdW  Elec       q    Type
REMARK                         _______ _______ _______ _____ _____    ______ ____
ROOT
ATOM      1  C   UNL     1      47.762   4.362  15.056  0.00  0.00    +0.000 C 
ENDROOT
BRANCH   1   2
ATOM      2  C   UNL     1      46.758   4.434  13.934  0.00  0.00    +0.000 A 
ATOM      3  C   UNL     1      46.155   5.649  13.586  0.00  0.00    +0.000 A 
ATOM      4  C   UNL     1      45.172   5.698  12.591  0.00  0.00    +0.000 A 
ATOM      5  C   UNL     1      44.759   4.530  11.936  0.00  0.00    +0.000 A 
ATOM      6  C   UNL     1      45.376   3.318  12.272  0.00  0.00    +0.000 A 
ATOM      7  C   UNL     1      46.362   3.269  13.261  0.00  0.00    +0.000 A 
BRANCH   5   8
ATOM      8  C   UNL     1      43.648   4.568  10.917  0.00  0.00    +0.000 C 
BRANCH   8   9
ATOM      9  O   UNL     1      43.932   3.662   9.859  0.00  0.00    +0.000 OA
BRANCH   9  10
ATOM     10  C   UNL     1      44.677   4.294   8.819  0.00  0.00    +0.000 C 
BRANCH  10  11
ATOM     11  C   UNL     1      45.601   3.284   8.195  0.00  0.00    +0.000 A 
ATOM     12  C   UNL     1      45.559   1.943   8.609  0.00  0.00    +0.000 A 
ATOM     13  C   UNL     1      46.404   0.995   8.032  0.00  0.00    +0.000 A 
ATOM     14  C   UNL     1      47.299   1.376   7.034  0.00  0.00    +0.000 A 
ATOM     15  C   UNL     1      47.350   2.704   6.614  0.00  0.00    +0.000 A 
ATOM     16  C   UNL     1      46.503   3.654   7.191  0.00  0.00    +0.000 A 
ENDBRANCH  10  11
ENDBRANCH   9  10
ENDBRANCH   8   9
ENDBRANCH   5   8
ENDBRANCH   1   2
BRANCH   1  19
ATOM     17  C   UNL     1      48.671   6.403  16.094  0.00  0.00    +0.000 C 
ATOM     18  O   UNL     1      49.743   6.256  15.511  0.00  0.00    +0.000 OA
ATOM     19  N   UNL     1      47.646   5.513  15.921  0.00  0.00    +0.000 N 
ATOM     20  H   UNL     1      46.756   5.669  16.373  0.00  0.00    +0.000 HD
BRANCH  17  28
ATOM     21  C   UNL     1      47.746   6.613  19.409  0.00  0.00    +0.000 A 
ATOM     22  N   UNL     1      47.478   6.978  20.680  0.00  0.00    +0.000 NA
ATOM     23  C   UNL     1      47.519   8.279  20.984  0.00  0.00    +0.000 A 
ATOM     24  N   UNL     1      47.789   9.285  20.158  0.00  0.00    +0.000 NA
ATOM     25  C   UNL     1      48.056   8.879  18.905  0.00  0.00    +0.000 A 
ATOM     26  S   UNL     1      48.409  10.031  17.711  0.00  0.00    +0.000 S 
ATOM     27  C   UNL     1      48.629   8.821  16.538  0.00  0.00    +0.000 A 
ATOM     28  C   UNL     1      48.453   7.529  17.020  0.00  0.00    +0.000 A 
ATOM     29  C   UNL     1      48.077   7.568  18.433  0.00  0.00    +0.000 A 
BRANCH  21  31
ATOM     30  C   UNL     1      48.812   4.517  19.489  0.00  0.00    +0.000 C 
ATOM     31  O   UNL     1      47.677   5.275  19.080  0.00  0.00    +0.000 OA
ENDBRANCH  21  31
ENDBRANCH  17  28
ENDBRANCH   1  19
TORSDOF 8
ENDMDL
MODEL 6
REMARK VINA RESULT:    -7.285      1.569      3.029
REMARK INTER + INTRA:         -12.003
REMARK INTER:                 -10.802
REMARK INTRA:                  -1.201
REMARK UNBOUND:                -1.310
REMARK  Name = 
REMARK  9 active torsions:
REMARK  status: ('A' for Active; 'I' for Inactive)
REMARK    1  A    between atoms: C_1  and  O_2
REMARK    2  A    between atoms: O_2  and  C_3
REMARK    3  A    between atoms: C_10  and  C_11
REMARK    4  A    between atoms: N_13  and  C_14
REMARK    5  A    between atoms: C_14  and  C_15
REMARK    6  A    between atoms: C_18  and  C_19
REMARK    7  A    between atoms: C_19  and  O_20
REMARK    8  A    between atoms: O_20  and  C_21
REMARK    9  A    between atoms: C_21  and  C_22
REMARK                            x       y       z     vdW  Elec       q    Type
REMARK                         _______ _______ _______ _____ _____    ______ ____
ROOT
ATOM      1  C   UNL     1      47.436   3.796  15.299  0.00  0.00    +0.000 C 
ENDROOT
BRANCH   1   2
ATOM      2  C   UNL     1      46.769   4.194  14.006  0.00  0.00    +0.000 A 
ATOM      3  C   UNL     1      46.820   5.517  13.548  0.00  0.00    +0.000 A 
ATOM      4  C   UNL     1      46.141   5.895  12.384  0.00  0.00    +0.000 A 
ATOM      5  C   UNL     1      45.383   4.962  11.664  0.00  0.00    +0.000 A 
ATOM      6  C   UNL     1      45.348   3.635  12.113  0.00  0.00    +0.000 A 
ATOM      7  C   UNL     1      46.031   3.255  13.271  0.00  0.00    +0.000 A 
BRANCH   5   8
ATOM      8  C   UNL     1      44.590   5.382  10.452  0.00  0.00    +0.000 C 
BRANCH   8   9
ATOM      9  O   UNL     1      45.293   5.028   9.268  0.00  0.00    +0.000 OA
BRANCH   9  10
ATOM     10  C   UNL     1      44.620   3.996   8.551  0.00  0.00    +0.000 C 
BRANCH  10  11
ATOM     11  C   UNL     1      45.643   3.087   7.925  0.00  0.00    +0.000 A 
ATOM     12  C   UNL     1      45.806   1.778   8.403  0.00  0.00    +0.000 A 
ATOM     13  C   UNL     1      46.744   0.922   7.825  0.00  0.00    +0.000 A 
ATOM     14  C   UNL     1      47.528   1.365   6.762  0.00  0.00    +0.000 A 
ATOM     15  C   UNL     1      47.374   2.663   6.277  0.00  0.00    +0.000 A 
ATOM     16  C   UNL     1      46.435   3.521   6.855  0.00  0.00    +0.000 A 
ENDBRANCH  10  11
ENDBRANCH   9  10
ENDBRANCH   8   9
ENDBRANCH   5   8
ENDBRANCH   1   2
BRANCH   1  19
ATOM     17  C   UNL     1      48.678   5.245  16.856  0.00  0.00    +0.000 C 
ATOM     18  O   UNL     1      49.700   4.578  16.706  0.00  0.00    +0.000 OA
ATOM     19  N   UNL     1      47.523   4.925  16.196  0.00  0.00    +0.000 N 
ATOM     20  H   UNL     1      46.703   5.507  16.296  0.00  0.00    +0.000 HD
BRANCH  17  28
ATOM     21  C   UNL     1      48.700   8.658  16.368  0.00  0.00    +0.000 A 
ATOM     22  N   UNL     1      48.627  10.002  16.465  0.00  0.00    +0.000 NA
ATOM     23  C   UNL     1      48.510  10.540  17.682  0.00  0.00    +0.000 A 
ATOM     24  N   UNL     1      48.470   9.893  18.843  0.00  0.00    +0.000 NA
ATOM     25  C   UNL     1      48.541   8.559  18.702  0.00  0.00    +0.000 A 
ATOM     26  S   UNL     1      48.517   7.572  20.083  0.00  0.00    +0.000 S 
ATOM     27  C   UNL     1      48.610   6.163  19.137  0.00  0.00    +0.000 A 
ATOM     28  C   UNL     1      48.649   6.403  17.768  0.00  0.00    +0.000 A 
ATOM     29  C   UNL     1      48.640   7.843  17.512  0.00  0.00    +0.000 A 
BRANCH  21  31
ATOM     30  C   UNL     1      50.201   8.028  14.669  0.00  0.00    +0.000 C 
ATOM     31  O   UNL     1      48.850   8.095  15.118  0.00  0.00    +0.000 OA
ENDBRANCH  21  31
ENDBRANCH  17  28
ENDBRANCH   1  19
TORSDOF 8
ENDMDL
MODEL 7
REMARK VINA RESULT:    -7.222      2.909      4.894
REMARK INTER + INTRA:         -11.910
REMARK INTER:                 -10.486
REMARK INTRA:                  -1.424
REMARK UNBOUND:                -1.310
REMARK  Name = 
REMARK  9 active torsions:
REMARK  status: ('A' for Active; 'I' for Inactive)
REMARK    1  A    between atoms: C_1  and  O_2
REMARK    2  A    between atoms: O_2  and  C_3
REMARK    3  A    between atoms: C_10  and  C_11
REMARK    4  A    between atoms: N_13  and  C_14
REMARK    5  A    between atoms: C_14  and  C_15
REMARK    6  A    between atoms: C_18  and  C_19
REMARK    7  A    between atoms: C_19  and  O_20
REMARK    8  A    between atoms: O_20  and  C_21
REMARK    9  A    between atoms: C_21  and  C_22
REMARK                            x       y       z     vdW  Elec       q    Type
REMARK                         _______ _______ _______ _____ _____    ______ ____
ROOT
ATOM      1  C   UNL     1      47.545   5.554  14.635  0.00  0.00    +0.000 C 
ENDROOT
BRANCH   1   2
ATOM      2  C   UNL     1      46.529   5.092  13.622  0.00  0.00    +0.000 A 
ATOM      3  C   UNL     1      45.656   6.003  13.012  0.00  0.00    +0.000 A 
ATOM      4  C   UNL     1      44.668   5.560  12.126  0.00  0.00    +0.000 A 
ATOM      5  C   UNL     1      44.521   4.195  11.844  0.00  0.00    +0.000 A 
ATOM      6  C   UNL     1      45.406   3.287  12.439  0.00  0.00    +0.000 A 
ATOM      7  C   UNL     1      46.397   3.729  13.320  0.00  0.00    +0.000 A 
BRANCH   5   8
ATOM      8  C   UNL     1      43.411   3.707  10.947  0.00  0.00    +0.000 C 
BRANCH   8   9
ATOM      9  O   UNL     1      43.953   2.942   9.879  0.00  0.00    +0.000 OA
BRANCH   9  10
ATOM     10  C   UNL     1      44.519   3.780   8.873  0.00  0.00    +0.000 C 
BRANCH  10  11
ATOM     11  C   UNL     1      45.567   3.004   8.123  0.00  0.00    +0.000 A 
ATOM     12  C   UNL     1      45.824   1.666   8.456  0.00  0.00    +0.000 A 
ATOM     13  C   UNL     1      46.786   0.932   7.761  0.00  0.00    +0.000 A 
ATOM     14  C   UNL     1      47.502   1.530   6.725  0.00  0.00    +0.000 A 
ATOM     15  C   UNL     1      47.256   2.859   6.384  0.00  0.00    +0.000 A 
ATOM     16  C   UNL     1      46.291   3.593   7.079  0.00  0.00    +0.000 A 
ENDBRANCH  10  11
ENDBRANCH   9  10
ENDBRANCH   8   9
ENDBRANCH   5   8
ENDBRANCH   1   2
BRANCH   1  19
ATOM     17  C   UNL     1      49.108   7.453  14.773  0.00  0.00    +0.000 C 
ATOM     18  O   UNL     1      48.916   7.559  15.983  0.00  0.00    +0.000 OA
ATOM     19  N   UNL     1      48.471   6.488  14.040  0.00  0.00    +0.000 N 
ATOM     20  H   UNL     1      48.670   6.385  13.055  0.00  0.00    +0.000 HD
BRANCH  17  28
ATOM     21  C   UNL     1      48.737   9.501  12.024  0.00  0.00    +0.000 A 
ATOM     22  N   UNL     1      48.849  10.422  11.045  0.00  0.00    +0.000 NA
ATOM     23  C   UNL     1      50.011  11.070  10.920  0.00  0.00    +0.000 A 
ATOM     24  N   UNL     1      51.103  10.903  11.658  0.00  0.00    +0.000 NA
ATOM     25  C   UNL     1      50.949   9.983  12.624  0.00  0.00    +0.000 A 
ATOM     26  S   UNL     1      52.249   9.628  13.655  0.00  0.00    +0.000 S 
ATOM     27  C   UNL     1      51.320   8.498  14.519  0.00  0.00    +0.000 A 
ATOM     28  C   UNL     1      50.014   8.371  14.059  0.00  0.00    +0.000 A 
ATOM     29  C   UNL     1      49.804   9.239  12.901  0.00  0.00    +0.000 A 
BRANCH  21  31
ATOM     30  C   UNL     1      46.393   9.635  12.177  0.00  0.00    +0.000 C 
ATOM     31  O   UNL     1      47.551   8.806  12.142  0.00  0.00    +0.000 OA
ENDBRANCH  21  31
ENDBRANCH  17  28
ENDBRANCH   1  19
TORSDOF 8
ENDMDL
MODEL 8
REMARK VINA RESULT:    -6.923      3.021      4.403
REMARK INTER + INTRA:         -11.472
REMARK INTER:                 -10.136
REMARK INTRA:                  -1.336
REMARK UNBOUND:                -1.310
REMARK  Name = 
REMARK  9 active torsions:
REMARK  status: ('A' for Active; 'I' for Inactive)
REMARK    1  A    between atoms: C_1  and  O_2
REMARK    2  A    between atoms: O_2  and  C_3
REMARK    3  A    between atoms: C_10  and  C_11
REMARK    4  A    between atoms: N_13  and  C_14
REMARK    5  A    between atoms: C_14  and  C_15
REMARK    6  A    between atoms: C_18  and  C_19
REMARK    7  A    between atoms: C_19  and  O_20
REMARK    8  A    between atoms: O_20  and  C_21
REMARK    9  A    between atoms: C_21  and  C_22
REMARK                            x       y       z     vdW  Elec       q    Type
REMARK                         _______ _______ _______ _____ _____    ______ ____
ROOT
ATOM      1  C   UNL     1      45.888   8.163  12.885  0.00  0.00    +0.000 C 
ENDROOT
BRANCH   1   2
ATOM      2  C   UNL     1      45.463   6.797  12.407  0.00  0.00    +0.000 A 
ATOM      3  C   UNL     1      45.224   6.553  11.048  0.00  0.00    +0.000 A 
ATOM      4  C   UNL     1      44.762   5.304  10.619  0.00  0.00    +0.000 A 
ATOM      5  C   UNL     1      44.514   4.278  11.541  0.00  0.00    +0.000 A 
ATOM      6  C   UNL     1      44.771   4.517  12.897  0.00  0.00    +0.000 A 
ATOM      7  C   UNL     1      45.238   5.763  13.326  0.00  0.00    +0.000 A 
BRANCH   5   8
ATOM      8  C   UNL     1      43.945   2.956  11.091  0.00  0.00    +0.000 C 
BRANCH   8   9
ATOM      9  O   UNL     1      43.927   2.896   9.671  0.00  0.00    +0.000 OA
BRANCH   9  10
ATOM     10  C   UNL     1      44.488   1.674   9.194  0.00  0.00    +0.000 C 
BRANCH  10  11
ATOM     11  C   UNL     1      45.609   1.990   8.241  0.00  0.00    +0.000 A 
ATOM     12  C   UNL     1      45.717   3.273   7.683  0.00  0.00    +0.000 A 
ATOM     13  C   UNL     1      46.758   3.582   6.806  0.00  0.00    +0.000 A 
ATOM     14  C   UNL     1      47.702   2.611   6.479  0.00  0.00    +0.000 A 
ATOM     15  C   UNL     1      47.606   1.333   7.027  0.00  0.00    +0.000 A 
ATOM     16  C   UNL     1      46.565   1.023   7.905  0.00  0.00    +0.000 A 
ENDBRANCH  10  11
ENDBRANCH   9  10
ENDBRANCH   8   9
ENDBRANCH   5   8
ENDBRANCH   1   2
BRANCH   1  19
ATOM     17  C   UNL     1      47.930   9.457  12.409  0.00  0.00    +0.000 C 
ATOM     18  O   UNL     1      47.265  10.436  12.075  0.00  0.00    +0.000 OA
ATOM     19  N   UNL     1      47.324   8.301  12.822  0.00  0.00    +0.000 N 
ATOM     20  H   UNL     1      47.883   7.519  13.135  0.00  0.00    +0.000 HD
BRANCH  17  28
ATOM     21  C   UNL     1      50.400   8.272  14.503  0.00  0.00    +0.000 A 
ATOM     22  N   UNL     1      51.543   7.857  15.086  0.00  0.00    +0.000 NA
ATOM     23  C   UNL     1      52.697   8.117  14.464  0.00  0.00    +0.000 A 
ATOM     24  N   UNL     1      52.858   8.764  13.314  0.00  0.00    +0.000 NA
ATOM     25  C   UNL     1      51.697   9.155  12.764  0.00  0.00    +0.000 A 
ATOM     26  S   UNL     1      51.712  10.009  11.298  0.00  0.00    +0.000 S 
ATOM     27  C   UNL     1      50.015  10.098  11.275  0.00  0.00    +0.000 A 
ATOM     28  C   UNL     1      49.402   9.481  12.360  0.00  0.00    +0.000 A 
ATOM     29  C   UNL     1      50.415   8.944  13.268  0.00  0.00    +0.000 A 
BRANCH  21  31
ATOM     30  C   UNL     1      49.013   6.674  15.533  0.00  0.00    +0.000 C 
ATOM     31  O   UNL     1      49.206   8.034  15.152  0.00  0.00    +0.000 OA
ENDBRANCH  21  31
ENDBRANCH  17  28
ENDBRANCH   1  19
TORSDOF 8
ENDMDL
MODEL 9
REMARK VINA RESULT:    -6.763      4.505      9.205
REMARK INTER + INTRA:         -11.235
REMARK INTER:                 -10.151
REMARK INTRA:                  -1.084
REMARK UNBOUND:                -1.310
REMARK  Name = 
REMARK  9 active torsions:
REMARK  status: ('A' for Active; 'I' for Inactive)
REMARK    1  A    between atoms: C_1  and  O_2
REMARK    2  A    between atoms: O_2  and  C_3
REMARK    3  A    between atoms: C_10  and  C_11
REMARK    4  A    between atoms: N_13  and  C_14
REMARK    5  A    between atoms: C_14  and  C_15
REMARK    6  A    between atoms: C_18  and  C_19
REMARK    7  A    between atoms: C_19  and  O_20
REMARK    8  A    between atoms: O_20  and  C_21
REMARK    9  A    between atoms: C_21  and  C_22
REMARK                            x       y       z     vdW  Elec       q    Type
REMARK                         _______ _______ _______ _____ _____    ______ ____
ROOT
ATOM      1  C   UNL     1      47.203   3.387  16.809  0.00  0.00    +0.000 C 
ENDROOT
BRANCH   1   2
ATOM      2  C   UNL     1      48.680   3.478  17.097  0.00  0.00    +0.000 A 
ATOM      3  C   UNL     1      49.496   2.341  17.033  0.00  0.00    +0.000 A 
ATOM      4  C   UNL     1      50.852   2.417  17.370  0.00  0.00    +0.000 A 
ATOM      5  C   UNL     1      51.416   3.627  17.794  0.00  0.00    +0.000 A 
ATOM      6  C   UNL     1      50.604   4.767  17.841  0.00  0.00    +0.000 A 
ATOM      7  C   UNL     1      49.251   4.694  17.498  0.00  0.00    +0.000 A 
BRANCH   5   8
ATOM      8  C   UNL     1      52.859   3.696  18.229  0.00  0.00    +0.000 C 
BRANCH   8   9
ATOM      9  O   UNL     1      53.143   2.635  19.131  0.00  0.00    +0.000 OA
BRANCH   9  10
ATOM     10  C   UNL     1      54.534   2.316  19.137  0.00  0.00    +0.000 C 
BRANCH  10  11
ATOM     11  C   UNL     1      54.824   1.370  18.003  0.00  0.00    +0.000 A 
ATOM     12  C   UNL     1      54.383   0.040  18.067  0.00  0.00    +0.000 A 
ATOM     13  C   UNL     1      54.637  -0.844  17.017  0.00  0.00    +0.000 A 
ATOM     14  C   UNL     1      55.333  -0.406  15.892  0.00  0.00    +0.000 A 
ATOM     15  C   UNL     1      55.775   0.914  15.816  0.00  0.00    +0.000 A 
ATOM     16  C   UNL     1      55.521   1.799  16.866  0.00  0.00    +0.000 A 
ENDBRANCH  10  11
ENDBRANCH   9  10
ENDBRANCH   8   9
ENDBRANCH   5   8
ENDBRANCH   1   2
BRANCH   1  19
ATOM     17  C   UNL     1      46.819   4.170  14.505  0.00  0.00    +0.000 C 
ATOM     18  O   UNL     1      47.169   3.084  14.047  0.00  0.00    +0.000 OA
ATOM     19  N   UNL     1      46.806   4.396  15.855  0.00  0.00    +0.000 N 
ATOM     20  H   UNL     1      46.476   5.279  16.218  0.00  0.00    +0.000 HD
BRANCH  17  28
ATOM     21  C   UNL     1      43.985   4.834  12.657  0.00  0.00    +0.000 A 
ATOM     22  N   UNL     1      42.992   5.369  11.917  0.00  0.00    +0.000 NA
ATOM     23  C   UNL     1      43.190   6.574  11.373  0.00  0.00    +0.000 A 
ATOM     24  N   UNL     1      44.284   7.323  11.467  0.00  0.00    +0.000 NA
ATOM     25  C   UNL     1      45.245   6.758  12.216  0.00  0.00    +0.000 A 
ATOM     26  S   UNL     1      46.720   7.569  12.434  0.00  0.00    +0.000 S 
ATOM     27  C   UNL     1      47.316   6.322  13.424  0.00  0.00    +0.000 A 
ATOM     28  C   UNL     1      46.419   5.278  13.620  0.00  0.00    +0.000 A 
ATOM     29  C   UNL     1      45.189   5.527  12.867  0.00  0.00    +0.000 A 
BRANCH  21  31
ATOM     30  C   UNL     1      43.580   2.556  12.230  0.00  0.00    +0.000 C 
ATOM     31  O   UNL     1      43.800   3.579  13.198  0.00  0.00    +0.000 OA
ENDBRANCH  21  31
ENDBRANCH  17  28
ENDBRANCH   1  19
TORSDOF 8
ENDMDL
