MODEL 1
REMARK VINA RESULT:    -8.215      0.000      0.000
REMARK INTER + INTRA:         -12.527
REMARK INTER:                 -11.576
REMARK INTRA:                  -0.950
REMARK UNBOUND:                -0.950
REMARK  Name = 
REMARK  8 active torsions:
REMARK  status: ('A' for Active; 'I' for Inactive)
REMARK    1  A    between atoms: C_1  and  C_2
REMARK    2  A    between atoms: C_2  and  N_3
REMARK    3  A    between atoms: C_2  and  C_25
REMARK    4  A    between atoms: N_3  and  C_4
REMARK    5  A    between atoms: C_4  and  C_5
REMARK    6  A    between atoms: C_8  and  C_9
REMARK    7  A    between atoms: C_9  and  N_10
REMARK    8  A    between atoms: C_11  and  C_13
REMARK                            x       y       z     vdW  Elec       q    Type
REMARK                         _______ _______ _______ _____ _____    ______ ____
ROOT
ATOM      1  C   UNL     1      45.133   4.244  12.476  0.00  0.00    +0.000 A 
ATOM      2  C   UNL     1      45.015   5.637  12.482  0.00  0.00    +0.000 A 
ATOM      3  C   UNL     1      46.032   6.420  13.019  0.00  0.00    +0.000 A 
ATOM      4  C   UNL     1      47.158   5.789  13.539  0.00  0.00    +0.000 A 
ATOM      5  N   UNL     1      47.255   4.437  13.630  0.00  0.00    +0.000 NA
ATOM      6  C   UNL     1      46.250   3.700  13.096  0.00  0.00    +0.000 A 
ENDROOT
BRANCH   1   7
ATOM      7  C   UNL     1      44.179   3.402  11.671  0.00  0.00    +0.000 C 
BRANCH   7   8
ATOM      8  N   UNL     1      44.825   2.521  10.694  0.00  0.00    +0.000 NA
ATOM      9  H   UNL     1      44.479   1.573  10.839  0.00  0.00    +0.000 HD
BRANCH   8  11
ATOM     10  C   UNL     1      44.120   4.416   9.203  0.00  0.00    +0.000 C 
ATOM     11  C   UNL     1      44.500   2.925   9.296  0.00  0.00    +0.000 C 
BRANCH  11  12
ATOM     12  C   UNL     1      45.578   2.535   8.279  0.00  0.00    +0.000 A 
ATOM     13  C   UNL     1      45.958   3.438   7.283  0.00  0.00    +0.000 A 
ATOM     14  C   UNL     1      46.883   3.037   6.321  0.00  0.00    +0.000 A 
ATOM     15  C   UNL     1      47.423   1.759   6.384  0.00  0.00    +0.000 A 
ATOM     16  C   UNL     1      47.019   0.932   7.417  0.00  0.00    +0.000 A 
ATOM     17  N   UNL     1      46.112   1.287   8.352  0.00  0.00    +0.000 NA
ENDBRANCH  11  12
ENDBRANCH   8  11
ENDBRANCH   7   8
ENDBRANCH   1   7
BRANCH   4  18
ATOM     18  C   UNL     1      48.306   6.615  14.071  0.00  0.00    +0.000 C 
BRANCH  18  19
ATOM     19  N   UNL     1      48.304   6.590  15.512  0.00  0.00    +0.000 N 
ATOM     20  C   UNL     1      49.115   7.375  16.281  0.00  0.00    +0.000 C 
ATOM     21  O   UNL     1      49.892   8.194  15.798  0.00  0.00    +0.000 OA
ATOM     22  H   UNL     1      47.846   5.781  15.917  0.00  0.00    +0.000 HD
BRANCH  20  23
ATOM     23  C   UNL     1      48.935   7.244  17.732  0.00  0.00    +0.000 A 
ATOM     24  C   UNL     1      48.699   8.373  18.504  0.00  0.00    +0.000 A 
ATOM     25  S   UNL     1      48.405   8.024  20.148  0.00  0.00    +0.000 S 
ATOM     26  C   UNL     1      48.640   6.358  19.895  0.00  0.00    +0.000 A 
ATOM     27  N   UNL     1      48.535   5.475  20.924  0.00  0.00    +0.000 NA
ATOM     28  C   UNL     1      48.766   4.246  20.595  0.00  0.00    +0.000 A 
ATOM     29  N   UNL     1      49.094   3.824  19.333  0.00  0.00    +0.000 N 
ATOM     30  C   UNL     1      49.200   4.678  18.263  0.00  0.00    +0.000 A 
ATOM     31  O   UNL     1      49.485   4.264  17.145  0.00  0.00    +0.000 OA
ATOM     32  C   UNL     1      48.939   6.070  18.576  0.00  0.00    +0.000 A 
ATOM     33  H   UNL     1      49.269   2.848  19.140  0.00  0.00    +0.000 HD
ENDBRANCH  20  23
ENDBRANCH  18  19
ENDBRANCH   4  18
TORSDOF 7
ENDMDL
MODEL 2
REMARK VINA RESULT:    -8.107      1.712      2.159
REMARK INTER + INTRA:         -12.375
REMARK INTER:                 -11.450
REMARK INTRA:                  -0.925
REMARK UNBOUND:                -0.950
REMARK  Name = 
REMARK  8 active torsions:
REMARK  status: ('A' for Active; 'I' for Inactive)
REMARK    1  A    between atoms: C_1  and  C_2
REMARK    2  A    between atoms: C_2  and  N_3
REMARK    3  A    between atoms: C_2  and  C_25
REMARK    4  A    between atoms: N_3  and  C_4
REMARK    5  A    between atoms: C_4  and  C_5
REMARK    6  A    between atoms: C_8  and  C_9
REMARK    7  A    between atoms: C_9  and  N_10
REMARK    8  A    between atoms: C_11  and  C_13
REMARK                            x       y       z     vdW  Elec       q    Type
REMARK                         _______ _______ _______ _____ _____    ______ ____
ROOT
ATOM      1  C   UNL     1      44.302   5.892  11.497  0.00  0.00    +0.000 A 
ATOM      2  C   UNL     1      44.429   7.274  11.326  0.00  0.00    +0.000 A 
ATOM      3  C   UNL     1      45.417   7.972  12.013  0.00  0.00    +0.000 A 
ATOM      4  C   UNL     1      46.268   7.268  12.859  0.00  0.00    +0.000 A 
ATOM      5  N   UNL     1      46.106   5.944  13.113  0.00  0.00    +0.000 NA
ATOM      6  C   UNL     1      45.137   5.289  12.427  0.00  0.00    +0.000 A 
ENDROOT
BRANCH   1   7
ATOM      7  C   UNL     1      43.425   5.087  10.574  0.00  0.00    +0.000 C 
BRANCH   7   8
ATOM      8  N   UNL     1      44.087   4.643   9.345  0.00  0.00    +0.000 NA
ATOM      9  H   UNL     1      44.685   5.399   9.011  0.00  0.00    +0.000 HD
BRANCH   8  11
ATOM     10  C   UNL     1      44.164   2.311  10.275  0.00  0.00    +0.000 C 
ATOM     11  C   UNL     1      44.945   3.447   9.588  0.00  0.00    +0.000 C 
BRANCH  11  12
ATOM     12  C   UNL     1      45.693   2.967   8.339  0.00  0.00    +0.000 A 
ATOM     13  C   UNL     1      46.154   1.650   8.265  0.00  0.00    +0.000 A 
ATOM     14  C   UNL     1      46.900   1.254   7.156  0.00  0.00    +0.000 A 
ATOM     15  C   UNL     1      47.152   2.168   6.141  0.00  0.00    +0.000 A 
ATOM     16  C   UNL     1      46.638   3.445   6.274  0.00  0.00    +0.000 A 
ATOM     17  N   UNL     1      45.927   3.862   7.343  0.00  0.00    +0.000 NA
ENDBRANCH  11  12
ENDBRANCH   8  11
ENDBRANCH   7   8
ENDBRANCH   1   7
BRANCH   4  18
ATOM     18  C   UNL     1      47.390   7.990  13.569  0.00  0.00    +0.000 C 
BRANCH  18  19
ATOM     19  N   UNL     1      47.742   7.287  14.776  0.00  0.00    +0.000 N 
ATOM     20  C   UNL     1      49.015   6.895  15.077  0.00  0.00    +0.000 C 
ATOM     21  O   UNL     1      49.971   7.144  14.349  0.00  0.00    +0.000 OA
ATOM     22  H   UNL     1      46.954   6.882  15.271  0.00  0.00    +0.000 HD
BRANCH  20  23
ATOM     23  C   UNL     1      49.185   6.234  16.377  0.00  0.00    +0.000 A 
ATOM     24  C   UNL     1      49.968   6.828  17.357  0.00  0.00    +0.000 A 
ATOM     25  S   UNL     1      49.966   5.978  18.837  0.00  0.00    +0.000 S 
ATOM     26  C   UNL     1      48.966   4.758  18.200  0.00  0.00    +0.000 A 
ATOM     27  N   UNL     1      48.581   3.702  18.965  0.00  0.00    +0.000 NA
ATOM     28  C   UNL     1      47.846   2.836  18.345  0.00  0.00    +0.000 A 
ATOM     29  N   UNL     1      47.465   2.933  17.033  0.00  0.00    +0.000 N 
ATOM     30  C   UNL     1      47.820   3.987  16.227  0.00  0.00    +0.000 A 
ATOM     31  O   UNL     1      47.452   4.046  15.059  0.00  0.00    +0.000 OA
ATOM     32  C   UNL     1      48.637   4.994  16.877  0.00  0.00    +0.000 A 
ATOM     33  H   UNL     1      46.893   2.220  16.603  0.00  0.00    +0.000 HD
ENDBRANCH  20  23
ENDBRANCH  18  19
ENDBRANCH   4  18
TORSDOF 7
ENDMDL
MODEL 3
REMARK VINA RESULT:    -7.861      1.691      2.437
REMARK INTER + INTRA:         -12.027
REMARK INTER:                 -10.954
REMARK INTRA:                  -1.074
REMARK UNBOUND:                -0.950
REMARK  Name = 
REMARK  8 active torsions:
REMARK  status: ('A' for Active; 'I' for Inactive)
REMARK    1  A    between atoms: C_1  and  C_2
REMARK    2  A    between atoms: C_2  and  N_3
REMARK    3  A    between atoms: C_2  and  C_25
REMARK    4  A    between atoms: N_3  and  C_4
REMARK    5  A    between atoms: C_4  and  C_5
REMARK    6  A    between atoms: C_8  and  C_9
REMARK    7  A    between atoms: C_9  and  N_10
REMARK    8  A    between atoms: C_11  and  C_13
REMARK                            x       y       z     vdW  Elec       q    Type
REMARK                         _______ _______ _______ _____ _____    ______ ____
ROOT
ATOM      1  C   UNL     1      44.954   5.392  11.319  0.00  0.00    +0.000 A 
ATOM      2  C   UNL     1      45.082   4.959  12.643  0.00  0.00    +0.000 A 
ATOM      3  C   UNL     1      46.074   5.494  13.458  0.00  0.00    +0.000 A 
ATOM      4  C   UNL     1      46.923   6.463  12.931  0.00  0.00    +0.000 A 
ATOM      5  N   UNL     1      46.880   6.831  11.624  0.00  0.00    +0.000 NA
ATOM      6  C   UNL     1      45.901   6.295  10.854  0.00  0.00    +0.000 A 
ENDROOT
BRANCH   1   7
ATOM      7  C   UNL     1      43.738   5.027  10.511  0.00  0.00    +0.000 C 
BRANCH   7   8
ATOM      8  N   UNL     1      44.032   4.371   9.235  0.00  0.00    +0.000 NA
ATOM      9  H   UNL     1      44.524   5.036   8.638  0.00  0.00    +0.000 HD
BRANCH   8  11
ATOM     10  C   UNL     1      44.124   1.962   9.942  0.00  0.00    +0.000 C 
ATOM     11  C   UNL     1      44.912   3.181   9.423  0.00  0.00    +0.000 C 
BRANCH  11  12
ATOM     12  C   UNL     1      45.759   2.845   8.190  0.00  0.00    +0.000 A 
ATOM     13  C   UNL     1      46.328   1.576   8.060  0.00  0.00    +0.000 A 
ATOM     14  C   UNL     1      47.159   1.314   6.972  0.00  0.00    +0.000 A 
ATOM     15  C   UNL     1      47.386   2.310   6.032  0.00  0.00    +0.000 A 
ATOM     16  C   UNL     1      46.764   3.531   6.214  0.00  0.00    +0.000 A 
ATOM     17  N   UNL     1      45.968   3.819   7.267  0.00  0.00    +0.000 NA
ENDBRANCH  11  12
ENDBRANCH   8  11
ENDBRANCH   7   8
ENDBRANCH   1   7
BRANCH   4  18
ATOM     18  C   UNL     1      47.969   7.107  13.811  0.00  0.00    +0.000 C 
BRANCH  18  19
ATOM     19  N   UNL     1      47.896   6.562  15.142  0.00  0.00    +0.000 N 
ATOM     20  C   UNL     1      48.993   6.287  15.907  0.00  0.00    +0.000 C 
ATOM     21  O   UNL     1      50.137   6.515  15.525  0.00  0.00    +0.000 OA
ATOM     22  H   UNL     1      46.994   6.164  15.384  0.00  0.00    +0.000 HD
BRANCH  20  23
ATOM     23  C   UNL     1      48.716   5.782  17.257  0.00  0.00    +0.000 A 
ATOM     24  C   UNL     1      48.896   4.436  17.543  0.00  0.00    +0.000 A 
ATOM     25  S   UNL     1      48.634   4.048  19.183  0.00  0.00    +0.000 S 
ATOM     26  C   UNL     1      48.214   5.654  19.556  0.00  0.00    +0.000 A 
ATOM     27  N   UNL     1      47.868   6.009  20.822  0.00  0.00    +0.000 NA
ATOM     28  C   UNL     1      47.546   7.255  20.955  0.00  0.00    +0.000 A 
ATOM     29  N   UNL     1      47.538   8.172  19.939  0.00  0.00    +0.000 N 
ATOM     30  C   UNL     1      47.891   7.862  18.648  0.00  0.00    +0.000 A 
ATOM     31  O   UNL     1      47.883   8.711  17.764  0.00  0.00    +0.000 OA
ATOM     32  C   UNL     1      48.273   6.476  18.445  0.00  0.00    +0.000 A 
ATOM     33  H   UNL     1      47.271   9.132  20.105  0.00  0.00    +0.000 HD
ENDBRANCH  20  23
ENDBRANCH  18  19
ENDBRANCH   4  18
TORSDOF 7
ENDMDL
MODEL 4
REMARK VINA RESULT:    -7.844      2.514      3.273
REMARK INTER + INTRA:         -12.004
REMARK INTER:                 -11.231
REMARK INTRA:                  -0.772
REMARK UNBOUND:                -0.950
REMARK  Name = 
REMARK  8 active torsions:
REMARK  status: ('A' for Active; 'I' for Inactive)
REMARK    1  A    between atoms: C_1  and  C_2
REMARK    2  A    between atoms: C_2  and  N_3
REMARK    3  A    between atoms: C_2  and  C_25
REMARK    4  A    between atoms: N_3  and  C_4
REMARK    5  A    between atoms: C_4  and  C_5
REMARK    6  A    between atoms: C_8  and  C_9
REMARK    7  A    between atoms: C_9  and  N_10
REMARK    8  A    between atoms: C_11  and  C_13
REMARK                            x       y       z     vdW  Elec       q    Type
REMARK                         _______ _______ _______ _____ _____    ______ ____
ROOT
ATOM      1  C   UNL     1      46.365   4.373  13.407  0.00  0.00    +0.000 A 
ATOM      2  C   UNL     1      46.722   5.623  12.891  0.00  0.00    +0.000 A 
ATOM      3  C   UNL     1      47.559   6.463  13.619  0.00  0.00    +0.000 A 
ATOM      4  C   UNL     1      48.028   6.032  14.856  0.00  0.00    +0.000 A 
ATOM      5  N   UNL     1      47.622   4.866  15.419  0.00  0.00    +0.000 NA
ATOM      6  C   UNL     1      46.809   4.065  14.686  0.00  0.00    +0.000 A 
ENDROOT
BRANCH   1   7
ATOM      7  C   UNL     1      45.688   3.352  12.532  0.00  0.00    +0.000 C 
BRANCH   7   8
ATOM      8  N   UNL     1      44.229   3.320  12.656  0.00  0.00    +0.000 NA
ATOM      9  H   UNL     1      43.953   3.997  13.367  0.00  0.00    +0.000 HD
BRANCH   8  11
ATOM     10  C   UNL     1      43.013   5.135  11.415  0.00  0.00    +0.000 C 
ATOM     11  C   UNL     1      43.564   3.696  11.375  0.00  0.00    +0.000 C 
BRANCH  11  12
ATOM     12  C   UNL     1      44.430   3.438  10.136  0.00  0.00    +0.000 A 
ATOM     13  C   UNL     1      44.981   4.513   9.435  0.00  0.00    +0.000 A 
ATOM     14  C   UNL     1      45.701   4.262   8.267  0.00  0.00    +0.000 A 
ATOM     15  C   UNL     1      45.871   2.953   7.838  0.00  0.00    +0.000 A 
ATOM     16  C   UNL     1      45.320   1.941   8.603  0.00  0.00    +0.000 A 
ATOM     17  N   UNL     1      44.604   2.153   9.728  0.00  0.00    +0.000 NA
ENDBRANCH  11  12
ENDBRANCH   8  11
ENDBRANCH   7   8
ENDBRANCH   1   7
BRANCH   4  18
ATOM     18  C   UNL     1      48.987   6.897  15.640  0.00  0.00    +0.000 C 
BRANCH  18  19
ATOM     19  N   UNL     1      50.053   6.090  16.177  0.00  0.00    +0.000 N 
ATOM     20  C   UNL     1      50.062   5.603  17.452  0.00  0.00    +0.000 C 
ATOM     21  O   UNL     1      49.136   5.790  18.237  0.00  0.00    +0.000 OA
ATOM     22  H   UNL     1      50.910   6.113  15.634  0.00  0.00    +0.000 HD
BRANCH  20  23
ATOM     23  C   UNL     1      51.211   4.758  17.802  0.00  0.00    +0.000 A 
ATOM     24  C   UNL     1      52.348   5.332  18.354  0.00  0.00    +0.000 A 
ATOM     25  S   UNL     1      53.538   4.192  18.797  0.00  0.00    +0.000 S 
ATOM     26  C   UNL     1      52.598   2.899  18.214  0.00  0.00    +0.000 A 
ATOM     27  N   UNL     1      53.051   1.619  18.287  0.00  0.00    +0.000 NA
ATOM     28  C   UNL     1      52.248   0.741  17.780  0.00  0.00    +0.000 A 
ATOM     29  N   UNL     1      51.038   1.029  17.208  0.00  0.00    +0.000 N 
ATOM     30  C   UNL     1      50.535   2.305  17.122  0.00  0.00    +0.000 A 
ATOM     31  O   UNL     1      49.442   2.525  16.612  0.00  0.00    +0.000 OA
ATOM     32  C   UNL     1      51.394   3.329  17.687  0.00  0.00    +0.000 A 
ATOM     33  H   UNL     1      50.456   0.298  16.823  0.00  0.00    +0.000 HD
ENDBRANCH  20  23
ENDBRANCH  18  19
ENDBRANCH   4  18
TORSDOF 7
ENDMDL
MODEL 5
REMARK VINA RESULT:    -7.531      3.283      9.046
REMARK INTER + INTRA:         -11.563
REMARK INTER:                 -10.152
REMARK INTRA:                  -1.411
REMARK UNBOUND:                -0.950
REMARK  Name = 
REMARK  8 active torsions:
REMARK  status: ('A' for Active; 'I' for Inactive)
REMARK    1  A    between atoms: C_1  and  C_2
REMARK    2  A    between atoms: C_2  and  N_3
REMARK    3  A    between atoms: C_2  and  C_25
REMARK    4  A    between atoms: N_3  and  C_4
REMARK    5  A    between atoms: C_4  and  C_5
REMARK    6  A    between atoms: C_8  and  C_9
REMARK    7  A    between atoms: C_9  and  N_10
REMARK    8  A    between atoms: C_11  and  C_13
REMARK                            x       y       z     vdW  Elec       q    Type
REMARK                         _______ _______ _______ _____ _____    ______ ____
ROOT
ATOM      1  C   UNL     1      48.836   7.880  16.093  0.00  0.00    +0.000 A 
ATOM      2  C   UNL     1      48.408   9.067  15.488  0.00  0.00    +0.000 A 
ATOM      3  C   UNL     1      47.961   9.055  14.171  0.00  0.00    +0.000 A 
ATOM      4  C   UNL     1      47.948   7.847  13.480  0.00  0.00    +0.000 A 
ATOM      5  N   UNL     1      48.445   6.701  14.013  0.00  0.00    +0.000 NA
ATOM      6  C   UNL     1      48.870   6.742  15.300  0.00  0.00    +0.000 A 
ENDROOT
BRANCH   1   7
ATOM      7  C   UNL     1      49.067   7.823  17.579  0.00  0.00    +0.000 C 
BRANCH   7   8
ATOM      8  N   UNL     1      47.898   7.406  18.358  0.00  0.00    +0.000 NA
ATOM      9  H   UNL     1      47.152   7.159  17.709  0.00  0.00    +0.000 HD
BRANCH   8  11
ATOM     10  C   UNL     1      47.281   6.127  20.431  0.00  0.00    +0.000 C 
ATOM     11  C   UNL     1      48.199   6.208  19.196  0.00  0.00    +0.000 C 
BRANCH  11  12
ATOM     12  C   UNL     1      48.226   4.897  18.402  0.00  0.00    +0.000 A 
ATOM     13  C   UNL     1      49.411   4.163  18.307  0.00  0.00    +0.000 A 
ATOM     14  C   UNL     1      49.436   3.015  17.517  0.00  0.00    +0.000 A 
ATOM     15  C   UNL     1      48.281   2.614  16.859  0.00  0.00    +0.000 A 
ATOM     16  C   UNL     1      47.139   3.378  17.025  0.00  0.00    +0.000 A 
ATOM     17  N   UNL     1      47.089   4.503  17.769  0.00  0.00    +0.000 NA
ENDBRANCH  11  12
ENDBRANCH   8  11
ENDBRANCH   7   8
ENDBRANCH   1   7
BRANCH   4  18
ATOM     18  C   UNL     1      47.410   7.793  12.069  0.00  0.00    +0.000 C 
BRANCH  18  19
ATOM     19  N   UNL     1      46.720   6.547  11.852  0.00  0.00    +0.000 N 
ATOM     20  C   UNL     1      45.363   6.445  11.743  0.00  0.00    +0.000 C 
ATOM     21  O   UNL     1      44.622   7.423  11.789  0.00  0.00    +0.000 OA
ATOM     22  H   UNL     1      47.280   5.721  12.033  0.00  0.00    +0.000 HD
BRANCH  20  23
ATOM     23  C   UNL     1      44.847   5.097  11.474  0.00  0.00    +0.000 A 
ATOM     24  C   UNL     1      44.146   4.416  12.459  0.00  0.00    +0.000 A 
ATOM     25  S   UNL     1      43.528   2.913  11.938  0.00  0.00    +0.000 S 
ATOM     26  C   UNL     1      44.225   3.096  10.397  0.00  0.00    +0.000 A 
ATOM     27  N   UNL     1      44.075   2.136   9.445  0.00  0.00    +0.000 NA
ATOM     28  C   UNL     1      44.681   2.393   8.331  0.00  0.00    +0.000 A 
ATOM     29  N   UNL     1      45.421   3.519   8.087  0.00  0.00    +0.000 N 
ATOM     30  C   UNL     1      45.589   4.519   9.013  0.00  0.00    +0.000 A 
ATOM     31  O   UNL     1      46.250   5.520   8.757  0.00  0.00    +0.000 OA
ATOM     32  C   UNL     1      44.920   4.286  10.279  0.00  0.00    +0.000 A 
ATOM     33  H   UNL     1      45.876   3.660   7.196  0.00  0.00    +0.000 HD
ENDBRANCH  20  23
ENDBRANCH  18  19
ENDBRANCH   4  18
TORSDOF 7
ENDMDL
MODEL 6
REMARK VINA RESULT:    -7.088      1.921      2.317
REMARK INTER + INTRA:         -10.939
REMARK INTER:                  -9.941
REMARK INTRA:                  -0.998
REMARK UNBOUND:                -0.950
REMARK  Name = 
REMARK  8 active torsions:
REMARK  status: ('A' for Active; 'I' for Inactive)
REMARK    1  A    between atoms: C_1  and  C_2
REMARK    2  A    between atoms: C_2  and  N_3
REMARK    3  A    between atoms: C_2  and  C_25
REMARK    4  A    between atoms: N_3  and  C_4
REMARK    5  A    between atoms: C_4  and  C_5
REMARK    6  A    between atoms: C_8  and  C_9
REMARK    7  A    between atoms: C_9  and  N_10
REMARK    8  A    between atoms: C_11  and  C_13
REMARK                            x       y       z     vdW  Elec       q    Type
REMARK                         _______ _______ _______ _____ _____    ______ ____
ROOT
ATOM      1  C   UNL     1      45.870   4.673  12.678  0.00  0.00    +0.000 A 
ATOM      2  C   UNL     1      46.443   4.301  13.898  0.00  0.00    +0.000 A 
ATOM      3  C   UNL     1      47.398   5.117  14.496  0.00  0.00    +0.000 A 
ATOM      4  C   UNL     1      47.760   6.300  13.861  0.00  0.00    +0.000 A 
ATOM      5  N   UNL     1      47.288   6.637  12.633  0.00  0.00    +0.000 NA
ATOM      6  C   UNL     1      46.357   5.825  12.075  0.00  0.00    +0.000 A 
ENDROOT
BRANCH   1   7
ATOM      7  C   UNL     1      44.659   3.950  12.152  0.00  0.00    +0.000 C 
BRANCH   7   8
ATOM      8  N   UNL     1      44.959   2.879  11.200  0.00  0.00    +0.000 NA
ATOM      9  H   UNL     1      44.540   2.016  11.545  0.00  0.00    +0.000 HD
BRANCH   8  11
ATOM     10  C   UNL     1      43.761   4.575   9.786  0.00  0.00    +0.000 C 
ATOM     11  C   UNL     1      44.383   3.167   9.854  0.00  0.00    +0.000 C 
BRANCH  11  12
ATOM     12  C   UNL     1      45.360   2.906   8.702  0.00  0.00    +0.000 A 
ATOM     13  C   UNL     1      45.907   1.633   8.527  0.00  0.00    +0.000 A 
ATOM     14  C   UNL     1      46.853   1.434   7.522  0.00  0.00    +0.000 A 
ATOM     15  C   UNL     1      47.215   2.496   6.705  0.00  0.00    +0.000 A 
ATOM     16  C   UNL     1      46.607   3.720   6.921  0.00  0.00    +0.000 A 
ATOM     17  N   UNL     1      45.702   3.947   7.897  0.00  0.00    +0.000 NA
ENDBRANCH  11  12
ENDBRANCH   8  11
ENDBRANCH   7   8
ENDBRANCH   1   7
BRANCH   4  18
ATOM     18  C   UNL     1      48.748   7.236  14.518  0.00  0.00    +0.000 C 
BRANCH  18  19
ATOM     19  N   UNL     1      49.249   6.648  15.734  0.00  0.00    +0.000 N 
ATOM     20  C   UNL     1      49.067   7.202  16.969  0.00  0.00    +0.000 C 
ATOM     21  O   UNL     1      48.427   8.235  17.142  0.00  0.00    +0.000 OA
ATOM     22  H   UNL     1      49.956   5.934  15.595  0.00  0.00    +0.000 HD
BRANCH  20  23
ATOM     23  C   UNL     1      49.608   6.431  18.096  0.00  0.00    +0.000 A 
ATOM     24  C   UNL     1      48.842   6.248  19.239  0.00  0.00    +0.000 A 
ATOM     25  S   UNL     1      49.582   5.239  20.399  0.00  0.00    +0.000 S 
ATOM     26  C   UNL     1      50.975   5.060  19.438  0.00  0.00    +0.000 A 
ATOM     27  N   UNL     1      52.023   4.304  19.862  0.00  0.00    +0.000 NA
ATOM     28  C   UNL     1      53.026   4.279  19.046  0.00  0.00    +0.000 A 
ATOM     29  N   UNL     1      53.074   4.942  17.848  0.00  0.00    +0.000 N 
ATOM     30  C   UNL     1      52.035   5.707  17.375  0.00  0.00    +0.000 A 
ATOM     31  O   UNL     1      52.109   6.279  16.292  0.00  0.00    +0.000 OA
ATOM     32  C   UNL     1      50.879   5.759  18.249  0.00  0.00    +0.000 A 
ATOM     33  H   UNL     1      53.890   4.888  17.255  0.00  0.00    +0.000 HD
ENDBRANCH  20  23
ENDBRANCH  18  19
ENDBRANCH   4  18
TORSDOF 7
ENDMDL
MODEL 7
REMARK VINA RESULT:    -6.769      2.577      3.413
REMARK INTER + INTRA:         -10.490
REMARK INTER:                  -9.132
REMARK INTRA:                  -1.357
REMARK UNBOUND:                -0.950
REMARK  Name = 
REMARK  8 active torsions:
REMARK  status: ('A' for Active; 'I' for Inactive)
REMARK    1  A    between atoms: C_1  and  C_2
REMARK    2  A    between atoms: C_2  and  N_3
REMARK    3  A    between atoms: C_2  and  C_25
REMARK    4  A    between atoms: N_3  and  C_4
REMARK    5  A    between atoms: C_4  and  C_5
REMARK    6  A    between atoms: C_8  and  C_9
REMARK    7  A    between atoms: C_9  and  N_10
REMARK    8  A    between atoms: C_11  and  C_13
REMARK                            x       y       z     vdW  Elec       q    Type
REMARK                         _______ _______ _______ _____ _____    ______ ____
ROOT
ATOM      1  C   UNL     1      45.871   6.784  12.832  0.00  0.00    +0.000 A 
ATOM      2  C   UNL     1      47.000   5.985  12.624  0.00  0.00    +0.000 A 
ATOM      3  C   UNL     1      48.273   6.536  12.737  0.00  0.00    +0.000 A 
ATOM      4  C   UNL     1      48.392   7.884  13.062  0.00  0.00    +0.000 A 
ATOM      5  N   UNL     1      47.313   8.700  13.176  0.00  0.00    +0.000 NA
ATOM      6  C   UNL     1      46.086   8.136  13.064  0.00  0.00    +0.000 A 
ENDROOT
BRANCH   1   7
ATOM      7  C   UNL     1      44.510   6.157  12.975  0.00  0.00    +0.000 C 
BRANCH   7   8
ATOM      8  N   UNL     1      44.499   4.698  12.847  0.00  0.00    +0.000 NA
ATOM      9  H   UNL     1      44.156   4.302  13.722  0.00  0.00    +0.000 HD
BRANCH   8  11
ATOM     10  C   UNL     1      42.498   5.298  11.452  0.00  0.00    +0.000 C 
ATOM     11  C   UNL     1      43.590   4.253  11.750  0.00  0.00    +0.000 C 
BRANCH  11  12
ATOM     12  C   UNL     1      44.331   3.807  10.485  0.00  0.00    +0.000 A 
ATOM     13  C   UNL     1      45.009   4.747   9.705  0.00  0.00    +0.000 A 
ATOM     14  C   UNL     1      45.611   4.336   8.517  0.00  0.00    +0.000 A 
ATOM     15  C   UNL     1      45.542   3.000   8.144  0.00  0.00    +0.000 A 
ATOM     16  C   UNL     1      44.879   2.124   8.984  0.00  0.00    +0.000 A 
ATOM     17  N   UNL     1      44.272   2.496  10.131  0.00  0.00    +0.000 NA
ENDBRANCH  11  12
ENDBRANCH   8  11
ENDBRANCH   7   8
ENDBRANCH   1   7
BRANCH   4  18
ATOM     18  C   UNL     1      49.761   8.494  13.252  0.00  0.00    +0.000 C 
BRANCH  18  19
ATOM     19  N   UNL     1      50.568   7.643  14.089  0.00  0.00    +0.000 N 
ATOM     20  C   UNL     1      51.464   8.115  15.005  0.00  0.00    +0.000 C 
ATOM     21  O   UNL     1      51.628   9.315  15.210  0.00  0.00    +0.000 OA
ATOM     22  H   UNL     1      50.612   6.676  13.785  0.00  0.00    +0.000 HD
BRANCH  20  23
ATOM     23  C   UNL     1      52.158   7.094  15.800  0.00  0.00    +0.000 A 
ATOM     24  C   UNL     1      53.544   7.016  15.766  0.00  0.00    +0.000 A 
ATOM     25  S   UNL     1      54.184   5.847  16.831  0.00  0.00    +0.000 S 
ATOM     26  C   UNL     1      52.630   5.367  17.330  0.00  0.00    +0.000 A 
ATOM     27  N   UNL     1      52.467   4.378  18.249  0.00  0.00    +0.000 NA
ATOM     28  C   UNL     1      51.233   4.096  18.514  0.00  0.00    +0.000 A 
ATOM     29  N   UNL     1      50.152   4.713  17.943  0.00  0.00    +0.000 N 
ATOM     30  C   UNL     1      50.268   5.724  17.020  0.00  0.00    +0.000 A 
ATOM     31  O   UNL     1      49.278   6.261  16.536  0.00  0.00    +0.000 OA
ATOM     32  C   UNL     1      51.635   6.087  16.695  0.00  0.00    +0.000 A 
ATOM     33  H   UNL     1      49.209   4.444  18.187  0.00  0.00    +0.000 HD
ENDBRANCH  20  23
ENDBRANCH  18  19
ENDBRANCH   4  18
TORSDOF 7
ENDMDL
MODEL 8
REMARK VINA RESULT:    -6.466      3.619      8.503
REMARK INTER + INTRA:         -10.062
REMARK INTER:                  -9.086
REMARK INTRA:                  -0.976
REMARK UNBOUND:                -0.950
REMARK  Name = 
REMARK  8 active torsions:
REMARK  status: ('A' for Active; 'I' for Inactive)
REMARK    1  A    between atoms: C_1  and  C_2
REMARK    2  A    between atoms: C_2  and  N_3
REMARK    3  A    between atoms: C_2  and  C_25
REMARK    4  A    between atoms: N_3  and  C_4
REMARK    5  A    between atoms: C_4  and  C_5
REMARK    6  A    between atoms: C_8  and  C_9
REMARK    7  A    between atoms: C_9  and  N_10
REMARK    8  A    between atoms: C_11  and  C_13
REMARK                            x       y       z     vdW  Elec       q    Type
REMARK                         _______ _______ _______ _____ _____    ______ ____
ROOT
ATOM      1  C   UNL     1      49.294   7.757  17.918  0.00  0.00    +0.000 A 
ATOM      2  C   UNL     1      50.103   7.030  17.038  0.00  0.00    +0.000 A 
ATOM      3  C   UNL     1      49.988   7.225  15.666  0.00  0.00    +0.000 A 
ATOM      4  C   UNL     1      49.064   8.153  15.196  0.00  0.00    +0.000 A 
ATOM      5  N   UNL     1      48.203   8.801  16.023  0.00  0.00    +0.000 NA
ATOM      6  C   UNL     1      48.340   8.594  17.356  0.00  0.00    +0.000 A 
ENDROOT
BRANCH   1   7
ATOM      7  C   UNL     1      49.583   7.758  19.395  0.00  0.00    +0.000 C 
BRANCH   7   8
ATOM      8  N   UNL     1      49.924   6.444  19.946  0.00  0.00    +0.000 NA
ATOM      9  H   UNL     1      50.337   6.580  20.868  0.00  0.00    +0.000 HD
BRANCH   8  11
ATOM     10  C   UNL     1      47.463   6.417  20.451  0.00  0.00    +0.000 C 
ATOM     11  C   UNL     1      48.713   5.586  20.103  0.00  0.00    +0.000 C 
BRANCH  11  12
ATOM     12  C   UNL     1      48.474   4.643  18.918  0.00  0.00    +0.000 A 
ATOM     13  C   UNL     1      49.462   3.728  18.545  0.00  0.00    +0.000 A 
ATOM     14  C   UNL     1      49.258   2.933  17.418  0.00  0.00    +0.000 A 
ATOM     15  C   UNL     1      48.073   3.051  16.704  0.00  0.00    +0.000 A 
ATOM     16  C   UNL     1      47.131   3.959  17.154  0.00  0.00    +0.000 A 
ATOM     17  N   UNL     1      47.307   4.755  18.230  0.00  0.00    +0.000 NA
ENDBRANCH  11  12
ENDBRANCH   8  11
ENDBRANCH   7   8
ENDBRANCH   1   7
BRANCH   4  18
ATOM     18  C   UNL     1      48.961   8.430  13.714  0.00  0.00    +0.000 C 
BRANCH  18  19
ATOM     19  N   UNL     1      47.706   7.938  13.206  0.00  0.00    +0.000 N 
ATOM     20  C   UNL     1      47.506   6.646  12.813  0.00  0.00    +0.000 C 
ATOM     21  O   UNL     1      48.380   5.788  12.894  0.00  0.00    +0.000 OA
ATOM     22  H   UNL     1      47.054   8.663  12.925  0.00  0.00    +0.000 HD
BRANCH  20  23
ATOM     23  C   UNL     1      46.144   6.321  12.369  0.00  0.00    +0.000 A 
ATOM     24  C   UNL     1      45.344   7.309  11.814  0.00  0.00    +0.000 A 
ATOM     25  S   UNL     1      43.838   6.732  11.256  0.00  0.00    +0.000 S 
ATOM     26  C   UNL     1      44.182   5.153  11.791  0.00  0.00    +0.000 A 
ATOM     27  N   UNL     1      43.282   4.148  11.620  0.00  0.00    +0.000 NA
ATOM     28  C   UNL     1      43.662   3.008  12.098  0.00  0.00    +0.000 A 
ATOM     29  N   UNL     1      44.856   2.786  12.731  0.00  0.00    +0.000 N 
ATOM     30  C   UNL     1      45.799   3.768  12.916  0.00  0.00    +0.000 A 
ATOM     31  O   UNL     1      46.862   3.531  13.478  0.00  0.00    +0.000 OA
ATOM     32  C   UNL     1      45.427   5.066  12.386  0.00  0.00    +0.000 A 
ATOM     33  H   UNL     1      45.094   1.871  13.090  0.00  0.00    +0.000 HD
ENDBRANCH  20  23
ENDBRANCH  18  19
ENDBRANCH   4  18
TORSDOF 7
ENDMDL
MODEL 9
REMARK VINA RESULT:    -6.236      3.181      4.733
REMARK INTER + INTRA:          -9.738
REMARK INTER:                  -8.642
REMARK INTRA:                  -1.096
REMARK UNBOUND:                -0.950
REMARK  Name = 
REMARK  8 active torsions:
REMARK  status: ('A' for Active; 'I' for Inactive)
REMARK    1  A    between atoms: C_1  and  C_2
REMARK    2  A    between atoms: C_2  and  N_3
REMARK    3  A    between atoms: C_2  and  C_25
REMARK    4  A    between atoms: N_3  and  C_4
REMARK    5  A    between atoms: C_4  and  C_5
REMARK    6  A    between atoms: C_8  and  C_9
REMARK    7  A    between atoms: C_9  and  N_10
REMARK    8  A    between atoms: C_11  and  C_13
REMARK                            x       y       z     vdW  Elec       q    Type
REMARK                         _______ _______ _______ _____ _____    ______ ____
ROOT
ATOM      1  C   UNL     1      48.146   7.693  13.457  0.00  0.00    +0.000 A 
ATOM      2  C   UNL     1      47.875   8.829  14.228  0.00  0.00    +0.000 A 
ATOM      3  C   UNL     1      48.315   8.898  15.545  0.00  0.00    +0.000 A 
ATOM      4  C   UNL     1      49.026   7.824  16.070  0.00  0.00    +0.000 A 
ATOM      5  N   UNL     1      49.221   6.674  15.375  0.00  0.00    +0.000 NA
ATOM      6  C   UNL     1      48.784   6.636  14.092  0.00  0.00    +0.000 A 
ENDROOT
BRANCH   1   7
ATOM      7  C   UNL     1      47.915   7.708  11.970  0.00  0.00    +0.000 C 
BRANCH   7   8
ATOM      8  N   UNL     1      47.069   6.618  11.478  0.00  0.00    +0.000 NA
ATOM      9  H   UNL     1      47.483   5.734  11.770  0.00  0.00    +0.000 HD
BRANCH   8  11
ATOM     10  C   UNL     1      44.919   7.918  11.514  0.00  0.00    +0.000 C 
ATOM     11  C   UNL     1      45.692   6.696  12.047  0.00  0.00    +0.000 C 
BRANCH  11  12
ATOM     12  C   UNL     1      44.896   5.394  11.902  0.00  0.00    +0.000 A 
ATOM     13  C   UNL     1      44.850   4.738  10.670  0.00  0.00    +0.000 A 
ATOM     14  C   UNL     1      44.058   3.599  10.537  0.00  0.00    +0.000 A 
ATOM     15  C   UNL     1      43.348   3.129  11.634  0.00  0.00    +0.000 A 
ATOM     16  C   UNL     1      43.468   3.817  12.829  0.00  0.00    +0.000 A 
ATOM     17  N   UNL     1      44.213   4.932  12.983  0.00  0.00    +0.000 NA
ENDBRANCH  11  12
ENDBRANCH   8  11
ENDBRANCH   7   8
ENDBRANCH   1   7
BRANCH   4  18
ATOM     18  C   UNL     1      49.571   7.896  17.478  0.00  0.00    +0.000 C 
BRANCH  18  19
ATOM     19  N   UNL     1      50.521   6.836  17.694  0.00  0.00    +0.000 N 
ATOM     20  C   UNL     1      50.419   5.926  18.708  0.00  0.00    +0.000 C 
ATOM     21  O   UNL     1      49.481   5.924  19.500  0.00  0.00    +0.000 OA
ATOM     22  H   UNL     1      51.401   6.954  17.203  0.00  0.00    +0.000 HD
BRANCH  20  23
ATOM     23  C   UNL     1      51.457   4.888  18.737  0.00  0.00    +0.000 A 
ATOM     24  C   UNL     1      52.657   5.129  19.393  0.00  0.00    +0.000 A 
ATOM     25  S   UNL     1      53.700   3.779  19.420  0.00  0.00    +0.000 S 
ATOM     26  C   UNL     1      52.608   2.846  18.507  0.00  0.00    +0.000 A 
ATOM     27  N   UNL     1      52.902   1.562  18.169  0.00  0.00    +0.000 NA
ATOM     28  C   UNL     1      51.997   0.981  17.450  0.00  0.00    +0.000 A 
ATOM     29  N   UNL     1      50.829   1.569  17.041  0.00  0.00    +0.000 N 
ATOM     30  C   UNL     1      50.486   2.858  17.369  0.00  0.00    +0.000 A 
ATOM     31  O   UNL     1      49.427   3.349  16.994  0.00  0.00    +0.000 OA
ATOM     32  C   UNL     1      51.464   3.553  18.185  0.00  0.00    +0.000 A 
ATOM     33  H   UNL     1      50.162   1.064  16.476  0.00  0.00    +0.000 HD
ENDBRANCH  20  23
ENDBRANCH  18  19
ENDBRANCH   4  18
TORSDOF 7
ENDMDL
