MODEL 1
REMARK VINA RESULT:    -7.791      0.000      0.000
REMARK INTER + INTRA:         -10.885
REMARK INTER:                 -10.296
REMARK INTRA:                  -0.588
REMARK UNBOUND:                -0.588
REMARK  Name = 
REMARK  6 active torsions:
REMARK  status: ('A' for Active; 'I' for Inactive)
REMARK    1  A    between atoms: N_1  and  C_2
REMARK    2  A    between atoms: C_2  and  C_3
REMARK    3  A    between atoms: C_6  and  O_7
REMARK    4  A    between atoms: O_7  and  C_8
REMARK    5  A    between atoms: C_8  and  C_9
REMARK    6  A    between atoms: C_12  and  C_13
REMARK                            x       y       z     vdW  Elec       q    Type
REMARK                         _______ _______ _______ _____ _____    ______ ____
ROOT
ATOM      1  C   UNL     1      43.701   3.861  10.652  0.00  0.00    +0.000 C 
ENDROOT
BRANCH   1   2
ATOM      2  C   UNL     1      44.618   3.412   9.532  0.00  0.00    +0.000 A 
ATOM      3  C   UNL     1      45.231   4.388   8.728  0.00  0.00    +0.000 A 
ATOM      4  C   UNL     1      46.145   4.024   7.737  0.00  0.00    +0.000 A 
ATOM      5  C   UNL     1      46.477   2.680   7.547  0.00  0.00    +0.000 A 
ATOM      6  C   UNL     1      45.869   1.699   8.341  0.00  0.00    +0.000 A 
ATOM      7  C   UNL     1      44.950   2.065   9.333  0.00  0.00    +0.000 A 
BRANCH   5   8
ATOM      8  C   UNL     1      47.465   2.347   6.487  0.00  0.00    +0.000 C 
ATOM      9  N   UNL     1      47.420   3.078   5.333  0.00  0.00    +0.000 N 
ATOM     10  O   UNL     1      48.264   1.429   6.616  0.00  0.00    +0.000 OA
ATOM     11  H   UNL     1      46.633   3.662   5.089  0.00  0.00    +0.000 HD
ATOM     12  H   UNL     1      48.020   2.759   4.583  0.00  0.00    +0.000 HD
ENDBRANCH   5   8
ENDBRANCH   1   2
BRANCH   1  13
ATOM     13  O   UNL     1      44.079   3.310  11.917  0.00  0.00    +0.000 OA
BRANCH  13  17
ATOM     14  C   UNL     1      47.060   5.597  13.636  0.00  0.00    +0.000 A 
ATOM     15  C   UNL     1      46.035   6.213  12.914  0.00  0.00    +0.000 A 
ATOM     16  C   UNL     1      45.028   5.434  12.338  0.00  0.00    +0.000 A 
ATOM     17  C   UNL     1      45.080   4.061  12.510  0.00  0.00    +0.000 A 
ATOM     18  N   UNL     1      46.047   3.435  13.214  0.00  0.00    +0.000 NA
ATOM     19  C   UNL     1      47.010   4.212  13.755  0.00  0.00    +0.000 A 
BRANCH  14  20
ATOM     20  C   UNL     1      48.174   6.376  14.274  0.00  0.00    +0.000 C 
BRANCH  20  21
ATOM     21  N   UNL     1      49.251   6.631  13.327  0.00  0.00    +0.000 NA
ATOM     22  H   UNL     1      50.032   6.009  13.526  0.00  0.00    +0.000 HD
ATOM     23  H   UNL     1      49.599   7.580  13.463  0.00  0.00    +0.000 HD
ENDBRANCH  20  21
ENDBRANCH  14  20
ENDBRANCH  13  17
ENDBRANCH   1  13
TORSDOF 6
ENDMDL
MODEL 2
REMARK VINA RESULT:    -7.495      2.022      6.275
REMARK INTER + INTRA:         -10.493
REMARK INTER:                  -9.991
REMARK INTRA:                  -0.501
REMARK UNBOUND:                -0.588
REMARK  Name = 
REMARK  6 active torsions:
REMARK  status: ('A' for Active; 'I' for Inactive)
REMARK    1  A    between atoms: N_1  and  C_2
REMARK    2  A    between atoms: C_2  and  C_3
REMARK    3  A    between atoms: C_6  and  O_7
REMARK    4  A    between atoms: O_7  and  C_8
REMARK    5  A    between atoms: C_8  and  C_9
REMARK    6  A    between atoms: C_12  and  C_13
REMARK                            x       y       z     vdW  Elec       q    Type
REMARK                         _______ _______ _______ _____ _____    ______ ____
ROOT
ATOM      1  C   UNL     1      43.781   4.239  10.719  0.00  0.00    +0.000 C 
ENDROOT
BRANCH   1   2
ATOM      2  C   UNL     1      44.924   4.836  11.513  0.00  0.00    +0.000 A 
ATOM      3  C   UNL     1      45.455   4.106  12.589  0.00  0.00    +0.000 A 
ATOM      4  C   UNL     1      46.560   4.581  13.298  0.00  0.00    +0.000 A 
ATOM      5  C   UNL     1      47.166   5.786  12.930  0.00  0.00    +0.000 A 
ATOM      6  C   UNL     1      46.642   6.524  11.861  0.00  0.00    +0.000 A 
ATOM      7  C   UNL     1      45.532   6.047  11.152  0.00  0.00    +0.000 A 
BRANCH   5   8
ATOM      8  C   UNL     1      48.347   6.241  13.709  0.00  0.00    +0.000 C 
ATOM      9  N   UNL     1      49.344   6.880  13.026  0.00  0.00    +0.000 N 
ATOM     10  O   UNL     1      48.452   6.019  14.909  0.00  0.00    +0.000 OA
ATOM     11  H   UNL     1      49.413   6.860  12.020  0.00  0.00    +0.000 HD
ATOM     12  H   UNL     1      50.187   7.075  13.552  0.00  0.00    +0.000 HD
ENDBRANCH   5   8
ENDBRANCH   1   2
BRANCH   1  13
ATOM     13  O   UNL     1      43.876   4.537   9.322  0.00  0.00    +0.000 OA
BRANCH  13  17
ATOM     14  C   UNL     1      46.767   2.176   7.551  0.00  0.00    +0.000 A 
ATOM     15  C   UNL     1      45.833   1.604   8.419  0.00  0.00    +0.000 A 
ATOM     16  C   UNL     1      44.856   2.408   9.012  0.00  0.00    +0.000 A 
ATOM     17  C   UNL     1      44.844   3.759   8.711  0.00  0.00    +0.000 A 
ATOM     18  N   UNL     1      45.721   4.340   7.865  0.00  0.00    +0.000 NA
ATOM     19  C   UNL     1      46.658   3.541   7.310  0.00  0.00    +0.000 A 
BRANCH  14  20
ATOM     20  C   UNL     1      47.844   1.369   6.885  0.00  0.00    +0.000 C 
BRANCH  20  21
ATOM     21  N   UNL     1      48.334   2.031   5.683  0.00  0.00    +0.000 NA
ATOM     22  H   UNL     1      49.317   2.265   5.801  0.00  0.00    +0.000 HD
ATOM     23  H   UNL     1      47.841   2.916   5.562  0.00  0.00    +0.000 HD
ENDBRANCH  20  21
ENDBRANCH  14  20
ENDBRANCH  13  17
ENDBRANCH   1  13
TORSDOF 6
ENDMDL
MODEL 3
REMARK VINA RESULT:    -7.416      2.081      6.218
REMARK INTER + INTRA:         -10.389
REMARK INTER:                  -9.897
REMARK INTRA:                  -0.492
REMARK UNBOUND:                -0.588
REMARK  Name = 
REMARK  6 active torsions:
REMARK  status: ('A' for Active; 'I' for Inactive)
REMARK    1  A    between atoms: N_1  and  C_2
REMARK    2  A    between atoms: C_2  and  C_3
REMARK    3  A    between atoms: C_6  and  O_7
REMARK    4  A    between atoms: O_7  and  C_8
REMARK    5  A    between atoms: C_8  and  C_9
REMARK    6  A    between atoms: C_12  and  C_13
REMARK                            x       y       z     vdW  Elec       q    Type
REMARK                         _______ _______ _______ _____ _____    ______ ____
ROOT
ATOM      1  C   UNL     1      43.764   4.861  10.456  0.00  0.00    +0.000 C 
ENDROOT
BRANCH   1   2
ATOM      2  C   UNL     1      44.866   5.058  11.477  0.00  0.00    +0.000 A 
ATOM      3  C   UNL     1      45.873   6.001  11.212  0.00  0.00    +0.000 A 
ATOM      4  C   UNL     1      46.863   6.273  12.158  0.00  0.00    +0.000 A 
ATOM      5  C   UNL     1      46.851   5.621  13.394  0.00  0.00    +0.000 A 
ATOM      6  C   UNL     1      45.853   4.677  13.668  0.00  0.00    +0.000 A 
ATOM      7  C   UNL     1      44.863   4.403  12.716  0.00  0.00    +0.000 A 
BRANCH   5   8
ATOM      8  C   UNL     1      47.920   5.957  14.371  0.00  0.00    +0.000 C 
ATOM      9  N   UNL     1      47.737   5.561  15.667  0.00  0.00    +0.000 N 
ATOM     10  O   UNL     1      48.912   6.599  14.047  0.00  0.00    +0.000 OA
ATOM     11  H   UNL     1      46.841   5.258  16.021  0.00  0.00    +0.000 HD
ATOM     12  H   UNL     1      48.417   5.901  16.334  0.00  0.00    +0.000 HD
ENDBRANCH   5   8
ENDBRANCH   1   2
BRANCH   1  13
ATOM     13  O   UNL     1      43.591   3.485  10.103  0.00  0.00    +0.000 OA
BRANCH  13  17
ATOM     14  C   UNL     1      46.489   2.288   7.414  0.00  0.00    +0.000 A 
ATOM     15  C   UNL     1      46.010   3.600   7.387  0.00  0.00    +0.000 A 
ATOM     16  C   UNL     1      45.032   3.999   8.302  0.00  0.00    +0.000 A 
ATOM     17  C   UNL     1      44.570   3.070   9.218  0.00  0.00    +0.000 A 
ATOM     18  N   UNL     1      45.022   1.799   9.281  0.00  0.00    +0.000 NA
ATOM     19  C   UNL     1      45.963   1.439   8.381  0.00  0.00    +0.000 A 
BRANCH  14  20
ATOM     20  C   UNL     1      47.534   1.795   6.455  0.00  0.00    +0.000 C 
BRANCH  20  21
ATOM     21  N   UNL     1      48.660   2.717   6.381  0.00  0.00    +0.000 NA
ATOM     22  H   UNL     1      48.624   3.360   7.169  0.00  0.00    +0.000 HD
ATOM     23  H   UNL     1      48.571   3.288   5.541  0.00  0.00    +0.000 HD
ENDBRANCH  20  21
ENDBRANCH  14  20
ENDBRANCH  13  17
ENDBRANCH   1  13
TORSDOF 6
ENDMDL
MODEL 4
REMARK VINA RESULT:    -6.578      2.990      6.833
REMARK INTER + INTRA:          -9.281
REMARK INTER:                  -8.809
REMARK INTRA:                  -0.473
REMARK UNBOUND:                -0.588
REMARK  Name = 
REMARK  6 active torsions:
REMARK  status: ('A' for Active; 'I' for Inactive)
REMARK    1  A    between atoms: N_1  and  C_2
REMARK    2  A    between atoms: C_2  and  C_3
REMARK    3  A    between atoms: C_6  and  O_7
REMARK    4  A    between atoms: O_7  and  C_8
REMARK    5  A    between atoms: C_8  and  C_9
REMARK    6  A    between atoms: C_12  and  C_13
REMARK                            x       y       z     vdW  Elec       q    Type
REMARK                         _______ _______ _______ _____ _____    ______ ____
ROOT
ATOM      1  C   UNL     1      44.983   4.922  11.357  0.00  0.00    +0.000 C 
ENDROOT
BRANCH   1   2
ATOM      2  C   UNL     1      45.529   6.293  11.700  0.00  0.00    +0.000 A 
ATOM      3  C   UNL     1      46.919   6.492  11.680  0.00  0.00    +0.000 A 
ATOM      4  C   UNL     1      47.462   7.757  11.911  0.00  0.00    +0.000 A 
ATOM      5  C   UNL     1      46.623   8.849  12.147  0.00  0.00    +0.000 A 
ATOM      6  C   UNL     1      45.235   8.662  12.173  0.00  0.00    +0.000 A 
ATOM      7  C   UNL     1      44.692   7.391  11.944  0.00  0.00    +0.000 A 
BRANCH   5   8
ATOM      8  C   UNL     1      47.252  10.177  12.375  0.00  0.00    +0.000 C 
ATOM      9  N   UNL     1      46.462  11.283  12.220  0.00  0.00    +0.000 N 
ATOM     10  O   UNL     1      48.440  10.290  12.648  0.00  0.00    +0.000 OA
ATOM     11  H   UNL     1      45.565  11.250  11.761  0.00  0.00    +0.000 HD
ATOM     12  H   UNL     1      46.937  12.176  12.264  0.00  0.00    +0.000 HD
ENDBRANCH   5   8
ENDBRANCH   1   2
BRANCH   1  13
ATOM     13  O   UNL     1      44.383   4.886  10.058  0.00  0.00    +0.000 OA
BRANCH  13  17
ATOM     14  C   UNL     1      46.609   2.523   7.503  0.00  0.00    +0.000 A 
ATOM     15  C   UNL     1      45.784   1.930   8.462  0.00  0.00    +0.000 A 
ATOM     16  C   UNL     1      45.031   2.736   9.321  0.00  0.00    +0.000 A 
ATOM     17  C   UNL     1      45.127   4.110   9.186  0.00  0.00    +0.000 A 
ATOM     18  N   UNL     1      45.902   4.714   8.260  0.00  0.00    +0.000 NA
ATOM     19  C   UNL     1      46.622   3.912   7.447  0.00  0.00    +0.000 A 
BRANCH  14  20
ATOM     20  C   UNL     1      47.446   1.715   6.554  0.00  0.00    +0.000 C 
BRANCH  20  21
ATOM     21  N   UNL     1      48.654   2.434   6.171  0.00  0.00    +0.000 NA
ATOM     22  H   UNL     1      49.472   1.894   6.446  0.00  0.00    +0.000 HD
ATOM     23  H   UNL     1      48.702   3.310   6.690  0.00  0.00    +0.000 HD
ENDBRANCH  20  21
ENDBRANCH  14  20
ENDBRANCH  13  17
ENDBRANCH   1  13
TORSDOF 6
ENDMDL
MODEL 5
REMARK VINA RESULT:    -5.931      3.875      5.889
REMARK INTER + INTRA:          -8.427
REMARK INTER:                  -8.027
REMARK INTRA:                  -0.399
REMARK UNBOUND:                -0.588
REMARK  Name = 
REMARK  6 active torsions:
REMARK  status: ('A' for Active; 'I' for Inactive)
REMARK    1  A    between atoms: N_1  and  C_2
REMARK    2  A    between atoms: C_2  and  C_3
REMARK    3  A    between atoms: C_6  and  O_7
REMARK    4  A    between atoms: O_7  and  C_8
REMARK    5  A    between atoms: C_8  and  C_9
REMARK    6  A    between atoms: C_12  and  C_13
REMARK                            x       y       z     vdW  Elec       q    Type
REMARK                         _______ _______ _______ _____ _____    ______ ____
ROOT
ATOM      1  C   UNL     1      47.583   5.253  15.041  0.00  0.00    +0.000 C 
ENDROOT
BRANCH   1   2
ATOM      2  C   UNL     1      46.651   4.990  13.875  0.00  0.00    +0.000 A 
ATOM      3  C   UNL     1      46.407   3.661  13.490  0.00  0.00    +0.000 A 
ATOM      4  C   UNL     1      45.495   3.369  12.475  0.00  0.00    +0.000 A 
ATOM      5  C   UNL     1      44.797   4.400  11.839  0.00  0.00    +0.000 A 
ATOM      6  C   UNL     1      45.035   5.729  12.213  0.00  0.00    +0.000 A 
ATOM      7  C   UNL     1      45.953   6.020  13.230  0.00  0.00    +0.000 A 
BRANCH   5   8
ATOM      8  C   UNL     1      43.828   4.033  10.773  0.00  0.00    +0.000 C 
ATOM      9  N   UNL     1      43.963   4.650   9.561  0.00  0.00    +0.000 N 
ATOM     10  O   UNL     1      42.915   3.243  10.975  0.00  0.00    +0.000 OA
ATOM     11  H   UNL     1      44.530   5.474   9.430  0.00  0.00    +0.000 HD
ATOM     12  H   UNL     1      43.225   4.475   8.890  0.00  0.00    +0.000 HD
ENDBRANCH   5   8
ENDBRANCH   1   2
BRANCH   1  13
ATOM     13  O   UNL     1      47.317   4.391  16.153  0.00  0.00    +0.000 OA
BRANCH  13  17
ATOM     14  C   UNL     1      50.764   2.444  17.335  0.00  0.00    +0.000 A 
ATOM     15  C   UNL     1      50.508   3.744  17.779  0.00  0.00    +0.000 A 
ATOM     16  C   UNL     1      49.338   4.395  17.378  0.00  0.00    +0.000 A 
ATOM     17  C   UNL     1      48.461   3.719  16.548  0.00  0.00    +0.000 A 
ATOM     18  N   UNL     1      48.670   2.458  16.113  0.00  0.00    +0.000 NA
ATOM     19  C   UNL     1      49.810   1.854  16.512  0.00  0.00    +0.000 A 
BRANCH  14  20
ATOM     20  C   UNL     1      52.003   1.691  17.724  0.00  0.00    +0.000 C 
BRANCH  20  21
ATOM     21  N   UNL     1      51.700   0.301  18.040  0.00  0.00    +0.000 NA
ATOM     22  H   UNL     1      52.566  -0.231  18.093  0.00  0.00    +0.000 HD
ATOM     23  H   UNL     1      51.161  -0.106  17.276  0.00  0.00    +0.000 HD
ENDBRANCH  20  21
ENDBRANCH  14  20
ENDBRANCH  13  17
ENDBRANCH   1  13
TORSDOF 6
ENDMDL
MODEL 6
REMARK VINA RESULT:    -5.926      4.654      8.129
REMARK INTER + INTRA:          -8.420
REMARK INTER:                  -8.025
REMARK INTRA:                  -0.395
REMARK UNBOUND:                -0.588
REMARK  Name = 
REMARK  6 active torsions:
REMARK  status: ('A' for Active; 'I' for Inactive)
REMARK    1  A    between atoms: N_1  and  C_2
REMARK    2  A    between atoms: C_2  and  C_3
REMARK    3  A    between atoms: C_6  and  O_7
REMARK    4  A    between atoms: O_7  and  C_8
REMARK    5  A    between atoms: C_8  and  C_9
REMARK    6  A    between atoms: C_12  and  C_13
REMARK                            x       y       z     vdW  Elec       q    Type
REMARK                         _______ _______ _______ _____ _____    ______ ____
ROOT
ATOM      1  C   UNL     1      47.365   4.453  16.172  0.00  0.00    +0.000 C 
ENDROOT
BRANCH   1   2
ATOM      2  C   UNL     1      48.602   3.750  16.692  0.00  0.00    +0.000 A 
ATOM      3  C   UNL     1      48.744   2.372  16.462  0.00  0.00    +0.000 A 
ATOM      4  C   UNL     1      49.903   1.699  16.853  0.00  0.00    +0.000 A 
ATOM      5  C   UNL     1      50.949   2.398  17.463  0.00  0.00    +0.000 A 
ATOM      6  C   UNL     1      50.817   3.772  17.701  0.00  0.00    +0.000 A 
ATOM      7  C   UNL     1      49.652   4.444  17.310  0.00  0.00    +0.000 A 
BRANCH   5   8
ATOM      8  C   UNL     1      52.166   1.636  17.849  0.00  0.00    +0.000 C 
ATOM      9  N   UNL     1      52.020   0.301  18.101  0.00  0.00    +0.000 N 
ATOM     10  O   UNL     1      53.255   2.183  17.979  0.00  0.00    +0.000 OA
ATOM     11  H   UNL     1      51.119  -0.130  18.248  0.00  0.00    +0.000 HD
ATOM     12  H   UNL     1      52.834  -0.172  18.474  0.00  0.00    +0.000 HD
ENDBRANCH   5   8
ENDBRANCH   1   2
BRANCH   1  13
ATOM     13  O   UNL     1      47.626   5.196  14.976  0.00  0.00    +0.000 OA
BRANCH  13  17
ATOM     14  C   UNL     1      44.927   4.236  11.999  0.00  0.00    +0.000 A 
ATOM     15  C   UNL     1      45.142   5.573  12.343  0.00  0.00    +0.000 A 
ATOM     16  C   UNL     1      46.059   5.891  13.348  0.00  0.00    +0.000 A 
ATOM     17  C   UNL     1      46.734   4.857  13.973  0.00  0.00    +0.000 A 
ATOM     18  N   UNL     1      46.562   3.556  13.655  0.00  0.00    +0.000 NA
ATOM     19  C   UNL     1      45.667   3.277  12.683  0.00  0.00    +0.000 A 
BRANCH  14  20
ATOM     20  C   UNL     1      43.953   3.827  10.932  0.00  0.00    +0.000 C 
BRANCH  20  21
ATOM     21  N   UNL     1      42.932   2.932  11.462  0.00  0.00    +0.000 NA
ATOM     22  H   UNL     1      42.113   2.958  10.859  0.00  0.00    +0.000 HD
ATOM     23  H   UNL     1      42.629   3.273  12.374  0.00  0.00    +0.000 HD
ENDBRANCH  20  21
ENDBRANCH  14  20
ENDBRANCH  13  17
ENDBRANCH   1  13
TORSDOF 6
ENDMDL
MODEL 7
REMARK VINA RESULT:    -5.716      3.521      5.465
REMARK INTER + INTRA:          -8.142
REMARK INTER:                  -7.715
REMARK INTRA:                  -0.427
REMARK UNBOUND:                -0.588
REMARK  Name = 
REMARK  6 active torsions:
REMARK  status: ('A' for Active; 'I' for Inactive)
REMARK    1  A    between atoms: N_1  and  C_2
REMARK    2  A    between atoms: C_2  and  C_3
REMARK    3  A    between atoms: C_6  and  O_7
REMARK    4  A    between atoms: O_7  and  C_8
REMARK    5  A    between atoms: C_8  and  C_9
REMARK    6  A    between atoms: C_12  and  C_13
REMARK                            x       y       z     vdW  Elec       q    Type
REMARK                         _______ _______ _______ _____ _____    ______ ____
ROOT
ATOM      1  C   UNL     1      47.623   6.746  14.092  0.00  0.00    +0.000 C 
ENDROOT
BRANCH   1   2
ATOM      2  C   UNL     1      46.776   6.034  13.057  0.00  0.00    +0.000 A 
ATOM      3  C   UNL     1      46.128   4.841  13.417  0.00  0.00    +0.000 A 
ATOM      4  C   UNL     1      45.274   4.194  12.522  0.00  0.00    +0.000 A 
ATOM      5  C   UNL     1      45.039   4.740  11.257  0.00  0.00    +0.000 A 
ATOM      6  C   UNL     1      45.683   5.927  10.885  0.00  0.00    +0.000 A 
ATOM      7  C   UNL     1      46.541   6.573  11.785  0.00  0.00    +0.000 A 
BRANCH   5   8
ATOM      8  C   UNL     1      44.112   4.018  10.346  0.00  0.00    +0.000 C 
ATOM      9  N   UNL     1      44.032   4.454   9.053  0.00  0.00    +0.000 N 
ATOM     10  O   UNL     1      43.410   3.094  10.740  0.00  0.00    +0.000 OA
ATOM     11  H   UNL     1      44.395   5.348   8.758  0.00  0.00    +0.000 HD
ATOM     12  H   UNL     1      43.312   4.026   8.484  0.00  0.00    +0.000 HD
ENDBRANCH   5   8
ENDBRANCH   1   2
BRANCH   1  13
ATOM     13  O   UNL     1      48.731   5.950  14.527  0.00  0.00    +0.000 OA
BRANCH  13  17
ATOM     14  C   UNL     1      48.589   5.285  18.602  0.00  0.00    +0.000 A 
ATOM     15  C   UNL     1      48.789   6.578  18.111  0.00  0.00    +0.000 A 
ATOM     16  C   UNL     1      48.832   6.797  16.732  0.00  0.00    +0.000 A 
ATOM     17  C   UNL     1      48.669   5.711  15.889  0.00  0.00    +0.000 A 
ATOM     18  N   UNL     1      48.459   4.452  16.329  0.00  0.00    +0.000 NA
ATOM     19  C   UNL     1      48.427   4.269  17.667  0.00  0.00    +0.000 A 
BRANCH  14  20
ATOM     20  C   UNL     1      48.538   4.983  20.072  0.00  0.00    +0.000 C 
BRANCH  20  21
ATOM     21  N   UNL     1      48.375   3.555  20.312  0.00  0.00    +0.000 NA
ATOM     22  H   UNL     1      47.700   3.412  21.061  0.00  0.00    +0.000 HD
ATOM     23  H   UNL     1      49.258   3.168  20.645  0.00  0.00    +0.000 HD
ENDBRANCH  20  21
ENDBRANCH  14  20
ENDBRANCH  13  17
ENDBRANCH   1  13
TORSDOF 6
ENDMDL
MODEL 8
REMARK VINA RESULT:    -5.590      4.015      8.416
REMARK INTER + INTRA:          -7.976
REMARK INTER:                  -7.667
REMARK INTRA:                  -0.309
REMARK UNBOUND:                -0.588
REMARK  Name = 
REMARK  6 active torsions:
REMARK  status: ('A' for Active; 'I' for Inactive)
REMARK    1  A    between atoms: N_1  and  C_2
REMARK    2  A    between atoms: C_2  and  C_3
REMARK    3  A    between atoms: C_6  and  O_7
REMARK    4  A    between atoms: O_7  and  C_8
REMARK    5  A    between atoms: C_8  and  C_9
REMARK    6  A    between atoms: C_12  and  C_13
REMARK                            x       y       z     vdW  Elec       q    Type
REMARK                         _______ _______ _______ _____ _____    ______ ____
ROOT
ATOM      1  C   UNL     1      47.118   3.991  14.440  0.00  0.00    +0.000 C 
ENDROOT
BRANCH   1   2
ATOM      2  C   UNL     1      47.578   4.292  15.852  0.00  0.00    +0.000 A 
ATOM      3  C   UNL     1      47.454   3.293  16.831  0.00  0.00    +0.000 A 
ATOM      4  C   UNL     1      47.938   3.497  18.124  0.00  0.00    +0.000 A 
ATOM      5  C   UNL     1      48.572   4.698  18.455  0.00  0.00    +0.000 A 
ATOM      6  C   UNL     1      48.698   5.703  17.488  0.00  0.00    +0.000 A 
ATOM      7  C   UNL     1      48.209   5.496  16.191  0.00  0.00    +0.000 A 
BRANCH   5   8
ATOM      8  C   UNL     1      49.080   4.860  19.843  0.00  0.00    +0.000 C 
ATOM      9  N   UNL     1      48.602   4.001  20.793  0.00  0.00    +0.000 N 
ATOM     10  O   UNL     1      49.864   5.752  20.143  0.00  0.00    +0.000 OA
ATOM     11  H   UNL     1      47.785   3.427  20.646  0.00  0.00    +0.000 HD
ATOM     12  H   UNL     1      48.870   4.203  21.748  0.00  0.00    +0.000 HD
ENDBRANCH   5   8
ENDBRANCH   1   2
BRANCH   1  13
ATOM     13  O   UNL     1      45.860   4.604  14.137  0.00  0.00    +0.000 OA
BRANCH  13  17
ATOM     14  C   UNL     1      44.903   4.241  10.134  0.00  0.00    +0.000 A 
ATOM     15  C   UNL     1      45.421   5.443  10.623  0.00  0.00    +0.000 A 
ATOM     16  C   UNL     1      45.746   5.558  11.977  0.00  0.00    +0.000 A 
ATOM     17  C   UNL     1      45.545   4.461  12.797  0.00  0.00    +0.000 A 
ATOM     18  N   UNL     1      45.062   3.280  12.354  0.00  0.00    +0.000 NA
ATOM     19  C   UNL     1      44.752   3.199  11.042  0.00  0.00    +0.000 A 
BRANCH  14  20
ATOM     20  C   UNL     1      44.530   4.054   8.692  0.00  0.00    +0.000 C 
BRANCH  20  21
ATOM     21  N   UNL     1      45.678   4.258   7.818  0.00  0.00    +0.000 NA
ATOM     22  H   UNL     1      45.440   3.966   6.872  0.00  0.00    +0.000 HD
ATOM     23  H   UNL     1      46.441   3.653   8.121  0.00  0.00    +0.000 HD
ENDBRANCH  20  21
ENDBRANCH  14  20
ENDBRANCH  13  17
ENDBRANCH   1  13
TORSDOF 6
ENDMDL
MODEL 9
REMARK VINA RESULT:    -5.484      3.405      7.734
REMARK INTER + INTRA:          -7.835
REMARK INTER:                  -7.395
REMARK INTRA:                  -0.441
REMARK UNBOUND:                -0.588
REMARK  Name = 
REMARK  6 active torsions:
REMARK  status: ('A' for Active; 'I' for Inactive)
REMARK    1  A    between atoms: N_1  and  C_2
REMARK    2  A    between atoms: C_2  and  C_3
REMARK    3  A    between atoms: C_6  and  O_7
REMARK    4  A    between atoms: O_7  and  C_8
REMARK    5  A    between atoms: C_8  and  C_9
REMARK    6  A    between atoms: C_12  and  C_13
REMARK                            x       y       z     vdW  Elec       q    Type
REMARK                         _______ _______ _______ _____ _____    ______ ____
ROOT
ATOM      1  C   UNL     1      47.028   6.070  13.477  0.00  0.00    +0.000 C 
ENDROOT
BRANCH   1   2
ATOM      2  C   UNL     1      47.592   5.460  14.744  0.00  0.00    +0.000 A 
ATOM      3  C   UNL     1      48.516   6.201  15.499  0.00  0.00    +0.000 A 
ATOM      4  C   UNL     1      49.001   5.712  16.713  0.00  0.00    +0.000 A 
ATOM      5  C   UNL     1      48.555   4.481  17.203  0.00  0.00    +0.000 A 
ATOM      6  C   UNL     1      47.637   3.732  16.456  0.00  0.00    +0.000 A 
ATOM      7  C   UNL     1      47.154   4.223  15.237  0.00  0.00    +0.000 A 
BRANCH   5   8
ATOM      8  C   UNL     1      49.094   4.012  18.506  0.00  0.00    +0.000 C 
ATOM      9  N   UNL     1      48.302   3.186  19.254  0.00  0.00    +0.000 N 
ATOM     10  O   UNL     1      50.185   4.379  18.924  0.00  0.00    +0.000 OA
ATOM     11  H   UNL     1      47.317   3.063  19.070  0.00  0.00    +0.000 HD
ATOM     12  H   UNL     1      48.637   2.974  20.186  0.00  0.00    +0.000 HD
ENDBRANCH   5   8
ENDBRANCH   1   2
BRANCH   1  13
ATOM     13  O   UNL     1      45.659   5.708  13.263  0.00  0.00    +0.000 OA
BRANCH  13  17
ATOM     14  C   UNL     1      45.121   4.086   9.502  0.00  0.00    +0.000 A 
ATOM     15  C   UNL     1      44.786   3.344  10.637  0.00  0.00    +0.000 A 
ATOM     16  C   UNL     1      44.967   3.900  11.906  0.00  0.00    +0.000 A 
ATOM     17  C   UNL     1      45.475   5.185  11.995  0.00  0.00    +0.000 A 
ATOM     18  N   UNL     1      45.794   5.934  10.918  0.00  0.00    +0.000 NA
ATOM     19  C   UNL     1      45.613   5.370   9.704  0.00  0.00    +0.000 A 
BRANCH  14  20
ATOM     20  C   UNL     1      44.955   3.545   8.111  0.00  0.00    +0.000 C 
BRANCH  20  21
ATOM     21  N   UNL     1      46.053   3.959   7.248  0.00  0.00    +0.000 NA
ATOM     22  H   UNL     1      46.824   3.301   7.340  0.00  0.00    +0.000 HD
ATOM     23  H   UNL     1      46.407   4.861   7.565  0.00  0.00    +0.000 HD
ENDBRANCH  20  21
ENDBRANCH  14  20
ENDBRANCH  13  17
ENDBRANCH   1  13
TORSDOF 6
ENDMDL
