MODEL 1
REMARK VINA RESULT:    -8.602      0.000      0.000
REMARK INTER + INTRA:         -12.108
REMARK INTER:                 -11.117
REMARK INTRA:                  -0.991
REMARK UNBOUND:                -0.991
REMARK  Name = 
REMARK  5 active torsions:
REMARK  status: ('A' for Active; 'I' for Inactive)
REMARK    1  A    between atoms: C_2  and  C_4
REMARK    2  A    between atoms: C_7  and  O_8
REMARK    3  A    between atoms: O_8  and  C_9
REMARK    4  A    between atoms: C_9  and  C_10
REMARK    5  A    between atoms: C_14  and  C_15
REMARK                            x       y       z     vdW  Elec       q    Type
REMARK                         _______ _______ _______ _____ _____    ______ ____
ROOT
ATOM      1  C   UNL     1      43.508   4.491  11.318  0.00  0.00    +0.000 C 
ENDROOT
BRANCH   1   2
ATOM      2  C   UNL     1      44.789   4.848  12.028  0.00  0.00    +0.000 A 
ATOM      3  C   UNL     1      45.434   3.916  12.845  0.00  0.00    +0.000 A 
ATOM      4  C   UNL     1      46.632   4.248  13.471  0.00  0.00    +0.000 A 
ATOM      5  C   UNL     1      47.203   5.508  13.272  0.00  0.00    +0.000 A 
ATOM      6  C   UNL     1      46.604   6.460  12.428  0.00  0.00    +0.000 A 
ATOM      7  C   UNL     1      45.386   6.105  11.820  0.00  0.00    +0.000 A 
BRANCH   6   8
ATOM      8  C   UNL     1      47.245   7.766  12.158  0.00  0.00    +0.000 A 
ATOM      9  C   UNL     1      48.589   7.883  11.775  0.00  0.00    +0.000 A 
ATOM     10  C   UNL     1      49.164   9.137  11.561  0.00  0.00    +0.000 A 
ATOM     11  C   UNL     1      48.373  10.259  11.724  0.00  0.00    +0.000 A 
ATOM     12  N   UNL     1      47.076  10.208  12.083  0.00  0.00    +0.000 NA
ATOM     13  C   UNL     1      46.553   8.974  12.296  0.00  0.00    +0.000 A 
ENDBRANCH   6   8
ENDBRANCH   1   2
BRANCH   1  14
ATOM     14  O   UNL     1      43.713   4.705   9.925  0.00  0.00    +0.000 OA
BRANCH  14  18
ATOM     15  C   UNL     1      46.339   2.277   7.789  0.00  0.00    +0.000 A 
ATOM     16  C   UNL     1      45.450   1.668   8.682  0.00  0.00    +0.000 A 
ATOM     17  C   UNL     1      44.550   2.447   9.421  0.00  0.00    +0.000 A 
ATOM     18  C   UNL     1      44.537   3.834   9.272  0.00  0.00    +0.000 A 
ATOM     19  C   UNL     1      45.435   4.438   8.388  0.00  0.00    +0.000 A 
ATOM     20  C   UNL     1      46.337   3.668   7.653  0.00  0.00    +0.000 A 
BRANCH  15  22
ATOM     21  N   UNL     1      48.427   2.138   6.545  0.00  0.00    +0.000 N 
ATOM     22  C   UNL     1      47.308   1.487   6.988  0.00  0.00    +0.000 C 
ATOM     23  O   UNL     1      47.143   0.295   6.766  0.00  0.00    +0.000 OA
ATOM     24  H   UNL     1      49.131   1.559   6.107  0.00  0.00    +0.000 HD
ATOM     25  H   UNL     1      48.723   3.024   6.932  0.00  0.00    +0.000 HD
ENDBRANCH  15  22
ENDBRANCH  14  18
ENDBRANCH   1  14
TORSDOF 5
ENDMDL
MODEL 2
REMARK VINA RESULT:    -8.279      1.569      2.323
REMARK INTER + INTRA:         -11.690
REMARK INTER:                 -10.825
REMARK INTRA:                  -0.865
REMARK UNBOUND:                -0.991
REMARK  Name = 
REMARK  5 active torsions:
REMARK  status: ('A' for Active; 'I' for Inactive)
REMARK    1  A    between atoms: C_2  and  C_4
REMARK    2  A    between atoms: C_7  and  O_8
REMARK    3  A    between atoms: O_8  and  C_9
REMARK    4  A    between atoms: C_9  and  C_10
REMARK    5  A    between atoms: C_14  and  C_15
REMARK                            x       y       z     vdW  Elec       q    Type
REMARK                         _______ _______ _______ _____ _____    ______ ____
ROOT
ATOM      1  C   UNL     1      44.115   3.494  11.565  0.00  0.00    +0.000 C 
ENDROOT
BRANCH   1   2
ATOM      2  C   UNL     1      44.511   4.948  11.626  0.00  0.00    +0.000 A 
ATOM      3  C   UNL     1      43.576   5.952  11.362  0.00  0.00    +0.000 A 
ATOM      4  C   UNL     1      43.945   7.291  11.451  0.00  0.00    +0.000 A 
ATOM      5  C   UNL     1      45.248   7.636  11.821  0.00  0.00    +0.000 A 
ATOM      6  C   UNL     1      46.208   6.656  12.130  0.00  0.00    +0.000 A 
ATOM      7  C   UNL     1      45.813   5.310  12.016  0.00  0.00    +0.000 A 
BRANCH   6   8
ATOM      8  C   UNL     1      47.565   7.021  12.591  0.00  0.00    +0.000 A 
ATOM      9  C   UNL     1      48.449   7.783  11.811  0.00  0.00    +0.000 A 
ATOM     10  C   UNL     1      49.733   8.079  12.271  0.00  0.00    +0.000 A 
ATOM     11  C   UNL     1      50.108   7.615  13.518  0.00  0.00    +0.000 A 
ATOM     12  N   UNL     1      49.301   6.886  14.314  0.00  0.00    +0.000 NA
ATOM     13  C   UNL     1      48.065   6.606  13.830  0.00  0.00    +0.000 A 
ENDBRANCH   6   8
ENDBRANCH   1   2
BRANCH   1  14
ATOM     14  O   UNL     1      43.655   3.229  10.243  0.00  0.00    +0.000 OA
BRANCH  14  18
ATOM     15  C   UNL     1      46.558   2.573   7.329  0.00  0.00    +0.000 A 
ATOM     16  C   UNL     1      46.041   3.865   7.471  0.00  0.00    +0.000 A 
ATOM     17  C   UNL     1      45.063   4.131   8.438  0.00  0.00    +0.000 A 
ATOM     18  C   UNL     1      44.598   3.106   9.264  0.00  0.00    +0.000 A 
ATOM     19  C   UNL     1      45.109   1.815   9.110  0.00  0.00    +0.000 A 
ATOM     20  C   UNL     1      46.079   1.544   8.145  0.00  0.00    +0.000 A 
BRANCH  15  22
ATOM     21  N   UNL     1      47.666   3.063   5.218  0.00  0.00    +0.000 N 
ATOM     22  C   UNL     1      47.595   2.250   6.316  0.00  0.00    +0.000 C 
ATOM     23  O   UNL     1      48.382   1.326   6.469  0.00  0.00    +0.000 OA
ATOM     24  H   UNL     1      48.452   2.903   4.600  0.00  0.00    +0.000 HD
ATOM     25  H   UNL     1      47.228   3.973   5.192  0.00  0.00    +0.000 HD
ENDBRANCH  15  22
ENDBRANCH  14  18
ENDBRANCH   1  14
TORSDOF 5
ENDMDL
MODEL 3
REMARK VINA RESULT:    -8.248      1.100      1.688
REMARK INTER + INTRA:         -11.650
REMARK INTER:                 -10.782
REMARK INTRA:                  -0.868
REMARK UNBOUND:                -0.991
REMARK  Name = 
REMARK  5 active torsions:
REMARK  status: ('A' for Active; 'I' for Inactive)
REMARK    1  A    between atoms: C_2  and  C_4
REMARK    2  A    between atoms: C_7  and  O_8
REMARK    3  A    between atoms: O_8  and  C_9
REMARK    4  A    between atoms: C_9  and  C_10
REMARK    5  A    between atoms: C_14  and  C_15
REMARK                            x       y       z     vdW  Elec       q    Type
REMARK                         _______ _______ _______ _____ _____    ______ ____
ROOT
ATOM      1  C   UNL     1      43.842   5.539  10.813  0.00  0.00    +0.000 C 
ENDROOT
BRANCH   1   2
ATOM      2  C   UNL     1      45.006   5.626  11.767  0.00  0.00    +0.000 A 
ATOM      3  C   UNL     1      45.131   4.719  12.823  0.00  0.00    +0.000 A 
ATOM      4  C   UNL     1      46.225   4.791  13.680  0.00  0.00    +0.000 A 
ATOM      5  C   UNL     1      47.212   5.760  13.478  0.00  0.00    +0.000 A 
ATOM      6  C   UNL     1      47.142   6.668  12.406  0.00  0.00    +0.000 A 
ATOM      7  C   UNL     1      46.017   6.583  11.564  0.00  0.00    +0.000 A 
BRANCH   6   8
ATOM      8  C   UNL     1      48.221   7.645  12.149  0.00  0.00    +0.000 A 
ATOM      9  C   UNL     1      47.965   8.994  11.859  0.00  0.00    +0.000 A 
ATOM     10  C   UNL     1      49.012   9.877  11.591  0.00  0.00    +0.000 A 
ATOM     11  C   UNL     1      50.307   9.394  11.631  0.00  0.00    +0.000 A 
ATOM     12  N   UNL     1      50.614   8.113  11.910  0.00  0.00    +0.000 NA
ATOM     13  C   UNL     1      49.571   7.279  12.153  0.00  0.00    +0.000 A 
ENDBRANCH   6   8
ENDBRANCH   1   2
BRANCH   1  14
ATOM     14  O   UNL     1      43.719   4.179  10.408  0.00  0.00    +0.000 OA
BRANCH  14  18
ATOM     15  C   UNL     1      46.438   2.483   7.746  0.00  0.00    +0.000 A 
ATOM     16  C   UNL     1      46.249   3.869   7.709  0.00  0.00    +0.000 A 
ATOM     17  C   UNL     1      45.345   4.481   8.586  0.00  0.00    +0.000 A 
ATOM     18  C   UNL     1      44.625   3.711   9.500  0.00  0.00    +0.000 A 
ATOM     19  C   UNL     1      44.808   2.326   9.525  0.00  0.00    +0.000 A 
ATOM     20  C   UNL     1      45.703   1.710   8.650  0.00  0.00    +0.000 A 
BRANCH  15  22
ATOM     21  N   UNL     1      48.457   2.520   6.387  0.00  0.00    +0.000 N 
ATOM     22  C   UNL     1      47.386   1.796   6.833  0.00  0.00    +0.000 C 
ATOM     23  O   UNL     1      47.245   0.621   6.521  0.00  0.00    +0.000 OA
ATOM     24  H   UNL     1      49.154   2.004   5.866  0.00  0.00    +0.000 HD
ATOM     25  H   UNL     1      48.746   3.382   6.830  0.00  0.00    +0.000 HD
ENDBRANCH  15  22
ENDBRANCH  14  18
ENDBRANCH   1  14
TORSDOF 5
ENDMDL
MODEL 4
REMARK VINA RESULT:    -8.173      2.077      3.390
REMARK INTER + INTRA:         -11.553
REMARK INTER:                 -10.793
REMARK INTRA:                  -0.761
REMARK UNBOUND:                -0.991
REMARK  Name = 
REMARK  5 active torsions:
REMARK  status: ('A' for Active; 'I' for Inactive)
REMARK    1  A    between atoms: C_2  and  C_4
REMARK    2  A    between atoms: C_7  and  O_8
REMARK    3  A    between atoms: O_8  and  C_9
REMARK    4  A    between atoms: C_9  and  C_10
REMARK    5  A    between atoms: C_14  and  C_15
REMARK                            x       y       z     vdW  Elec       q    Type
REMARK                         _______ _______ _______ _____ _____    ______ ____
ROOT
ATOM      1  C   UNL     1      43.613   3.879  11.553  0.00  0.00    +0.000 C 
ENDROOT
BRANCH   1   2
ATOM      2  C   UNL     1      44.658   4.847  12.046  0.00  0.00    +0.000 A 
ATOM      3  C   UNL     1      44.764   6.124  11.490  0.00  0.00    +0.000 A 
ATOM      4  C   UNL     1      45.713   7.020  11.973  0.00  0.00    +0.000 A 
ATOM      5  C   UNL     1      46.554   6.651  13.027  0.00  0.00    +0.000 A 
ATOM      6  C   UNL     1      46.455   5.388  13.638  0.00  0.00    +0.000 A 
ATOM      7  C   UNL     1      45.497   4.496  13.119  0.00  0.00    +0.000 A 
BRANCH   6   8
ATOM      8  C   UNL     1      47.293   5.023  14.800  0.00  0.00    +0.000 A 
ATOM      9  C   UNL     1      47.150   3.805  15.483  0.00  0.00    +0.000 A 
ATOM     10  C   UNL     1      47.941   3.514  16.595  0.00  0.00    +0.000 A 
ATOM     11  C   UNL     1      48.877   4.447  16.999  0.00  0.00    +0.000 A 
ATOM     12  N   UNL     1      49.064   5.628  16.380  0.00  0.00    +0.000 NA
ATOM     13  C   UNL     1      48.270   5.885  15.311  0.00  0.00    +0.000 A 
ENDBRANCH   6   8
ENDBRANCH   1   2
BRANCH   1  14
ATOM     14  O   UNL     1      43.497   4.050  10.144  0.00  0.00    +0.000 OA
BRANCH  14  18
ATOM     15  C   UNL     1      46.465   2.554   7.632  0.00  0.00    +0.000 A 
ATOM     16  C   UNL     1      45.822   1.666   8.503  0.00  0.00    +0.000 A 
ATOM     17  C   UNL     1      44.818   2.127   9.364  0.00  0.00    +0.000 A 
ATOM     18  C   UNL     1      44.456   3.474   9.362  0.00  0.00    +0.000 A 
ATOM     19  C   UNL     1      45.109   4.359   8.499  0.00  0.00    +0.000 A 
ATOM     20  C   UNL     1      46.113   3.907   7.643  0.00  0.00    +0.000 A 
BRANCH  15  22
ATOM     21  N   UNL     1      47.920   2.984   5.729  0.00  0.00    +0.000 N 
ATOM     22  C   UNL     1      47.534   2.106   6.704  0.00  0.00    +0.000 C 
ATOM     23  O   UNL     1      48.080   1.018   6.826  0.00  0.00    +0.000 OA
ATOM     24  H   UNL     1      48.729   2.712   5.184  0.00  0.00    +0.000 HD
ATOM     25  H   UNL     1      47.691   3.967   5.769  0.00  0.00    +0.000 HD
ENDBRANCH  15  22
ENDBRANCH  14  18
ENDBRANCH   1  14
TORSDOF 5
ENDMDL
MODEL 5
REMARK VINA RESULT:    -7.388      2.561      6.674
REMARK INTER + INTRA:         -10.539
REMARK INTER:                  -9.574
REMARK INTRA:                  -0.966
REMARK UNBOUND:                -0.991
REMARK  Name = 
REMARK  5 active torsions:
REMARK  status: ('A' for Active; 'I' for Inactive)
REMARK    1  A    between atoms: C_2  and  C_4
REMARK    2  A    between atoms: C_7  and  O_8
REMARK    3  A    between atoms: O_8  and  C_9
REMARK    4  A    between atoms: C_9  and  C_10
REMARK    5  A    between atoms: C_14  and  C_15
REMARK                            x       y       z     vdW  Elec       q    Type
REMARK                         _______ _______ _______ _____ _____    ______ ____
ROOT
ATOM      1  C   UNL     1      43.993   6.619  11.350  0.00  0.00    +0.000 C 
ENDROOT
BRANCH   1   2
ATOM      2  C   UNL     1      44.060   5.145  11.041  0.00  0.00    +0.000 A 
ATOM      3  C   UNL     1      43.291   4.230  11.765  0.00  0.00    +0.000 A 
ATOM      4  C   UNL     1      43.339   2.875  11.451  0.00  0.00    +0.000 A 
ATOM      5  C   UNL     1      44.142   2.426  10.399  0.00  0.00    +0.000 A 
ATOM      6  C   UNL     1      44.901   3.319   9.622  0.00  0.00    +0.000 A 
ATOM      7  C   UNL     1      44.848   4.682   9.971  0.00  0.00    +0.000 A 
BRANCH   6   8
ATOM      8  C   UNL     1      45.694   2.855   8.463  0.00  0.00    +0.000 A 
ATOM      9  C   UNL     1      46.051   3.702   7.403  0.00  0.00    +0.000 A 
ATOM     10  C   UNL     1      46.773   3.216   6.312  0.00  0.00    +0.000 A 
ATOM     11  C   UNL     1      47.140   1.882   6.308  0.00  0.00    +0.000 A 
ATOM     12  N   UNL     1      46.832   1.024   7.300  0.00  0.00    +0.000 NA
ATOM     13  C   UNL     1      46.118   1.528   8.338  0.00  0.00    +0.000 A 
ENDBRANCH   6   8
ENDBRANCH   1   2
BRANCH   1  14
ATOM     14  O   UNL     1      44.653   6.828  12.595  0.00  0.00    +0.000 OA
BRANCH  14  18
ATOM     15  C   UNL     1      48.725   7.682  12.404  0.00  0.00    +0.000 A 
ATOM     16  C   UNL     1      48.334   6.399  12.801  0.00  0.00    +0.000 A 
ATOM     17  C   UNL     1      46.976   6.068  12.879  0.00  0.00    +0.000 A 
ATOM     18  C   UNL     1      46.004   7.019  12.564  0.00  0.00    +0.000 A 
ATOM     19  C   UNL     1      46.399   8.303  12.179  0.00  0.00    +0.000 A 
ATOM     20  C   UNL     1      47.751   8.639  12.104  0.00  0.00    +0.000 A 
BRANCH  15  22
ATOM     21  N   UNL     1      50.945   7.343  11.465  0.00  0.00    +0.000 N 
ATOM     22  C   UNL     1      50.155   8.072  12.310  0.00  0.00    +0.000 C 
ATOM     23  O   UNL     1      50.604   9.030  12.925  0.00  0.00    +0.000 OA
ATOM     24  H   UNL     1      51.883   7.696  11.322  0.00  0.00    +0.000 HD
ATOM     25  H   UNL     1      50.559   6.738  10.753  0.00  0.00    +0.000 HD
ENDBRANCH  15  22
ENDBRANCH  14  18
ENDBRANCH   1  14
TORSDOF 5
ENDMDL
MODEL 6
REMARK VINA RESULT:    -7.110      2.657      7.212
REMARK INTER + INTRA:         -10.179
REMARK INTER:                  -9.603
REMARK INTRA:                  -0.576
REMARK UNBOUND:                -0.991
REMARK  Name = 
REMARK  5 active torsions:
REMARK  status: ('A' for Active; 'I' for Inactive)
REMARK    1  A    between atoms: C_2  and  C_4
REMARK    2  A    between atoms: C_7  and  O_8
REMARK    3  A    between atoms: O_8  and  C_9
REMARK    4  A    between atoms: C_9  and  C_10
REMARK    5  A    between atoms: C_14  and  C_15
REMARK                            x       y       z     vdW  Elec       q    Type
REMARK                         _______ _______ _______ _____ _____    ______ ____
ROOT
ATOM      1  C   UNL     1      44.413   6.369  11.334  0.00  0.00    +0.000 C 
ENDROOT
BRANCH   1   2
ATOM      2  C   UNL     1      44.380   4.927  10.894  0.00  0.00    +0.000 A 
ATOM      3  C   UNL     1      43.526   4.012  11.516  0.00  0.00    +0.000 A 
ATOM      4  C   UNL     1      43.483   2.691  11.081  0.00  0.00    +0.000 A 
ATOM      5  C   UNL     1      44.279   2.278  10.010  0.00  0.00    +0.000 A 
ATOM      6  C   UNL     1      45.124   3.177   9.333  0.00  0.00    +0.000 A 
ATOM      7  C   UNL     1      45.161   4.503   9.804  0.00  0.00    +0.000 A 
BRANCH   6   8
ATOM      8  C   UNL     1      45.912   2.758   8.154  0.00  0.00    +0.000 A 
ATOM      9  C   UNL     1      46.178   3.620   7.078  0.00  0.00    +0.000 A 
ATOM     10  C   UNL     1      46.899   3.175   5.969  0.00  0.00    +0.000 A 
ATOM     11  C   UNL     1      47.356   1.870   5.962  0.00  0.00    +0.000 A 
ATOM     12  N   UNL     1      47.138   1.000   6.967  0.00  0.00    +0.000 NA
ATOM     13  C   UNL     1      46.422   1.462   8.024  0.00  0.00    +0.000 A 
ENDBRANCH   6   8
ENDBRANCH   1   2
BRANCH   1  14
ATOM     14  O   UNL     1      45.735   6.853  11.120  0.00  0.00    +0.000 OA
BRANCH  14  18
ATOM     15  C   UNL     1      48.177   6.824  14.496  0.00  0.00    +0.000 A 
ATOM     16  C   UNL     1      48.057   8.016  13.773  0.00  0.00    +0.000 A 
ATOM     17  C   UNL     1      47.247   8.071  12.632  0.00  0.00    +0.000 A 
ATOM     18  C   UNL     1      46.557   6.935  12.208  0.00  0.00    +0.000 A 
ATOM     19  C   UNL     1      46.689   5.743  12.925  0.00  0.00    +0.000 A 
ATOM     20  C   UNL     1      47.499   5.682  14.060  0.00  0.00    +0.000 A 
BRANCH  15  22
ATOM     21  N   UNL     1      48.403   6.867  16.919  0.00  0.00    +0.000 N 
ATOM     22  C   UNL     1      49.026   6.725  15.709  0.00  0.00    +0.000 C 
ATOM     23  O   UNL     1      50.224   6.483  15.641  0.00  0.00    +0.000 OA
ATOM     24  H   UNL     1      48.972   6.677  17.734  0.00  0.00    +0.000 HD
ATOM     25  H   UNL     1      47.400   6.794  17.020  0.00  0.00    +0.000 HD
ENDBRANCH  15  22
ENDBRANCH  14  18
ENDBRANCH   1  14
TORSDOF 5
ENDMDL
MODEL 7
REMARK VINA RESULT:    -6.702      3.509      7.316
REMARK INTER + INTRA:          -9.652
REMARK INTER:                  -8.933
REMARK INTRA:                  -0.719
REMARK UNBOUND:                -0.991
REMARK  Name = 
REMARK  5 active torsions:
REMARK  status: ('A' for Active; 'I' for Inactive)
REMARK    1  A    between atoms: C_2  and  C_4
REMARK    2  A    between atoms: C_7  and  O_8
REMARK    3  A    between atoms: O_8  and  C_9
REMARK    4  A    between atoms: C_9  and  C_10
REMARK    5  A    between atoms: C_14  and  C_15
REMARK                            x       y       z     vdW  Elec       q    Type
REMARK                         _______ _______ _______ _____ _____    ______ ____
ROOT
ATOM      1  C   UNL     1      45.843   7.026  12.891  0.00  0.00    +0.000 C 
ENDROOT
BRANCH   1   2
ATOM      2  C   UNL     1      45.025   6.016  12.127  0.00  0.00    +0.000 A 
ATOM      3  C   UNL     1      43.680   5.804  12.443  0.00  0.00    +0.000 A 
ATOM      4  C   UNL     1      42.927   4.891  11.712  0.00  0.00    +0.000 A 
ATOM      5  C   UNL     1      43.507   4.194  10.648  0.00  0.00    +0.000 A 
ATOM      6  C   UNL     1      44.847   4.406  10.275  0.00  0.00    +0.000 A 
ATOM      7  C   UNL     1      45.590   5.324  11.042  0.00  0.00    +0.000 A 
BRANCH   6   8
ATOM      8  C   UNL     1      45.441   3.724   9.105  0.00  0.00    +0.000 A 
ATOM      9  C   UNL     1      45.586   2.330   9.037  0.00  0.00    +0.000 A 
ATOM     10  C   UNL     1      46.182   1.728   7.927  0.00  0.00    +0.000 A 
ATOM     11  C   UNL     1      46.612   2.538   6.892  0.00  0.00    +0.000 A 
ATOM     12  N   UNL     1      46.493   3.879   6.899  0.00  0.00    +0.000 NA
ATOM     13  C   UNL     1      45.922   4.432   7.999  0.00  0.00    +0.000 A 
ENDBRANCH   6   8
ENDBRANCH   1   2
BRANCH   1  14
ATOM     14  O   UNL     1      47.154   6.491  13.044  0.00  0.00    +0.000 OA
BRANCH  14  18
ATOM     15  C   UNL     1      48.138   4.585  16.615  0.00  0.00    +0.000 A 
ATOM     16  C   UNL     1      47.257   3.940  15.739  0.00  0.00    +0.000 A 
ATOM     17  C   UNL     1      46.899   4.545  14.528  0.00  0.00    +0.000 A 
ATOM     18  C   UNL     1      47.417   5.795  14.189  0.00  0.00    +0.000 A 
ATOM     19  C   UNL     1      48.287   6.441  15.072  0.00  0.00    +0.000 A 
ATOM     20  C   UNL     1      48.643   5.846  16.282  0.00  0.00    +0.000 A 
BRANCH  15  22
ATOM     21  N   UNL     1      47.963   4.483  19.041  0.00  0.00    +0.000 N 
ATOM     22  C   UNL     1      48.542   3.979  17.909  0.00  0.00    +0.000 C 
ATOM     23  O   UNL     1      49.325   3.040  17.965  0.00  0.00    +0.000 OA
ATOM     24  H   UNL     1      48.156   3.981  19.898  0.00  0.00    +0.000 HD
ATOM     25  H   UNL     1      47.130   5.055  19.011  0.00  0.00    +0.000 HD
ENDBRANCH  15  22
ENDBRANCH  14  18
ENDBRANCH   1  14
TORSDOF 5
ENDMDL
MODEL 8
REMARK VINA RESULT:    -6.492      2.764      7.013
REMARK INTER + INTRA:          -9.381
REMARK INTER:                  -8.605
REMARK INTRA:                  -0.776
REMARK UNBOUND:                -0.991
REMARK  Name = 
REMARK  5 active torsions:
REMARK  status: ('A' for Active; 'I' for Inactive)
REMARK    1  A    between atoms: C_2  and  C_4
REMARK    2  A    between atoms: C_7  and  O_8
REMARK    3  A    between atoms: O_8  and  C_9
REMARK    4  A    between atoms: C_9  and  C_10
REMARK    5  A    between atoms: C_14  and  C_15
REMARK                            x       y       z     vdW  Elec       q    Type
REMARK                         _______ _______ _______ _____ _____    ______ ____
ROOT
ATOM      1  C   UNL     1      44.855   6.541  12.211  0.00  0.00    +0.000 C 
ENDROOT
BRANCH   1   2
ATOM      2  C   UNL     1      44.570   5.177  11.635  0.00  0.00    +0.000 A 
ATOM      3  C   UNL     1      43.582   4.361  12.192  0.00  0.00    +0.000 A 
ATOM      4  C   UNL     1      43.307   3.117  11.633  0.00  0.00    +0.000 A 
ATOM      5  C   UNL     1      44.006   2.686  10.502  0.00  0.00    +0.000 A 
ATOM      6  C   UNL     1      44.982   3.493   9.889  0.00  0.00    +0.000 A 
ATOM      7  C   UNL     1      45.251   4.739  10.484  0.00  0.00    +0.000 A 
BRANCH   6   8
ATOM      8  C   UNL     1      45.669   3.068   8.651  0.00  0.00    +0.000 A 
ATOM      9  C   UNL     1      46.075   1.743   8.428  0.00  0.00    +0.000 A 
ATOM     10  C   UNL     1      46.751   1.391   7.259  0.00  0.00    +0.000 A 
ATOM     11  C   UNL     1      46.998   2.376   6.320  0.00  0.00    +0.000 A 
ATOM     12  N   UNL     1      46.626   3.661   6.475  0.00  0.00    +0.000 NA
ATOM     13  C   UNL     1      45.984   3.971   7.629  0.00  0.00    +0.000 A 
ENDBRANCH   6   8
ENDBRANCH   1   2
BRANCH   1  14
ATOM     14  O   UNL     1      46.032   7.037  11.580  0.00  0.00    +0.000 OA
BRANCH  14  18
ATOM     15  C   UNL     1      49.562   7.592  13.722  0.00  0.00    +0.000 A 
ATOM     16  C   UNL     1      48.559   6.798  14.289  0.00  0.00    +0.000 A 
ATOM     17  C   UNL     1      47.356   6.584  13.604  0.00  0.00    +0.000 A 
ATOM     18  C   UNL     1      47.150   7.166  12.352  0.00  0.00    +0.000 A 
ATOM     19  C   UNL     1      48.150   7.968  11.795  0.00  0.00    +0.000 A 
ATOM     20  C   UNL     1      49.348   8.188  12.475  0.00  0.00    +0.000 A 
BRANCH  15  22
ATOM     21  N   UNL     1      51.708   8.735  13.834  0.00  0.00    +0.000 N 
ATOM     22  C   UNL     1      50.849   7.843  14.416  0.00  0.00    +0.000 C 
ATOM     23  O   UNL     1      51.120   7.313  15.485  0.00  0.00    +0.000 OA
ATOM     24  H   UNL     1      52.523   8.985  14.379  0.00  0.00    +0.000 HD
ATOM     25  H   UNL     1      51.408   9.381  13.117  0.00  0.00    +0.000 HD
ENDBRANCH  15  22
ENDBRANCH  14  18
ENDBRANCH   1  14
TORSDOF 5
ENDMDL
MODEL 9
REMARK VINA RESULT:    -6.453      4.559      8.193
REMARK INTER + INTRA:          -9.331
REMARK INTER:                  -8.576
REMARK INTRA:                  -0.755
REMARK UNBOUND:                -0.991
REMARK  Name = 
REMARK  5 active torsions:
REMARK  status: ('A' for Active; 'I' for Inactive)
REMARK    1  A    between atoms: C_2  and  C_4
REMARK    2  A    between atoms: C_7  and  O_8
REMARK    3  A    between atoms: O_8  and  C_9
REMARK    4  A    between atoms: C_9  and  C_10
REMARK    5  A    between atoms: C_14  and  C_15
REMARK                            x       y       z     vdW  Elec       q    Type
REMARK                         _______ _______ _______ _____ _____    ______ ____
ROOT
ATOM      1  C   UNL     1      48.197   7.309  13.929  0.00  0.00    +0.000 C 
ENDROOT
BRANCH   1   2
ATOM      2  C   UNL     1      46.977   7.338  13.046  0.00  0.00    +0.000 A 
ATOM      3  C   UNL     1      46.184   8.486  12.964  0.00  0.00    +0.000 A 
ATOM      4  C   UNL     1      45.076   8.511  12.123  0.00  0.00    +0.000 A 
ATOM      5  C   UNL     1      44.762   7.395  11.342  0.00  0.00    +0.000 A 
ATOM      6  C   UNL     1      45.555   6.234  11.368  0.00  0.00    +0.000 A 
ATOM      7  C   UNL     1      46.660   6.229  12.240  0.00  0.00    +0.000 A 
BRANCH   6   8
ATOM      8  C   UNL     1      45.266   5.080  10.490  0.00  0.00    +0.000 A 
ATOM      9  C   UNL     1      45.672   5.032   9.147  0.00  0.00    +0.000 A 
ATOM     10  C   UNL     1      45.351   3.937   8.343  0.00  0.00    +0.000 A 
ATOM     11  C   UNL     1      44.634   2.896   8.905  0.00  0.00    +0.000 A 
ATOM     12  N   UNL     1      44.223   2.884  10.187  0.00  0.00    +0.000 NA
ATOM     13  C   UNL     1      44.542   3.970  10.937  0.00  0.00    +0.000 A 
ENDBRANCH   6   8
ENDBRANCH   1   2
BRANCH   1  14
ATOM     14  O   UNL     1      48.421   5.954  14.310  0.00  0.00    +0.000 OA
BRANCH  14  18
ATOM     15  C   UNL     1      48.163   5.226  18.403  0.00  0.00    +0.000 A 
ATOM     16  C   UNL     1      47.478   4.371  17.532  0.00  0.00    +0.000 A 
ATOM     17  C   UNL     1      47.538   4.579  16.149  0.00  0.00    +0.000 A 
ATOM     18  C   UNL     1      48.278   5.642  15.631  0.00  0.00    +0.000 A 
ATOM     19  C   UNL     1      48.950   6.501  16.505  0.00  0.00    +0.000 A 
ATOM     20  C   UNL     1      48.890   6.301  17.885  0.00  0.00    +0.000 A 
BRANCH  15  22
ATOM     21  N   UNL     1      48.532   3.828  20.361  0.00  0.00    +0.000 N 
ATOM     22  C   UNL     1      48.124   5.040  19.876  0.00  0.00    +0.000 C 
ATOM     23  O   UNL     1      47.785   5.940  20.631  0.00  0.00    +0.000 OA
ATOM     24  H   UNL     1      48.614   3.759  21.368  0.00  0.00    +0.000 HD
ATOM     25  H   UNL     1      49.065   3.175  19.803  0.00  0.00    +0.000 HD
ENDBRANCH  15  22
ENDBRANCH  14  18
ENDBRANCH   1  14
TORSDOF 5
ENDMDL
