MODEL 1
REMARK VINA RESULT:    -9.372      0.000      0.000
REMARK INTER + INTRA:         -14.188
REMARK INTER:                 -13.207
REMARK INTRA:                  -0.981
REMARK UNBOUND:                -0.981
REMARK  Name = 
REMARK  7 active torsions:
REMARK  status: ('A' for Active; 'I' for Inactive)
REMARK    1  A    between atoms: C_2  and  C_4
REMARK    2  A    between atoms: C_7  and  N_8
REMARK    3  A    between atoms: N_8  and  C_9
REMARK    4  A    between atoms: C_9  and  C_10
REMARK    5  A    between atoms: C_10  and  C_13
REMARK    6  A    between atoms: C_17  and  O_18
REMARK    7  A    between atoms: O_18  and  C_19
REMARK                            x       y       z     vdW  Elec       q    Type
REMARK                         _______ _______ _______ _____ _____    ______ ____
ROOT
ATOM      1  C   UNL     1      43.130   4.022  11.340  0.00  0.00    +0.000 C 
ENDROOT
BRANCH   1   2
ATOM      2  C   UNL     1      43.122   5.121  12.438  0.00  0.00    +0.000 C 
ATOM      3  F   UNL     1      42.163   6.045  12.127  0.00  0.00    +0.000 F 
ATOM      4  F   UNL     1      42.702   4.547  13.608  0.00  0.00    +0.000 F 
BRANCH   2   5
ATOM      5  C   UNL     1      44.495   5.757  12.567  0.00  0.00    +0.000 A 
ATOM      6  C   UNL     1      44.777   6.966  11.913  0.00  0.00    +0.000 A 
ATOM      7  C   UNL     1      46.049   7.533  11.992  0.00  0.00    +0.000 A 
ATOM      8  C   UNL     1      47.054   6.907  12.733  0.00  0.00    +0.000 A 
ATOM      9  C   UNL     1      46.787   5.717  13.407  0.00  0.00    +0.000 A 
ATOM     10  C   UNL     1      45.513   5.145  13.323  0.00  0.00    +0.000 A 
BRANCH   9  11
ATOM     11  O   UNL     1      47.688   5.075  14.224  0.00  0.00    +0.000 OA
BRANCH  11  12
ATOM     12  C   UNL     1      47.184   4.158  15.218  0.00  0.00    +0.000 C 
ATOM     13  C   UNL     1      47.602   4.452  16.668  0.00  0.00    +0.000 C 
ATOM     14  C   UNL     1      47.945   2.969  16.720  0.00  0.00    +0.000 C 
ATOM     15  O   UNL     1      47.859   2.868  15.280  0.00  0.00    +0.000 OA
ENDBRANCH  11  12
ENDBRANCH   9  11
ENDBRANCH   2   5
ENDBRANCH   1   2
BRANCH   1  16
ATOM     16  N   UNL     1      43.551   4.506  10.013  0.00  0.00    +0.000 N 
ATOM     17  H   UNL     1      42.797   4.864   9.426  0.00  0.00    +0.000 HD
BRANCH  16  21
ATOM     18  C   UNL     1      46.480   2.479   7.743  0.00  0.00    +0.000 A 
ATOM     19  C   UNL     1      46.355   3.864   7.630  0.00  0.00    +0.000 A 
ATOM     20  C   UNL     1      45.400   4.551   8.397  0.00  0.00    +0.000 A 
ATOM     21  C   UNL     1      44.580   3.882   9.312  0.00  0.00    +0.000 A 
ATOM     22  C   UNL     1      44.715   2.489   9.407  0.00  0.00    +0.000 A 
ATOM     23  C   UNL     1      45.651   1.789   8.629  0.00  0.00    +0.000 A 
BRANCH  18  25
ATOM     24  N   UNL     1      48.550   2.375   6.464  0.00  0.00    +0.000 N 
ATOM     25  C   UNL     1      47.435   1.713   6.903  0.00  0.00    +0.000 C 
ATOM     26  O   UNL     1      47.254   0.535   6.630  0.00  0.00    +0.000 OA
ATOM     27  H   UNL     1      49.234   1.820   5.967  0.00  0.00    +0.000 HD
ATOM     28  H   UNL     1      48.855   3.248   6.868  0.00  0.00    +0.000 HD
ENDBRANCH  18  25
ENDBRANCH  16  21
ENDBRANCH   1  16
TORSDOF 7
ENDMDL
MODEL 2
REMARK VINA RESULT:    -8.584      1.335      1.992
REMARK INTER + INTRA:         -13.078
REMARK INTER:                 -12.307
REMARK INTRA:                  -0.770
REMARK UNBOUND:                -0.981
REMARK  Name = 
REMARK  7 active torsions:
REMARK  status: ('A' for Active; 'I' for Inactive)
REMARK    1  A    between atoms: C_2  and  C_4
REMARK    2  A    between atoms: C_7  and  N_8
REMARK    3  A    between atoms: N_8  and  C_9
REMARK    4  A    between atoms: C_9  and  C_10
REMARK    5  A    between atoms: C_10  and  C_13
REMARK    6  A    between atoms: C_17  and  O_18
REMARK    7  A    between atoms: O_18  and  C_19
REMARK                            x       y       z     vdW  Elec       q    Type
REMARK                         _______ _______ _______ _____ _____    ______ ____
ROOT
ATOM      1  C   UNL     1      44.086   5.196  11.234  0.00  0.00    +0.000 C 
ENDROOT
BRANCH   1   2
ATOM      2  C   UNL     1      44.953   6.481  11.339  0.00  0.00    +0.000 C 
ATOM      3  F   UNL     1      45.552   6.707  10.131  0.00  0.00    +0.000 F 
ATOM      4  F   UNL     1      44.111   7.545  11.526  0.00  0.00    +0.000 F 
BRANCH   2   5
ATOM      5  C   UNL     1      45.972   6.347  12.457  0.00  0.00    +0.000 A 
ATOM      6  C   UNL     1      46.818   7.422  12.772  0.00  0.00    +0.000 A 
ATOM      7  C   UNL     1      47.786   7.292  13.768  0.00  0.00    +0.000 A 
ATOM      8  C   UNL     1      47.916   6.092  14.470  0.00  0.00    +0.000 A 
ATOM      9  C   UNL     1      47.071   5.021  14.187  0.00  0.00    +0.000 A 
ATOM     10  C   UNL     1      46.105   5.149  13.183  0.00  0.00    +0.000 A 
BRANCH   9  11
ATOM     11  O   UNL     1      47.073   3.833  14.879  0.00  0.00    +0.000 OA
BRANCH  11  12
ATOM     12  C   UNL     1      47.537   3.835  16.247  0.00  0.00    +0.000 C 
ATOM     13  C   UNL     1      48.411   2.638  16.655  0.00  0.00    +0.000 C 
ATOM     14  C   UNL     1      47.497   2.568  17.872  0.00  0.00    +0.000 C 
ATOM     15  O   UNL     1      46.545   3.458  17.245  0.00  0.00    +0.000 OA
ENDBRANCH  11  12
ENDBRANCH   9  11
ENDBRANCH   2   5
ENDBRANCH   1   2
BRANCH   1  16
ATOM     16  N   UNL     1      43.741   4.819   9.851  0.00  0.00    +0.000 N 
ATOM     17  H   UNL     1      42.741   4.760   9.658  0.00  0.00    +0.000 HD
BRANCH  16  21
ATOM     18  C   UNL     1      46.325   2.182   7.799  0.00  0.00    +0.000 A 
ATOM     19  C   UNL     1      45.431   1.677   8.743  0.00  0.00    +0.000 A 
ATOM     20  C   UNL     1      44.551   2.542   9.414  0.00  0.00    +0.000 A 
ATOM     21  C   UNL     1      44.521   3.913   9.136  0.00  0.00    +0.000 A 
ATOM     22  C   UNL     1      45.432   4.403   8.189  0.00  0.00    +0.000 A 
ATOM     23  C   UNL     1      46.331   3.552   7.528  0.00  0.00    +0.000 A 
BRANCH  18  25
ATOM     24  N   UNL     1      48.442   1.903   6.628  0.00  0.00    +0.000 N 
ATOM     25  C   UNL     1      47.312   1.307   7.117  0.00  0.00    +0.000 C 
ATOM     26  O   UNL     1      47.142   0.100   7.014  0.00  0.00    +0.000 OA
ATOM     27  H   UNL     1      49.145   1.286   6.244  0.00  0.00    +0.000 HD
ATOM     28  H   UNL     1      48.731   2.829   6.910  0.00  0.00    +0.000 HD
ENDBRANCH  18  25
ENDBRANCH  16  21
ENDBRANCH   1  16
TORSDOF 7
ENDMDL
MODEL 3
REMARK VINA RESULT:    -8.037      1.854      2.405
REMARK INTER + INTRA:         -12.308
REMARK INTER:                 -11.237
REMARK INTRA:                  -1.071
REMARK UNBOUND:                -0.981
REMARK  Name = 
REMARK  7 active torsions:
REMARK  status: ('A' for Active; 'I' for Inactive)
REMARK    1  A    between atoms: C_2  and  C_4
REMARK    2  A    between atoms: C_7  and  N_8
REMARK    3  A    between atoms: N_8  and  C_9
REMARK    4  A    between atoms: C_9  and  C_10
REMARK    5  A    between atoms: C_10  and  C_13
REMARK    6  A    between atoms: C_17  and  O_18
REMARK    7  A    between atoms: O_18  and  C_19
REMARK                            x       y       z     vdW  Elec       q    Type
REMARK                         _______ _______ _______ _____ _____    ______ ____
ROOT
ATOM      1  C   UNL     1      43.687   5.238  11.029  0.00  0.00    +0.000 C 
ENDROOT
BRANCH   1   2
ATOM      2  C   UNL     1      44.813   6.197  11.505  0.00  0.00    +0.000 C 
ATOM      3  F   UNL     1      45.494   6.652  10.411  0.00  0.00    +0.000 F 
ATOM      4  F   UNL     1      44.222   7.307  12.047  0.00  0.00    +0.000 F 
BRANCH   2   5
ATOM      5  C   UNL     1      45.733   5.494  12.489  0.00  0.00    +0.000 A 
ATOM      6  C   UNL     1      45.644   4.105  12.669  0.00  0.00    +0.000 A 
ATOM      7  C   UNL     1      46.454   3.459  13.602  0.00  0.00    +0.000 A 
ATOM      8  C   UNL     1      47.373   4.189  14.360  0.00  0.00    +0.000 A 
ATOM      9  C   UNL     1      47.491   5.565  14.181  0.00  0.00    +0.000 A 
ATOM     10  C   UNL     1      46.673   6.214  13.250  0.00  0.00    +0.000 A 
BRANCH   9  11
ATOM     11  O   UNL     1      48.420   6.349  14.823  0.00  0.00    +0.000 OA
BRANCH  11  12
ATOM     12  C   UNL     1      48.742   6.047  16.198  0.00  0.00    +0.000 C 
ATOM     13  C   UNL     1      49.025   7.262  17.097  0.00  0.00    +0.000 C 
ATOM     14  C   UNL     1      50.249   6.471  17.539  0.00  0.00    +0.000 C 
ATOM     15  O   UNL     1      50.094   5.554  16.431  0.00  0.00    +0.000 OA
ENDBRANCH  11  12
ENDBRANCH   9  11
ENDBRANCH   2   5
ENDBRANCH   1   2
BRANCH   1  16
ATOM     16  N   UNL     1      43.738   4.925   9.590  0.00  0.00    +0.000 N 
ATOM     17  H   UNL     1      42.834   4.929   9.117  0.00  0.00    +0.000 HD
BRANCH  16  21
ATOM     18  C   UNL     1      46.287   1.989   7.940  0.00  0.00    +0.000 A 
ATOM     19  C   UNL     1      46.411   3.318   7.534  0.00  0.00    +0.000 A 
ATOM     20  C   UNL     1      45.584   4.306   8.093  0.00  0.00    +0.000 A 
ATOM     21  C   UNL     1      44.647   3.998   9.086  0.00  0.00    +0.000 A 
ATOM     22  C   UNL     1      44.532   2.656   9.476  0.00  0.00    +0.000 A 
ATOM     23  C   UNL     1      45.338   1.656   8.909  0.00  0.00    +0.000 A 
BRANCH  18  25
ATOM     24  N   UNL     1      46.821  -0.376   7.705  0.00  0.00    +0.000 N 
ATOM     25  C   UNL     1      47.100   0.909   7.326  0.00  0.00    +0.000 C 
ATOM     26  O   UNL     1      47.968   1.146   6.497  0.00  0.00    +0.000 OA
ATOM     27  H   UNL     1      47.321  -1.107   7.216  0.00  0.00    +0.000 HD
ATOM     28  H   UNL     1      45.966  -0.626   8.180  0.00  0.00    +0.000 HD
ENDBRANCH  18  25
ENDBRANCH  16  21
ENDBRANCH   1  16
TORSDOF 7
ENDMDL
MODEL 4
REMARK VINA RESULT:    -7.980      1.921      2.433
REMARK INTER + INTRA:         -12.227
REMARK INTER:                 -11.174
REMARK INTRA:                  -1.053
REMARK UNBOUND:                -0.981
REMARK  Name = 
REMARK  7 active torsions:
REMARK  status: ('A' for Active; 'I' for Inactive)
REMARK    1  A    between atoms: C_2  and  C_4
REMARK    2  A    between atoms: C_7  and  N_8
REMARK    3  A    between atoms: N_8  and  C_9
REMARK    4  A    between atoms: C_9  and  C_10
REMARK    5  A    between atoms: C_10  and  C_13
REMARK    6  A    between atoms: C_17  and  O_18
REMARK    7  A    between atoms: O_18  and  C_19
REMARK                            x       y       z     vdW  Elec       q    Type
REMARK                         _______ _______ _______ _____ _____    ______ ____
ROOT
ATOM      1  C   UNL     1      43.948   4.542  11.254  0.00  0.00    +0.000 C 
ENDROOT
BRANCH   1   2
ATOM      2  C   UNL     1      44.824   4.198  12.490  0.00  0.00    +0.000 C 
ATOM      3  F   UNL     1      44.035   4.215  13.606  0.00  0.00    +0.000 F 
ATOM      4  F   UNL     1      45.241   2.899  12.365  0.00  0.00    +0.000 F 
BRANCH   2   5
ATOM      5  C   UNL     1      45.987   5.168  12.607  0.00  0.00    +0.000 A 
ATOM      6  C   UNL     1      46.218   6.116  11.599  0.00  0.00    +0.000 A 
ATOM      7  C   UNL     1      47.310   6.981  11.678  0.00  0.00    +0.000 A 
ATOM      8  C   UNL     1      48.179   6.919  12.770  0.00  0.00    +0.000 A 
ATOM      9  C   UNL     1      47.954   5.998  13.791  0.00  0.00    +0.000 A 
ATOM     10  C   UNL     1      46.863   5.126  13.708  0.00  0.00    +0.000 A 
BRANCH   9  11
ATOM     11  O   UNL     1      48.708   5.920  14.938  0.00  0.00    +0.000 OA
BRANCH  11  12
ATOM     12  C   UNL     1      48.813   7.093  15.774  0.00  0.00    +0.000 C 
ATOM     13  C   UNL     1      50.201   7.751  15.826  0.00  0.00    +0.000 C 
ATOM     14  C   UNL     1      49.987   7.752  17.335  0.00  0.00    +0.000 C 
ATOM     15  O   UNL     1      48.875   6.836  17.208  0.00  0.00    +0.000 OA
ENDBRANCH  11  12
ENDBRANCH   9  11
ENDBRANCH   2   5
ENDBRANCH   1   2
BRANCH   1  16
ATOM     16  N   UNL     1      43.688   3.393  10.368  0.00  0.00    +0.000 N 
ATOM     17  H   UNL     1      43.254   2.589  10.822  0.00  0.00    +0.000 HD
BRANCH  16  21
ATOM     18  C   UNL     1      46.536   2.551   7.364  0.00  0.00    +0.000 A 
ATOM     19  C   UNL     1      46.040   1.515   8.156  0.00  0.00    +0.000 A 
ATOM     20  C   UNL     1      45.076   1.780   9.141  0.00  0.00    +0.000 A 
ATOM     21  C   UNL     1      44.564   3.067   9.335  0.00  0.00    +0.000 A 
ATOM     22  C   UNL     1      45.079   4.097   8.535  0.00  0.00    +0.000 A 
ATOM     23  C   UNL     1      46.059   3.849   7.561  0.00  0.00    +0.000 A 
BRANCH  18  25
ATOM     24  N   UNL     1      47.659   3.185   5.298  0.00  0.00    +0.000 N 
ATOM     25  C   UNL     1      47.600   2.318   6.355  0.00  0.00    +0.000 C 
ATOM     26  O   UNL     1      48.410   1.409   6.470  0.00  0.00    +0.000 OA
ATOM     27  H   UNL     1      48.440   3.069   4.666  0.00  0.00    +0.000 HD
ATOM     28  H   UNL     1      47.182   4.076   5.301  0.00  0.00    +0.000 HD
ENDBRANCH  18  25
ENDBRANCH  16  21
ENDBRANCH   1  16
TORSDOF 7
ENDMDL
MODEL 5
REMARK VINA RESULT:    -7.840      2.595      4.210
REMARK INTER + INTRA:         -12.030
REMARK INTER:                 -10.874
REMARK INTRA:                  -1.156
REMARK UNBOUND:                -0.981
REMARK  Name = 
REMARK  7 active torsions:
REMARK  status: ('A' for Active; 'I' for Inactive)
REMARK    1  A    between atoms: C_2  and  C_4
REMARK    2  A    between atoms: C_7  and  N_8
REMARK    3  A    between atoms: N_8  and  C_9
REMARK    4  A    between atoms: C_9  and  C_10
REMARK    5  A    between atoms: C_10  and  C_13
REMARK    6  A    between atoms: C_17  and  O_18
REMARK    7  A    between atoms: O_18  and  C_19
REMARK                            x       y       z     vdW  Elec       q    Type
REMARK                         _______ _______ _______ _____ _____    ______ ____
ROOT
ATOM      1  C   UNL     1      43.958   3.478  11.873  0.00  0.00    +0.000 C 
ENDROOT
BRANCH   1   2
ATOM      2  C   UNL     1      43.531   4.959  12.068  0.00  0.00    +0.000 C 
ATOM      3  F   UNL     1      42.701   5.315  11.043  0.00  0.00    +0.000 F 
ATOM      4  F   UNL     1      42.758   5.031  13.197  0.00  0.00    +0.000 F 
BRANCH   2   5
ATOM      5  C   UNL     1      44.751   5.860  12.146  0.00  0.00    +0.000 A 
ATOM      6  C   UNL     1      45.979   5.348  12.591  0.00  0.00    +0.000 A 
ATOM      7  C   UNL     1      47.093   6.180  12.707  0.00  0.00    +0.000 A 
ATOM      8  C   UNL     1      46.998   7.532  12.370  0.00  0.00    +0.000 A 
ATOM      9  C   UNL     1      45.793   8.055  11.906  0.00  0.00    +0.000 A 
ATOM     10  C   UNL     1      44.675   7.222  11.797  0.00  0.00    +0.000 A 
BRANCH   9  11
ATOM     11  O   UNL     1      45.630   9.350  11.477  0.00  0.00    +0.000 OA
BRANCH  11  12
ATOM     12  C   UNL     1      44.313   9.778  11.067  0.00  0.00    +0.000 C 
ATOM     13  C   UNL     1      44.271  11.001  10.135  0.00  0.00    +0.000 C 
ATOM     14  C   UNL     1      43.198  11.512  11.088  0.00  0.00    +0.000 C 
ATOM     15  O   UNL     1      43.551  10.511  12.071  0.00  0.00    +0.000 OA
ENDBRANCH  11  12
ENDBRANCH   9  11
ENDBRANCH   2   5
ENDBRANCH   1   2
BRANCH   1  16
ATOM     16  N   UNL     1      43.684   2.950  10.524  0.00  0.00    +0.000 N 
ATOM     17  H   UNL     1      43.066   2.139  10.497  0.00  0.00    +0.000 HD
BRANCH  16  21
ATOM     18  C   UNL     1      46.490   2.833   7.369  0.00  0.00    +0.000 A 
ATOM     19  C   UNL     1      45.910   4.049   7.733  0.00  0.00    +0.000 A 
ATOM     20  C   UNL     1      44.994   4.103   8.795  0.00  0.00    +0.000 A 
ATOM     21  C   UNL     1      44.664   2.962   9.534  0.00  0.00    +0.000 A 
ATOM     22  C   UNL     1      45.252   1.747   9.149  0.00  0.00    +0.000 A 
ATOM     23  C   UNL     1      46.152   1.677   8.075  0.00  0.00    +0.000 A 
BRANCH  18  25
ATOM     24  N   UNL     1      48.701   2.340   6.473  0.00  0.00    +0.000 N 
ATOM     25  C   UNL     1      47.414   2.728   6.211  0.00  0.00    +0.000 C 
ATOM     26  O   UNL     1      47.044   2.952   5.067  0.00  0.00    +0.000 OA
ATOM     27  H   UNL     1      49.295   2.188   5.669  0.00  0.00    +0.000 HD
ATOM     28  H   UNL     1      48.969   1.911   7.346  0.00  0.00    +0.000 HD
ENDBRANCH  18  25
ENDBRANCH  16  21
ENDBRANCH   1  16
TORSDOF 7
ENDMDL
MODEL 6
REMARK VINA RESULT:    -7.558      2.008      3.257
REMARK INTER + INTRA:         -11.633
REMARK INTER:                 -10.593
REMARK INTRA:                  -1.040
REMARK UNBOUND:                -0.981
REMARK  Name = 
REMARK  7 active torsions:
REMARK  status: ('A' for Active; 'I' for Inactive)
REMARK    1  A    between atoms: C_2  and  C_4
REMARK    2  A    between atoms: C_7  and  N_8
REMARK    3  A    between atoms: N_8  and  C_9
REMARK    4  A    between atoms: C_9  and  C_10
REMARK    5  A    between atoms: C_10  and  C_13
REMARK    6  A    between atoms: C_17  and  O_18
REMARK    7  A    between atoms: O_18  and  C_19
REMARK                            x       y       z     vdW  Elec       q    Type
REMARK                         _______ _______ _______ _____ _____    ______ ____
ROOT
ATOM      1  C   UNL     1      44.081   3.673  11.937  0.00  0.00    +0.000 C 
ENDROOT
BRANCH   1   2
ATOM      2  C   UNL     1      44.147   5.178  12.317  0.00  0.00    +0.000 C 
ATOM      3  F   UNL     1      43.685   5.917  11.265  0.00  0.00    +0.000 F 
ATOM      4  F   UNL     1      43.252   5.397  13.331  0.00  0.00    +0.000 F 
BRANCH   2   5
ATOM      5  C   UNL     1      45.563   5.569  12.703  0.00  0.00    +0.000 A 
ATOM      6  C   UNL     1      46.159   5.020  13.849  0.00  0.00    +0.000 A 
ATOM      7  C   UNL     1      47.442   5.408  14.233  0.00  0.00    +0.000 A 
ATOM      8  C   UNL     1      48.153   6.342  13.474  0.00  0.00    +0.000 A 
ATOM      9  C   UNL     1      47.586   6.882  12.322  0.00  0.00    +0.000 A 
ATOM     10  C   UNL     1      46.296   6.498  11.940  0.00  0.00    +0.000 A 
BRANCH   9  11
ATOM     11  O   UNL     1      48.239   7.743  11.473  0.00  0.00    +0.000 OA
BRANCH  11  12
ATOM     12  C   UNL     1      48.325   9.138  11.839  0.00  0.00    +0.000 C 
ATOM     13  C   UNL     1      49.672   9.590  12.426  0.00  0.00    +0.000 C 
ATOM     14  C   UNL     1      48.820  10.249  13.503  0.00  0.00    +0.000 C 
ATOM     15  O   UNL     1      47.656   9.501  13.082  0.00  0.00    +0.000 OA
ENDBRANCH  11  12
ENDBRANCH   9  11
ENDBRANCH   2   5
ENDBRANCH   1   2
BRANCH   1  16
ATOM     16  N   UNL     1      43.723   3.428  10.528  0.00  0.00    +0.000 N 
ATOM     17  H   UNL     1      42.900   2.841  10.389  0.00  0.00    +0.000 HD
BRANCH  16  21
ATOM     18  C   UNL     1      46.513   2.873   7.406  0.00  0.00    +0.000 A 
ATOM     19  C   UNL     1      46.132   4.165   7.770  0.00  0.00    +0.000 A 
ATOM     20  C   UNL     1      45.223   4.362   8.822  0.00  0.00    +0.000 A 
ATOM     21  C   UNL     1      44.704   3.286   9.550  0.00  0.00    +0.000 A 
ATOM     22  C   UNL     1      45.093   1.994   9.165  0.00  0.00    +0.000 A 
ATOM     23  C   UNL     1      45.984   1.784   8.101  0.00  0.00    +0.000 A 
BRANCH  18  25
ATOM     24  N   UNL     1      48.638   2.060   6.537  0.00  0.00    +0.000 N 
ATOM     25  C   UNL     1      47.423   2.625   6.259  0.00  0.00    +0.000 C 
ATOM     26  O   UNL     1      47.098   2.887   5.109  0.00  0.00    +0.000 OA
ATOM     27  H   UNL     1      49.212   1.816   5.741  0.00  0.00    +0.000 HD
ATOM     28  H   UNL     1      48.835   1.607   7.417  0.00  0.00    +0.000 HD
ENDBRANCH  18  25
ENDBRANCH  16  21
ENDBRANCH   1  16
TORSDOF 7
ENDMDL
MODEL 7
REMARK VINA RESULT:    -7.228      2.803      7.197
REMARK INTER + INTRA:         -11.167
REMARK INTER:                 -10.147
REMARK INTRA:                  -1.021
REMARK UNBOUND:                -0.981
REMARK  Name = 
REMARK  7 active torsions:
REMARK  status: ('A' for Active; 'I' for Inactive)
REMARK    1  A    between atoms: C_2  and  C_4
REMARK    2  A    between atoms: C_7  and  N_8
REMARK    3  A    between atoms: N_8  and  C_9
REMARK    4  A    between atoms: C_9  and  C_10
REMARK    5  A    between atoms: C_10  and  C_13
REMARK    6  A    between atoms: C_17  and  O_18
REMARK    7  A    between atoms: O_18  and  C_19
REMARK                            x       y       z     vdW  Elec       q    Type
REMARK                         _______ _______ _______ _____ _____    ______ ____
ROOT
ATOM      1  C   UNL     1      46.922   6.615  11.853  0.00  0.00    +0.000 C 
ENDROOT
BRANCH   1   2
ATOM      2  C   UNL     1      45.374   6.750  11.877  0.00  0.00    +0.000 C 
ATOM      3  F   UNL     1      45.003   7.323  13.061  0.00  0.00    +0.000 F 
ATOM      4  F   UNL     1      45.014   7.654  10.913  0.00  0.00    +0.000 F 
BRANCH   2   5
ATOM      5  C   UNL     1      44.716   5.397  11.674  0.00  0.00    +0.000 A 
ATOM      6  C   UNL     1      43.901   4.851  12.678  0.00  0.00    +0.000 A 
ATOM      7  C   UNL     1      43.329   3.590  12.517  0.00  0.00    +0.000 A 
ATOM      8  C   UNL     1      43.553   2.859  11.348  0.00  0.00    +0.000 A 
ATOM      9  C   UNL     1      44.342   3.393  10.331  0.00  0.00    +0.000 A 
ATOM     10  C   UNL     1      44.922   4.656  10.495  0.00  0.00    +0.000 A 
BRANCH   9  11
ATOM     11  O   UNL     1      44.551   2.782   9.117  0.00  0.00    +0.000 OA
BRANCH  11  12
ATOM     12  C   UNL     1      45.897   2.401   8.761  0.00  0.00    +0.000 C 
ATOM     13  C   UNL     1      46.367   2.843   7.365  0.00  0.00    +0.000 C 
ATOM     14  C   UNL     1      46.843   1.403   7.225  0.00  0.00    +0.000 C 
ATOM     15  O   UNL     1      46.073   1.004   8.383  0.00  0.00    +0.000 OA
ENDBRANCH  11  12
ENDBRANCH   9  11
ENDBRANCH   2   5
ENDBRANCH   1   2
BRANCH   1  16
ATOM     16  N   UNL     1      47.580   7.056  13.096  0.00  0.00    +0.000 N 
ATOM     17  H   UNL     1      48.331   7.735  12.967  0.00  0.00    +0.000 HD
BRANCH  16  21
ATOM     18  C   UNL     1      48.029   4.567  16.479  0.00  0.00    +0.000 A 
ATOM     19  C   UNL     1      47.267   4.129  15.395  0.00  0.00    +0.000 A 
ATOM     20  C   UNL     1      47.131   4.939  14.256  0.00  0.00    +0.000 A 
ATOM     21  C   UNL     1      47.773   6.178  14.159  0.00  0.00    +0.000 A 
ATOM     22  C   UNL     1      48.528   6.605  15.261  0.00  0.00    +0.000 A 
ATOM     23  C   UNL     1      48.654   5.814  16.414  0.00  0.00    +0.000 A 
BRANCH  18  25
ATOM     24  N   UNL     1      47.144   2.867  17.981  0.00  0.00    +0.000 N 
ATOM     25  C   UNL     1      48.144   3.766  17.723  0.00  0.00    +0.000 C 
ATOM     26  O   UNL     1      49.099   3.878  18.478  0.00  0.00    +0.000 OA
ATOM     27  H   UNL     1      47.277   2.267  18.784  0.00  0.00    +0.000 HD
ATOM     28  H   UNL     1      46.487   2.570  17.274  0.00  0.00    +0.000 HD
ENDBRANCH  18  25
ENDBRANCH  16  21
ENDBRANCH   1  16
TORSDOF 7
ENDMDL
MODEL 8
REMARK VINA RESULT:    -7.068      2.531      3.448
REMARK INTER + INTRA:         -10.941
REMARK INTER:                  -9.977
REMARK INTRA:                  -0.964
REMARK UNBOUND:                -0.981
REMARK  Name = 
REMARK  7 active torsions:
REMARK  status: ('A' for Active; 'I' for Inactive)
REMARK    1  A    between atoms: C_2  and  C_4
REMARK    2  A    between atoms: C_7  and  N_8
REMARK    3  A    between atoms: N_8  and  C_9
REMARK    4  A    between atoms: C_9  and  C_10
REMARK    5  A    between atoms: C_10  and  C_13
REMARK    6  A    between atoms: C_17  and  O_18
REMARK    7  A    between atoms: O_18  and  C_19
REMARK                            x       y       z     vdW  Elec       q    Type
REMARK                         _______ _______ _______ _____ _____    ______ ____
ROOT
ATOM      1  C   UNL     1      45.002   4.614  11.833  0.00  0.00    +0.000 C 
ENDROOT
BRANCH   1   2
ATOM      2  C   UNL     1      44.425   5.988  12.272  0.00  0.00    +0.000 C 
ATOM      3  F   UNL     1      43.373   6.302  11.458  0.00  0.00    +0.000 F 
ATOM      4  F   UNL     1      43.881   5.839  13.520  0.00  0.00    +0.000 F 
BRANCH   2   5
ATOM      5  C   UNL     1      45.504   7.056  12.237  0.00  0.00    +0.000 A 
ATOM      6  C   UNL     1      45.178   8.396  12.500  0.00  0.00    +0.000 A 
ATOM      7  C   UNL     1      46.155   9.389  12.427  0.00  0.00    +0.000 A 
ATOM      8  C   UNL     1      47.472   9.058  12.100  0.00  0.00    +0.000 A 
ATOM      9  C   UNL     1      47.819   7.731  11.855  0.00  0.00    +0.000 A 
ATOM     10  C   UNL     1      46.837   6.736  11.922  0.00  0.00    +0.000 A 
BRANCH   9  11
ATOM     11  O   UNL     1      49.101   7.303  11.606  0.00  0.00    +0.000 OA
BRANCH  11  12
ATOM     12  C   UNL     1      50.167   8.278  11.621  0.00  0.00    +0.000 C 
ATOM     13  C   UNL     1      51.498   7.818  11.005  0.00  0.00    +0.000 C 
ATOM     14  C   UNL     1      52.119   8.391  12.272  0.00  0.00    +0.000 C 
ATOM     15  O   UNL     1      50.823   8.467  12.909  0.00  0.00    +0.000 OA
ENDBRANCH  11  12
ENDBRANCH   9  11
ENDBRANCH   2   5
ENDBRANCH   1   2
BRANCH   1  16
ATOM     16  N   UNL     1      44.278   3.994  10.709  0.00  0.00    +0.000 N 
ATOM     17  H   UNL     1      43.507   3.383  10.979  0.00  0.00    +0.000 HD
BRANCH  16  21
ATOM     18  C   UNL     1      46.531   2.914   7.303  0.00  0.00    +0.000 A 
ATOM     19  C   UNL     1      46.000   1.918   8.124  0.00  0.00    +0.000 A 
ATOM     20  C   UNL     1      45.230   2.266   9.245  0.00  0.00    +0.000 A 
ATOM     21  C   UNL     1      44.946   3.602   9.551  0.00  0.00    +0.000 A 
ATOM     22  C   UNL     1      45.494   4.588   8.718  0.00  0.00    +0.000 A 
ATOM     23  C   UNL     1      46.284   4.254   7.607  0.00  0.00    +0.000 A 
BRANCH  18  25
ATOM     24  N   UNL     1      48.644   2.082   6.422  0.00  0.00    +0.000 N 
ATOM     25  C   UNL     1      47.401   2.585   6.146  0.00  0.00    +0.000 C 
ATOM     26  O   UNL     1      47.023   2.729   4.991  0.00  0.00    +0.000 OA
ATOM     27  H   UNL     1      49.193   1.781   5.628  0.00  0.00    +0.000 HD
ATOM     28  H   UNL     1      48.890   1.719   7.331  0.00  0.00    +0.000 HD
ENDBRANCH  18  25
ENDBRANCH  16  21
ENDBRANCH   1  16
TORSDOF 7
ENDMDL
MODEL 9
REMARK VINA RESULT:    -6.708      3.888      7.772
REMARK INTER + INTRA:         -10.434
REMARK INTER:                  -9.539
REMARK INTRA:                  -0.895
REMARK UNBOUND:                -0.981
REMARK  Name = 
REMARK  7 active torsions:
REMARK  status: ('A' for Active; 'I' for Inactive)
REMARK    1  A    between atoms: C_2  and  C_4
REMARK    2  A    between atoms: C_7  and  N_8
REMARK    3  A    between atoms: N_8  and  C_9
REMARK    4  A    between atoms: C_9  and  C_10
REMARK    5  A    between atoms: C_10  and  C_13
REMARK    6  A    between atoms: C_17  and  O_18
REMARK    7  A    between atoms: O_18  and  C_19
REMARK                            x       y       z     vdW  Elec       q    Type
REMARK                         _______ _______ _______ _____ _____    ______ ____
ROOT
ATOM      1  C   UNL     1      46.280   4.383  15.264  0.00  0.00    +0.000 C 
ENDROOT
BRANCH   1   2
ATOM      2  C   UNL     1      46.751   4.428  13.785  0.00  0.00    +0.000 C 
ATOM      3  F   UNL     1      47.607   5.481  13.628  0.00  0.00    +0.000 F 
ATOM      4  F   UNL     1      47.508   3.311  13.548  0.00  0.00    +0.000 F 
BRANCH   2   5
ATOM      5  C   UNL     1      45.559   4.526  12.848  0.00  0.00    +0.000 A 
ATOM      6  C   UNL     1      44.516   5.423  13.125  0.00  0.00    +0.000 A 
ATOM      7  C   UNL     1      43.399   5.488  12.293  0.00  0.00    +0.000 A 
ATOM      8  C   UNL     1      43.311   4.665  11.167  0.00  0.00    +0.000 A 
ATOM      9  C   UNL     1      44.346   3.783  10.864  0.00  0.00    +0.000 A 
ATOM     10  C   UNL     1      45.464   3.713  11.702  0.00  0.00    +0.000 A 
BRANCH   9  11
ATOM     11  O   UNL     1      44.382   2.996   9.737  0.00  0.00    +0.000 OA
BRANCH  11  12
ATOM     12  C   UNL     1      44.738   3.610   8.480  0.00  0.00    +0.000 C 
ATOM     13  C   UNL     1      45.802   2.868   7.654  0.00  0.00    +0.000 C 
ATOM     14  C   UNL     1      46.452   4.239   7.523  0.00  0.00    +0.000 C 
ATOM     15  O   UNL     1      45.616   4.770   8.577  0.00  0.00    +0.000 OA
ENDBRANCH  11  12
ENDBRANCH   9  11
ENDBRANCH   2   5
ENDBRANCH   1   2
BRANCH   1  16
ATOM     16  N   UNL     1      47.221   5.011  16.210  0.00  0.00    +0.000 N 
ATOM     17  H   UNL     1      47.390   6.005  16.052  0.00  0.00    +0.000 HD
BRANCH  16  21
ATOM     18  C   UNL     1      50.584   2.783  17.460  0.00  0.00    +0.000 A 
ATOM     19  C   UNL     1      50.643   4.177  17.453  0.00  0.00    +0.000 A 
ATOM     20  C   UNL     1      49.523   4.927  17.062  0.00  0.00    +0.000 A 
ATOM     21  C   UNL     1      48.318   4.311  16.704  0.00  0.00    +0.000 A 
ATOM     22  C   UNL     1      48.281   2.909  16.710  0.00  0.00    +0.000 A 
ATOM     23  C   UNL     1      49.401   2.147  17.078  0.00  0.00    +0.000 A 
BRANCH  18  25
ATOM     24  N   UNL     1      51.588   0.600  17.861  0.00  0.00    +0.000 N 
ATOM     25  C   UNL     1      51.768   1.956  17.807  0.00  0.00    +0.000 C 
ATOM     26  O   UNL     1      52.866   2.455  18.013  0.00  0.00    +0.000 OA
ATOM     27  H   UNL     1      52.419   0.044  18.013  0.00  0.00    +0.000 HD
ATOM     28  H   UNL     1      50.782   0.145  17.459  0.00  0.00    +0.000 HD
ENDBRANCH  18  25
ENDBRANCH  16  21
ENDBRANCH   1  16
TORSDOF 7
ENDMDL
