MODEL 1
REMARK VINA RESULT:    -6.771      0.000      0.000
REMARK INTER + INTRA:          -8.853
REMARK INTER:                  -8.156
REMARK INTRA:                  -0.697
REMARK UNBOUND:                -0.697
REMARK  Name = 
REMARK  4 active torsions:
REMARK  status: ('A' for Active; 'I' for Inactive)
REMARK    1  A    between atoms: N_1  and  C_2
REMARK    2  A    between atoms: C_2  and  C_3
REMARK    3  A    between atoms: C_6  and  C_7
REMARK    4  A    between atoms: C_7  and  N_8
REMARK                            x       y       z     vdW  Elec       q    Type
REMARK                         _______ _______ _______ _____ _____    ______ ____
ROOT
ATOM      1  C   UNL     1      44.566   6.637  11.397  0.00  0.00    +0.000 C 
ENDROOT
BRANCH   1   2
ATOM      2  N   UNL     1      44.238   5.251  11.089  0.00  0.00    +0.000 N 
ATOM      3  C   UNL     1      43.414   4.468  11.861  0.00  0.00    +0.000 A 
ATOM      4  C   UNL     1      43.422   3.195  11.341  0.00  0.00    +0.000 A 
ATOM      5  C   UNL     1      44.274   3.199  10.206  0.00  0.00    +0.000 A 
ATOM      6  C   UNL     1      44.672   2.201   9.291  0.00  0.00    +0.000 A 
ATOM      7  C   UNL     1      45.533   2.536   8.242  0.00  0.00    +0.000 A 
ATOM      8  C   UNL     1      45.988   3.839   8.106  0.00  0.00    +0.000 A 
ATOM      9  F   UNL     1      46.806   4.141   7.087  0.00  0.00    +0.000 F 
ATOM     10  C   UNL     1      45.622   4.848   8.999  0.00  0.00    +0.000 A 
ATOM     11  C   UNL     1      44.760   4.503  10.052  0.00  0.00    +0.000 A 
ENDBRANCH   1   2
BRANCH   1  15
ATOM     12  C   UNL     1      48.062   7.763  12.437  0.00  0.00    +0.000 C 
ATOM     13  C   UNL     1      47.622   6.305  12.220  0.00  0.00    +0.000 C 
ATOM     14  C   UNL     1      46.400   5.935  13.059  0.00  0.00    +0.000 C 
ATOM     15  C   UNL     1      45.198   6.853  12.789  0.00  0.00    +0.000 C 
ATOM     16  C   UNL     1      45.614   8.325  12.979  0.00  0.00    +0.000 C 
ATOM     17  C   UNL     1      46.875   8.712  12.197  0.00  0.00    +0.000 C 
BRANCH  12  18
ATOM     18  C   UNL     1      48.699   7.997  13.823  0.00  0.00    +0.000 C 
BRANCH  18  19
ATOM     19  N   UNL     1      49.742   7.016  14.103  0.00  0.00    +0.000 NA
ATOM     20  H   UNL     1      49.438   6.394  14.851  0.00  0.00    +0.000 HD
ATOM     21  H   UNL     1      50.579   7.488  14.442  0.00  0.00    +0.000 HD
ENDBRANCH  18  19
ENDBRANCH  12  18
ENDBRANCH   1  15
TORSDOF 4
ENDMDL
MODEL 2
REMARK VINA RESULT:    -5.756      3.806      7.053
REMARK INTER + INTRA:          -7.631
REMARK INTER:                  -7.273
REMARK INTRA:                  -0.358
REMARK UNBOUND:                -0.697
REMARK  Name = 
REMARK  4 active torsions:
REMARK  status: ('A' for Active; 'I' for Inactive)
REMARK    1  A    between atoms: N_1  and  C_2
REMARK    2  A    between atoms: C_2  and  C_3
REMARK    3  A    between atoms: C_6  and  C_7
REMARK    4  A    between atoms: C_7  and  N_8
REMARK                            x       y       z     vdW  Elec       q    Type
REMARK                         _______ _______ _______ _____ _____    ______ ____
ROOT
ATOM      1  C   UNL     1      47.472   5.608  13.412  0.00  0.00    +0.000 C 
ENDROOT
BRANCH   1   2
ATOM      2  N   UNL     1      48.030   5.968  14.709  0.00  0.00    +0.000 N 
ATOM      3  C   UNL     1      48.791   7.091  14.931  0.00  0.00    +0.000 A 
ATOM      4  C   UNL     1      49.241   7.053  16.230  0.00  0.00    +0.000 A 
ATOM      5  C   UNL     1      48.733   5.870  16.827  0.00  0.00    +0.000 A 
ATOM      6  C   UNL     1      48.862   5.302  18.113  0.00  0.00    +0.000 A 
ATOM      7  C   UNL     1      48.206   4.103  18.402  0.00  0.00    +0.000 A 
ATOM      8  C   UNL     1      47.434   3.481  17.432  0.00  0.00    +0.000 A 
ATOM      9  F   UNL     1      46.805   2.336  17.734  0.00  0.00    +0.000 F 
ATOM     10  C   UNL     1      47.293   4.011  16.148  0.00  0.00    +0.000 A 
ATOM     11  C   UNL     1      47.958   5.214  15.863  0.00  0.00    +0.000 A 
ENDBRANCH   1   2
BRANCH   1  15
ATOM     12  C   UNL     1      44.955   4.502  10.763  0.00  0.00    +0.000 C 
ATOM     13  C   UNL     1      45.773   5.805  10.728  0.00  0.00    +0.000 C 
ATOM     14  C   UNL     1      45.590   6.641  11.994  0.00  0.00    +0.000 C 
ATOM     15  C   UNL     1      45.957   5.868  13.270  0.00  0.00    +0.000 C 
ATOM     16  C   UNL     1      45.167   4.546  13.324  0.00  0.00    +0.000 C 
ATOM     17  C   UNL     1      45.280   3.711  12.043  0.00  0.00    +0.000 C 
BRANCH  12  18
ATOM     18  C   UNL     1      43.438   4.743  10.621  0.00  0.00    +0.000 C 
BRANCH  18  19
ATOM     19  N   UNL     1      42.667   3.734  11.341  0.00  0.00    +0.000 NA
ATOM     20  H   UNL     1      42.156   4.173  12.106  0.00  0.00    +0.000 HD
ATOM     21  H   UNL     1      43.297   3.056  11.765  0.00  0.00    +0.000 HD
ENDBRANCH  18  19
ENDBRANCH  12  18
ENDBRANCH   1  15
TORSDOF 4
ENDMDL
MODEL 3
REMARK VINA RESULT:    -5.600      2.741      6.182
REMARK INTER + INTRA:          -7.443
REMARK INTER:                  -6.933
REMARK INTRA:                  -0.510
REMARK UNBOUND:                -0.697
REMARK  Name = 
REMARK  4 active torsions:
REMARK  status: ('A' for Active; 'I' for Inactive)
REMARK    1  A    between atoms: N_1  and  C_2
REMARK    2  A    between atoms: C_2  and  C_3
REMARK    3  A    between atoms: C_6  and  C_7
REMARK    4  A    between atoms: C_7  and  N_8
REMARK                            x       y       z     vdW  Elec       q    Type
REMARK                         _______ _______ _______ _____ _____    ______ ____
ROOT
ATOM      1  C   UNL     1      45.035   7.500  12.681  0.00  0.00    +0.000 C 
ENDROOT
BRANCH   1   2
ATOM      2  N   UNL     1      45.714   8.747  12.353  0.00  0.00    +0.000 N 
ATOM      3  C   UNL     1      45.068   9.943  12.157  0.00  0.00    +0.000 A 
ATOM      4  C   UNL     1      46.000  10.871  11.754  0.00  0.00    +0.000 A 
ATOM      5  C   UNL     1      47.262  10.224  11.710  0.00  0.00    +0.000 A 
ATOM      6  C   UNL     1      48.560  10.657  11.367  0.00  0.00    +0.000 A 
ATOM      7  C   UNL     1      49.627   9.757  11.444  0.00  0.00    +0.000 A 
ATOM      8  C   UNL     1      49.405   8.451  11.856  0.00  0.00    +0.000 A 
ATOM      9  F   UNL     1      50.443   7.606  11.932  0.00  0.00    +0.000 F 
ATOM     10  C   UNL     1      48.132   7.988  12.193  0.00  0.00    +0.000 A 
ATOM     11  C   UNL     1      47.066   8.896  12.110  0.00  0.00    +0.000 A 
ENDBRANCH   1   2
BRANCH   1  15
ATOM     12  C   UNL     1      43.777   3.901  12.481  0.00  0.00    +0.000 C 
ATOM     13  C   UNL     1      45.252   4.326  12.581  0.00  0.00    +0.000 C 
ATOM     14  C   UNL     1      45.651   5.309  11.481  0.00  0.00    +0.000 C 
ATOM     15  C   UNL     1      44.777   6.573  11.473  0.00  0.00    +0.000 C 
ATOM     16  C   UNL     1      43.290   6.178  11.394  0.00  0.00    +0.000 C 
ATOM     17  C   UNL     1      42.872   5.145  12.447  0.00  0.00    +0.000 C 
BRANCH  12  18
ATOM     18  C   UNL     1      43.502   2.972  11.280  0.00  0.00    +0.000 C 
BRANCH  18  19
ATOM     19  N   UNL     1      43.075   1.646  11.717  0.00  0.00    +0.000 NA
ATOM     20  H   UNL     1      42.316   1.734  12.391  0.00  0.00    +0.000 HD
ATOM     21  H   UNL     1      43.840   1.179  12.202  0.00  0.00    +0.000 HD
ENDBRANCH  18  19
ENDBRANCH  12  18
ENDBRANCH   1  15
TORSDOF 4
ENDMDL
MODEL 4
REMARK VINA RESULT:    -5.531      4.024      5.199
REMARK INTER + INTRA:          -7.359
REMARK INTER:                  -7.036
REMARK INTRA:                  -0.323
REMARK UNBOUND:                -0.697
REMARK  Name = 
REMARK  4 active torsions:
REMARK  status: ('A' for Active; 'I' for Inactive)
REMARK    1  A    between atoms: N_1  and  C_2
REMARK    2  A    between atoms: C_2  and  C_3
REMARK    3  A    between atoms: C_6  and  C_7
REMARK    4  A    between atoms: C_7  and  N_8
REMARK                            x       y       z     vdW  Elec       q    Type
REMARK                         _______ _______ _______ _____ _____    ______ ____
ROOT
ATOM      1  C   UNL     1      47.491   3.999  14.734  0.00  0.00    +0.000 C 
ENDROOT
BRANCH   1   2
ATOM      2  N   UNL     1      47.070   4.792  13.586  0.00  0.00    +0.000 N 
ATOM      3  C   UNL     1      47.682   5.959  13.196  0.00  0.00    +0.000 A 
ATOM      4  C   UNL     1      46.958   6.494  12.156  0.00  0.00    +0.000 A 
ATOM      5  C   UNL     1      45.869   5.622  11.895  0.00  0.00    +0.000 A 
ATOM      6  C   UNL     1      44.806   5.652  10.968  0.00  0.00    +0.000 A 
ATOM      7  C   UNL     1      43.881   4.604  10.951  0.00  0.00    +0.000 A 
ATOM      8  C   UNL     1      44.012   3.547  11.840  0.00  0.00    +0.000 A 
ATOM      9  F   UNL     1      43.118   2.548  11.801  0.00  0.00    +0.000 F 
ATOM     10  C   UNL     1      45.046   3.492  12.776  0.00  0.00    +0.000 A 
ATOM     11  C   UNL     1      45.969   4.548  12.789  0.00  0.00    +0.000 A 
ENDBRANCH   1   2
BRANCH   1  15
ATOM     12  C   UNL     1      49.317   3.794  18.080  0.00  0.00    +0.000 C 
ATOM     13  C   UNL     1      48.191   2.853  17.620  0.00  0.00    +0.000 C 
ATOM     14  C   UNL     1      46.928   3.612  17.215  0.00  0.00    +0.000 C 
ATOM     15  C   UNL     1      47.188   4.642  16.105  0.00  0.00    +0.000 C 
ATOM     16  C   UNL     1      48.327   5.588  16.529  0.00  0.00    +0.000 C 
ATOM     17  C   UNL     1      49.590   4.857  17.000  0.00  0.00    +0.000 C 
BRANCH  12  18
ATOM     18  C   UNL     1      49.032   4.445  19.450  0.00  0.00    +0.000 C 
BRANCH  18  19
ATOM     19  N   UNL     1      48.461   3.484  20.389  0.00  0.00    +0.000 NA
ATOM     20  H   UNL     1      48.711   3.744  21.342  0.00  0.00    +0.000 HD
ATOM     21  H   UNL     1      48.861   2.562  20.226  0.00  0.00    +0.000 HD
ENDBRANCH  18  19
ENDBRANCH  12  18
ENDBRANCH   1  15
TORSDOF 4
ENDMDL
MODEL 5
REMARK VINA RESULT:    -5.522      2.695      6.341
REMARK INTER + INTRA:          -7.349
REMARK INTER:                  -6.994
REMARK INTRA:                  -0.355
REMARK UNBOUND:                -0.697
REMARK  Name = 
REMARK  4 active torsions:
REMARK  status: ('A' for Active; 'I' for Inactive)
REMARK    1  A    between atoms: N_1  and  C_2
REMARK    2  A    between atoms: C_2  and  C_3
REMARK    3  A    between atoms: C_6  and  C_7
REMARK    4  A    between atoms: C_7  and  N_8
REMARK                            x       y       z     vdW  Elec       q    Type
REMARK                         _______ _______ _______ _____ _____    ______ ____
ROOT
ATOM      1  C   UNL     1      47.144   6.402  12.419  0.00  0.00    +0.000 C 
ENDROOT
BRANCH   1   2
ATOM      2  N   UNL     1      47.563   7.788  12.248  0.00  0.00    +0.000 N 
ATOM      3  C   UNL     1      46.722   8.866  12.392  0.00  0.00    +0.000 A 
ATOM      4  C   UNL     1      47.419  10.000  12.048  0.00  0.00    +0.000 A 
ATOM      5  C   UNL     1      48.734   9.606  11.689  0.00  0.00    +0.000 A 
ATOM      6  C   UNL     1      49.872  10.316  11.249  0.00  0.00    +0.000 A 
ATOM      7  C   UNL     1      51.055   9.621  10.987  0.00  0.00    +0.000 A 
ATOM      8  C   UNL     1      51.106   8.246  11.159  0.00  0.00    +0.000 A 
ATOM      9  F   UNL     1      52.255   7.600  10.910  0.00  0.00    +0.000 F 
ATOM     10  C   UNL     1      49.997   7.512  11.583  0.00  0.00    +0.000 A 
ATOM     11  C   UNL     1      48.811   8.216  11.841  0.00  0.00    +0.000 A 
ENDBRANCH   1   2
BRANCH   1  15
ATOM     12  C   UNL     1      44.866   3.582  11.223  0.00  0.00    +0.000 C 
ATOM     13  C   UNL     1      45.226   4.841  10.415  0.00  0.00    +0.000 C 
ATOM     14  C   UNL     1      44.909   6.129  11.175  0.00  0.00    +0.000 C 
ATOM     15  C   UNL     1      45.618   6.203  12.536  0.00  0.00    +0.000 C 
ATOM     16  C   UNL     1      45.292   4.943  13.361  0.00  0.00    +0.000 C 
ATOM     17  C   UNL     1      45.542   3.632  12.605  0.00  0.00    +0.000 C 
BRANCH  12  18
ATOM     18  C   UNL     1      43.344   3.365  11.348  0.00  0.00    +0.000 C 
BRANCH  18  19
ATOM     19  N   UNL     1      43.030   1.991  11.726  0.00  0.00    +0.000 NA
ATOM     20  H   UNL     1      42.143   1.965  12.227  0.00  0.00    +0.000 HD
ATOM     21  H   UNL     1      43.737   1.638  12.369  0.00  0.00    +0.000 HD
ENDBRANCH  18  19
ENDBRANCH  12  18
ENDBRANCH   1  15
TORSDOF 4
ENDMDL
MODEL 6
REMARK VINA RESULT:    -5.350      1.894      2.596
REMARK INTER + INTRA:          -7.142
REMARK INTER:                  -6.701
REMARK INTRA:                  -0.441
REMARK UNBOUND:                -0.697
REMARK  Name = 
REMARK  4 active torsions:
REMARK  status: ('A' for Active; 'I' for Inactive)
REMARK    1  A    between atoms: N_1  and  C_2
REMARK    2  A    between atoms: C_2  and  C_3
REMARK    3  A    between atoms: C_6  and  C_7
REMARK    4  A    between atoms: C_7  and  N_8
REMARK                            x       y       z     vdW  Elec       q    Type
REMARK                         _______ _______ _______ _____ _____    ______ ____
ROOT
ATOM      1  C   UNL     1      45.073   5.153   9.645  0.00  0.00    +0.000 C 
ENDROOT
BRANCH   1   2
ATOM      2  N   UNL     1      45.023   3.725   9.361  0.00  0.00    +0.000 N 
ATOM      3  C   UNL     1      44.184   2.845  10.001  0.00  0.00    +0.000 A 
ATOM      4  C   UNL     1      44.484   1.575   9.568  0.00  0.00    +0.000 A 
ATOM      5  C   UNL     1      45.539   1.680   8.624  0.00  0.00    +0.000 A 
ATOM      6  C   UNL     1      46.256   0.731   7.864  0.00  0.00    +0.000 A 
ATOM      7  C   UNL     1      47.252   1.167   6.986  0.00  0.00    +0.000 A 
ATOM      8  C   UNL     1      47.528   2.520   6.865  0.00  0.00    +0.000 A 
ATOM      9  F   UNL     1      48.481   2.917   6.010  0.00  0.00    +0.000 F 
ATOM     10  C   UNL     1      46.844   3.484   7.609  0.00  0.00    +0.000 A 
ATOM     11  C   UNL     1      45.848   3.039   8.491  0.00  0.00    +0.000 A 
ENDBRANCH   1   2
BRANCH   1  15
ATOM     12  C   UNL     1      46.275   8.108  11.743  0.00  0.00    +0.000 C 
ATOM     13  C   UNL     1      47.008   6.763  11.594  0.00  0.00    +0.000 C 
ATOM     14  C   UNL     1      46.120   5.574  11.957  0.00  0.00    +0.000 C 
ATOM     15  C   UNL     1      44.830   5.523  11.124  0.00  0.00    +0.000 C 
ATOM     16  C   UNL     1      44.083   6.866  11.237  0.00  0.00    +0.000 C 
ATOM     17  C   UNL     1      44.964   8.085  10.937  0.00  0.00    +0.000 C 
BRANCH  12  18
ATOM     18  C   UNL     1      46.025   8.494  13.215  0.00  0.00    +0.000 C 
BRANCH  18  19
ATOM     19  N   UNL     1      44.970   9.496  13.332  0.00  0.00    +0.000 NA
ATOM     20  H   UNL     1      44.689   9.588  14.308  0.00  0.00    +0.000 HD
ATOM     21  H   UNL     1      44.144   9.190  12.821  0.00  0.00    +0.000 HD
ENDBRANCH  18  19
ENDBRANCH  12  18
ENDBRANCH   1  15
TORSDOF 4
ENDMDL
MODEL 7
REMARK VINA RESULT:    -5.082      3.039      6.879
REMARK INTER + INTRA:          -6.818
REMARK INTER:                  -6.295
REMARK INTRA:                  -0.524
REMARK UNBOUND:                -0.697
REMARK  Name = 
REMARK  4 active torsions:
REMARK  status: ('A' for Active; 'I' for Inactive)
REMARK    1  A    between atoms: N_1  and  C_2
REMARK    2  A    between atoms: C_2  and  C_3
REMARK    3  A    between atoms: C_6  and  C_7
REMARK    4  A    between atoms: C_7  and  N_8
REMARK                            x       y       z     vdW  Elec       q    Type
REMARK                         _______ _______ _______ _____ _____    ______ ____
ROOT
ATOM      1  C   UNL     1      46.352   7.001  12.909  0.00  0.00    +0.000 C 
ENDROOT
BRANCH   1   2
ATOM      2  N   UNL     1      47.633   7.689  13.010  0.00  0.00    +0.000 N 
ATOM      3  C   UNL     1      48.089   8.600  12.088  0.00  0.00    +0.000 A 
ATOM      4  C   UNL     1      49.371   8.956  12.438  0.00  0.00    +0.000 A 
ATOM      5  C   UNL     1      49.709   8.245  13.618  0.00  0.00    +0.000 A 
ATOM      6  C   UNL     1      50.870   8.197  14.420  0.00  0.00    +0.000 A 
ATOM      7  C   UNL     1      50.883   7.389  15.560  0.00  0.00    +0.000 A 
ATOM      8  C   UNL     1      49.763   6.642  15.895  0.00  0.00    +0.000 A 
ATOM      9  F   UNL     1      49.794   5.880  16.998  0.00  0.00    +0.000 F 
ATOM     10  C   UNL     1      48.603   6.659  15.119  0.00  0.00    +0.000 A 
ATOM     11  C   UNL     1      48.598   7.471  13.974  0.00  0.00    +0.000 A 
ENDBRANCH   1   2
BRANCH   1  15
ATOM     12  C   UNL     1      43.574   4.598  11.869  0.00  0.00    +0.000 C 
ATOM     13  C   UNL     1      44.428   4.476  13.143  0.00  0.00    +0.000 C 
ATOM     14  C   UNL     1      45.926   4.465  12.840  0.00  0.00    +0.000 C 
ATOM     15  C   UNL     1      46.382   5.710  12.063  0.00  0.00    +0.000 C 
ATOM     16  C   UNL     1      45.529   5.870  10.789  0.00  0.00    +0.000 C 
ATOM     17  C   UNL     1      44.019   5.824  11.052  0.00  0.00    +0.000 C 
BRANCH  12  18
ATOM     18  C   UNL     1      43.591   3.314  11.012  0.00  0.00    +0.000 C 
BRANCH  18  19
ATOM     19  N   UNL     1      43.037   2.178  11.742  0.00  0.00    +0.000 NA
ATOM     20  H   UNL     1      43.487   1.318  11.433  0.00  0.00    +0.000 HD
ATOM     21  H   UNL     1      42.046   2.079  11.528  0.00  0.00    +0.000 HD
ENDBRANCH  18  19
ENDBRANCH  12  18
ENDBRANCH   1  15
TORSDOF 4
ENDMDL
MODEL 8
REMARK VINA RESULT:    -4.730      4.242      5.874
REMARK INTER + INTRA:          -6.394
REMARK INTER:                  -5.982
REMARK INTRA:                  -0.413
REMARK UNBOUND:                -0.697
REMARK  Name = 
REMARK  4 active torsions:
REMARK  status: ('A' for Active; 'I' for Inactive)
REMARK    1  A    between atoms: N_1  and  C_2
REMARK    2  A    between atoms: C_2  and  C_3
REMARK    3  A    between atoms: C_6  and  C_7
REMARK    4  A    between atoms: C_7  and  N_8
REMARK                            x       y       z     vdW  Elec       q    Type
REMARK                         _______ _______ _______ _____ _____    ______ ____
ROOT
ATOM      1  C   UNL     1      47.789   5.018  15.798  0.00  0.00    +0.000 C 
ENDROOT
BRANCH   1   2
ATOM      2  N   UNL     1      47.666   5.587  14.462  0.00  0.00    +0.000 N 
ATOM      3  C   UNL     1      48.396   6.662  14.016  0.00  0.00    +0.000 A 
ATOM      4  C   UNL     1      47.942   6.996  12.762  0.00  0.00    +0.000 A 
ATOM      5  C   UNL     1      46.903   6.091  12.424  0.00  0.00    +0.000 A 
ATOM      6  C   UNL     1      46.072   5.949  11.292  0.00  0.00    +0.000 A 
ATOM      7  C   UNL     1      45.131   4.916  11.256  0.00  0.00    +0.000 A 
ATOM      8  C   UNL     1      45.019   4.041  12.326  0.00  0.00    +0.000 A 
ATOM      9  F   UNL     1      44.116   3.052  12.267  0.00  0.00    +0.000 F 
ATOM     10  C   UNL     1      45.818   4.159  13.465  0.00  0.00    +0.000 A 
ATOM     11  C   UNL     1      46.759   5.200  13.495  0.00  0.00    +0.000 A 
ENDBRANCH   1   2
BRANCH   1  15
ATOM     12  C   UNL     1      48.401   4.880  19.564  0.00  0.00    +0.000 C 
ATOM     13  C   UNL     1      47.516   5.910  18.841  0.00  0.00    +0.000 C 
ATOM     14  C   UNL     1      48.268   6.646  17.733  0.00  0.00    +0.000 C 
ATOM     15  C   UNL     1      48.860   5.690  16.685  0.00  0.00    +0.000 C 
ATOM     16  C   UNL     1      49.736   4.631  17.383  0.00  0.00    +0.000 C 
ATOM     17  C   UNL     1      49.031   3.917  18.541  0.00  0.00    +0.000 C 
BRANCH  12  18
ATOM     18  C   UNL     1      49.476   5.534  20.457  0.00  0.00    +0.000 C 
BRANCH  18  19
ATOM     19  N   UNL     1      50.331   4.531  21.084  0.00  0.00    +0.000 NA
ATOM     20  H   UNL     1      51.296   4.857  21.092  0.00  0.00    +0.000 HD
ATOM     21  H   UNL     1      50.320   3.674  20.534  0.00  0.00    +0.000 HD
ENDBRANCH  18  19
ENDBRANCH  12  18
ENDBRANCH   1  15
TORSDOF 4
ENDMDL
MODEL 9
REMARK VINA RESULT:    -4.672      2.833      6.716
REMARK INTER + INTRA:          -6.325
REMARK INTER:                  -5.768
REMARK INTRA:                  -0.556
REMARK UNBOUND:                -0.697
REMARK  Name = 
REMARK  4 active torsions:
REMARK  status: ('A' for Active; 'I' for Inactive)
REMARK    1  A    between atoms: N_1  and  C_2
REMARK    2  A    between atoms: C_2  and  C_3
REMARK    3  A    between atoms: C_6  and  C_7
REMARK    4  A    between atoms: C_7  and  N_8
REMARK                            x       y       z     vdW  Elec       q    Type
REMARK                         _______ _______ _______ _____ _____    ______ ____
ROOT
ATOM      1  C   UNL     1      47.775   6.374  12.629  0.00  0.00    +0.000 C 
ENDROOT
BRANCH   1   2
ATOM      2  N   UNL     1      48.768   7.301  13.157  0.00  0.00    +0.000 N 
ATOM      3  C   UNL     1      49.482   7.084  14.311  0.00  0.00    +0.000 A 
ATOM      4  C   UNL     1      50.235   8.206  14.565  0.00  0.00    +0.000 A 
ATOM      5  C   UNL     1      49.980   9.141  13.529  0.00  0.00    +0.000 A 
ATOM      6  C   UNL     1      50.449  10.446  13.265  0.00  0.00    +0.000 A 
ATOM      7  C   UNL     1      50.009  11.114  12.119  0.00  0.00    +0.000 A 
ATOM      8  C   UNL     1      49.119  10.495  11.252  0.00  0.00    +0.000 A 
ATOM      9  F   UNL     1      48.717  11.151  10.154  0.00  0.00    +0.000 F 
ATOM     10  C   UNL     1      48.629   9.210  11.489  0.00  0.00    +0.000 A 
ATOM     11  C   UNL     1      49.073   8.546  12.643  0.00  0.00    +0.000 A 
ENDBRANCH   1   2
BRANCH   1  15
ATOM     12  C   UNL     1      44.313   5.142  11.594  0.00  0.00    +0.000 C 
ATOM     13  C   UNL     1      44.866   6.557  11.351  0.00  0.00    +0.000 C 
ATOM     14  C   UNL     1      45.346   7.223  12.640  0.00  0.00    +0.000 C 
ATOM     15  C   UNL     1      46.419   6.398  13.367  0.00  0.00    +0.000 C 
ATOM     16  C   UNL     1      45.902   4.966  13.606  0.00  0.00    +0.000 C 
ATOM     17  C   UNL     1      45.355   4.291  12.343  0.00  0.00    +0.000 C 
BRANCH  12  18
ATOM     18  C   UNL     1      42.957   5.146  12.329  0.00  0.00    +0.000 C 
BRANCH  18  19
ATOM     19  N   UNL     1      42.037   6.117  11.746  0.00  0.00    +0.000 NA
ATOM     20  H   UNL     1      41.135   6.064  12.218  0.00  0.00    +0.000 HD
ATOM     21  H   UNL     1      41.865   5.888  10.768  0.00  0.00    +0.000 HD
ENDBRANCH  18  19
ENDBRANCH  12  18
ENDBRANCH   1  15
TORSDOF 4
ENDMDL
