MODEL 1
REMARK VINA RESULT:    -7.442      0.000      0.000
REMARK INTER + INTRA:         -10.265
REMARK INTER:                  -9.617
REMARK INTRA:                  -0.648
REMARK UNBOUND:                -0.648
REMARK  Name = 
REMARK  10 active torsions:
REMARK  status: ('A' for Active; 'I' for Inactive)
REMARK    1  A    between atoms: C_1  and  C_2
REMARK    2  A    between atoms: C_7  and  C_8
REMARK    3  A    between atoms: C_8  and  C_9
REMARK    4  A    between atoms: C_8  and  C_10
REMARK    5  A    between atoms: C_8  and  C_11
REMARK    6  A    between atoms: C_11  and  N_12
REMARK    7  A    between atoms: N_12  and  C_13
REMARK    8  A    between atoms: C_16  and  S_17
REMARK    9  A    between atoms: S_17  and  C_18
REMARK   10  A    between atoms: C_27  and  C_28
REMARK                            x       y       z     vdW  Elec       q    Type
REMARK                         _______ _______ _______ _____ _____    ______ ____
ROOT
ATOM      1  C   UNL     1      44.015   4.552  12.381  0.00  0.00    +0.000 C 
ATOM      2  C   UNL     1      44.986   3.352  12.537  0.00  0.00    +0.000 C 
ATOM      3  C   UNL     1      43.184   4.664  13.679  0.00  0.00    +0.000 C 
ENDROOT
BRANCH   1  10
ATOM      4  C   UNL     1      48.710  10.259  12.880  0.00  0.00    +0.000 C 
ATOM      5  C   UNL     1      49.692   9.164  12.476  0.00  0.00    +0.000 C 
ATOM      6  C   UNL     1      49.075   8.093  11.560  0.00  0.00    +0.000 C 
ATOM      7  N   UNL     1      48.266   7.115  12.289  0.00  0.00    +0.000 N 
ATOM      8  C   UNL     1      46.889   7.147  12.161  0.00  0.00    +0.000 A 
ATOM      9  C   UNL     1      46.183   5.950  12.313  0.00  0.00    +0.000 A 
ATOM     10  C   UNL     1      44.788   5.878  12.184  0.00  0.00    +0.000 A 
ATOM     11  C   UNL     1      44.141   7.082  11.890  0.00  0.00    +0.000 A 
ATOM     12  C   UNL     1      44.901   8.235  11.736  0.00  0.00    +0.000 A 
ATOM     13  N   UNL     1      46.248   8.286  11.848  0.00  0.00    +0.000 NA
ATOM     14  C   UNL     1      48.840   6.619  13.548  0.00  0.00    +0.000 C 
ATOM     15  C   UNL     1      49.446   7.757  14.395  0.00  0.00    +0.000 C 
ATOM     16  C   UNL     1      50.251   7.179  15.555  0.00  0.00    +0.000 C 
ATOM     17  O   UNL     1      50.336   8.581  13.626  0.00  0.00    +0.000 OA
ENDBRANCH   1  10
BRANCH   1  18
ATOM     18  C   UNL     1      43.079   4.283  11.157  0.00  0.00    +0.000 C 
BRANCH  18  19
ATOM     19  N   UNL     1      43.622   4.787   9.891  0.00  0.00    +0.000 N 
ATOM     20  H   UNL     1      42.974   5.270   9.276  0.00  0.00    +0.000 HD
BRANCH  19  21
ATOM     21  C   UNL     1      44.626   4.115   9.197  0.00  0.00    +0.000 A 
ATOM     22  C   UNL     1      45.585   4.760   8.406  0.00  0.00    +0.000 A 
ATOM     23  C   UNL     1      46.492   4.036   7.625  0.00  0.00    +0.000 A 
ATOM     24  C   UNL     1      46.433   2.642   7.611  0.00  0.00    +0.000 A 
ATOM     25  C   UNL     1      45.483   1.973   8.372  0.00  0.00    +0.000 A 
ATOM     26  C   UNL     1      44.589   2.710   9.162  0.00  0.00    +0.000 A 
BRANCH  24  27
ATOM     27  S   UNL     1      47.489   1.739   6.506  0.00  0.00    +0.000 S 
ATOM     28  C   UNL     1      47.155   2.428   4.912  0.00  0.00    +0.000 C 
ATOM     29  O   UNL     1      48.865   2.061   6.854  0.00  0.00    +0.000 OA
ATOM     30  O   UNL     1      47.038   0.359   6.503  0.00  0.00    +0.000 OA
ENDBRANCH  24  27
ENDBRANCH  19  21
ENDBRANCH  18  19
ENDBRANCH   1  18
TORSDOF 5
ENDMDL
MODEL 2
REMARK VINA RESULT:    -7.055      3.613      8.265
REMARK INTER + INTRA:          -9.765
REMARK INTER:                  -8.687
REMARK INTRA:                  -1.078
REMARK UNBOUND:                -0.648
REMARK  Name = 
REMARK  10 active torsions:
REMARK  status: ('A' for Active; 'I' for Inactive)
REMARK    1  A    between atoms: C_1  and  C_2
REMARK    2  A    between atoms: C_7  and  C_8
REMARK    3  A    between atoms: C_8  and  C_9
REMARK    4  A    between atoms: C_8  and  C_10
REMARK    5  A    between atoms: C_8  and  C_11
REMARK    6  A    between atoms: C_11  and  N_12
REMARK    7  A    between atoms: N_12  and  C_13
REMARK    8  A    between atoms: C_16  and  S_17
REMARK    9  A    between atoms: S_17  and  C_18
REMARK   10  A    between atoms: C_27  and  C_28
REMARK                            x       y       z     vdW  Elec       q    Type
REMARK                         _______ _______ _______ _____ _____    ______ ____
ROOT
ATOM      1  C   UNL     1      49.058   8.766  11.997  0.00  0.00    +0.000 C 
ATOM      2  C   UNL     1      49.852   7.651  11.265  0.00  0.00    +0.000 C 
ATOM      3  C   UNL     1      49.027  10.010  11.081  0.00  0.00    +0.000 C 
ENDROOT
BRANCH   1  10
ATOM      4  C   UNL     1      42.312   5.720  11.719  0.00  0.00    +0.000 C 
ATOM      5  C   UNL     1      43.146   4.458  11.912  0.00  0.00    +0.000 C 
ATOM      6  C   UNL     1      44.413   4.682  12.755  0.00  0.00    +0.000 C 
ATOM      7  N   UNL     1      45.501   5.301  11.997  0.00  0.00    +0.000 N 
ATOM      8  C   UNL     1      45.837   6.619  12.248  0.00  0.00    +0.000 A 
ATOM      9  C   UNL     1      47.159   7.019  12.028  0.00  0.00    +0.000 A 
ATOM     10  C   UNL     1      47.599   8.329  12.270  0.00  0.00    +0.000 A 
ATOM     11  C   UNL     1      46.631   9.216  12.750  0.00  0.00    +0.000 A 
ATOM     12  C   UNL     1      45.338   8.754  12.963  0.00  0.00    +0.000 A 
ATOM     13  N   UNL     1      44.932   7.483  12.740  0.00  0.00    +0.000 NA
ATOM     14  C   UNL     1      45.725   4.768  10.646  0.00  0.00    +0.000 C 
ATOM     15  C   UNL     1      44.402   4.563   9.878  0.00  0.00    +0.000 C 
ATOM     16  C   UNL     1      44.653   3.776   8.596  0.00  0.00    +0.000 C 
ATOM     17  O   UNL     1      43.444   3.823  10.653  0.00  0.00    +0.000 OA
ENDBRANCH   1  10
BRANCH   1  18
ATOM     18  C   UNL     1      49.785   9.098  13.342  0.00  0.00    +0.000 C 
BRANCH  18  19
ATOM     19  N   UNL     1      50.638   8.006  13.823  0.00  0.00    +0.000 N 
ATOM     20  H   UNL     1      51.083   7.429  13.116  0.00  0.00    +0.000 HD
BRANCH  19  21
ATOM     21  C   UNL     1      50.352   7.304  14.992  0.00  0.00    +0.000 A 
ATOM     22  C   UNL     1      51.331   6.880  15.899  0.00  0.00    +0.000 A 
ATOM     23  C   UNL     1      51.009   6.067  16.991  0.00  0.00    +0.000 A 
ATOM     24  C   UNL     1      49.692   5.647  17.175  0.00  0.00    +0.000 A 
ATOM     25  C   UNL     1      48.701   6.037  16.284  0.00  0.00    +0.000 A 
ATOM     26  C   UNL     1      49.033   6.864  15.202  0.00  0.00    +0.000 A 
BRANCH  24  27
ATOM     27  S   UNL     1      49.321   4.497  18.477  0.00  0.00    +0.000 S 
ATOM     28  C   UNL     1      49.473   2.906  17.719  0.00  0.00    +0.000 C 
ATOM     29  O   UNL     1      50.368   4.617  19.479  0.00  0.00    +0.000 OA
ATOM     30  O   UNL     1      47.930   4.689  18.843  0.00  0.00    +0.000 OA
ENDBRANCH  24  27
ENDBRANCH  19  21
ENDBRANCH  18  19
ENDBRANCH   1  18
TORSDOF 5
ENDMDL
MODEL 3
REMARK VINA RESULT:    -6.602      4.128      6.642
REMARK INTER + INTRA:          -9.179
REMARK INTER:                  -8.293
REMARK INTRA:                  -0.886
REMARK UNBOUND:                -0.648
REMARK  Name = 
REMARK  10 active torsions:
REMARK  status: ('A' for Active; 'I' for Inactive)
REMARK    1  A    between atoms: C_1  and  C_2
REMARK    2  A    between atoms: C_7  and  C_8
REMARK    3  A    between atoms: C_8  and  C_9
REMARK    4  A    between atoms: C_8  and  C_10
REMARK    5  A    between atoms: C_8  and  C_11
REMARK    6  A    between atoms: C_11  and  N_12
REMARK    7  A    between atoms: N_12  and  C_13
REMARK    8  A    between atoms: C_16  and  S_17
REMARK    9  A    between atoms: S_17  and  C_18
REMARK   10  A    between atoms: C_27  and  C_28
REMARK                            x       y       z     vdW  Elec       q    Type
REMARK                         _______ _______ _______ _____ _____    ______ ____
ROOT
ATOM      1  C   UNL     1      49.074   9.485  14.273  0.00  0.00    +0.000 C 
ATOM      2  C   UNL     1      49.039  11.027  14.102  0.00  0.00    +0.000 C 
ATOM      3  C   UNL     1      50.468   8.988  13.829  0.00  0.00    +0.000 C 
ENDROOT
BRANCH   1  10
ATOM      4  C   UNL     1      47.590   5.910  20.588  0.00  0.00    +0.000 C 
ATOM      5  C   UNL     1      48.802   5.107  20.127  0.00  0.00    +0.000 C 
ATOM      6  C   UNL     1      49.829   5.940  19.342  0.00  0.00    +0.000 C 
ATOM      7  N   UNL     1      49.435   6.168  17.950  0.00  0.00    +0.000 N 
ATOM      8  C   UNL     1      49.023   7.430  17.562  0.00  0.00    +0.000 A 
ATOM      9  C   UNL     1      49.231   7.815  16.234  0.00  0.00    +0.000 A 
ATOM     10  C   UNL     1      48.863   9.080  15.751  0.00  0.00    +0.000 A 
ATOM     11  C   UNL     1      48.272   9.939  16.683  0.00  0.00    +0.000 A 
ATOM     12  C   UNL     1      48.106   9.502  17.992  0.00  0.00    +0.000 A 
ATOM     13  N   UNL     1      48.481   8.285  18.447  0.00  0.00    +0.000 NA
ATOM     14  C   UNL     1      48.888   5.005  17.240  0.00  0.00    +0.000 C 
ATOM     15  C   UNL     1      47.878   4.221  18.106  0.00  0.00    +0.000 C 
ATOM     16  C   UNL     1      47.533   2.893  17.440  0.00  0.00    +0.000 C 
ATOM     17  O   UNL     1      48.409   3.922  19.407  0.00  0.00    +0.000 OA
ENDBRANCH   1  10
BRANCH   1  18
ATOM     18  C   UNL     1      47.959   8.856  13.374  0.00  0.00    +0.000 C 
BRANCH  18  19
ATOM     19  N   UNL     1      48.318   7.536  12.843  0.00  0.00    +0.000 N 
ATOM     20  H   UNL     1      49.145   7.491  12.256  0.00  0.00    +0.000 HD
BRANCH  19  21
ATOM     21  C   UNL     1      47.355   6.591  12.496  0.00  0.00    +0.000 A 
ATOM     22  C   UNL     1      46.621   6.637  11.305  0.00  0.00    +0.000 A 
ATOM     23  C   UNL     1      45.575   5.741  11.059  0.00  0.00    +0.000 A 
ATOM     24  C   UNL     1      45.235   4.793  12.025  0.00  0.00    +0.000 A 
ATOM     25  C   UNL     1      45.934   4.733  13.223  0.00  0.00    +0.000 A 
ATOM     26  C   UNL     1      46.990   5.627  13.452  0.00  0.00    +0.000 A 
BRANCH  24  27
ATOM     27  S   UNL     1      43.815   3.760  11.766  0.00  0.00    +0.000 S 
ATOM     28  C   UNL     1      44.155   2.910  10.253  0.00  0.00    +0.000 C 
ATOM     29  O   UNL     1      43.789   2.775  12.837  0.00  0.00    +0.000 OA
ATOM     30  O   UNL     1      42.676   4.633  11.545  0.00  0.00    +0.000 OA
ENDBRANCH  24  27
ENDBRANCH  19  21
ENDBRANCH  18  19
ENDBRANCH   1  18
TORSDOF 5
ENDMDL
MODEL 4
REMARK VINA RESULT:    -6.373      3.252      5.550
REMARK INTER + INTRA:          -8.884
REMARK INTER:                  -8.577
REMARK INTRA:                  -0.307
REMARK UNBOUND:                -0.648
REMARK  Name = 
REMARK  10 active torsions:
REMARK  status: ('A' for Active; 'I' for Inactive)
REMARK    1  A    between atoms: C_1  and  C_2
REMARK    2  A    between atoms: C_7  and  C_8
REMARK    3  A    between atoms: C_8  and  C_9
REMARK    4  A    between atoms: C_8  and  C_10
REMARK    5  A    between atoms: C_8  and  C_11
REMARK    6  A    between atoms: C_11  and  N_12
REMARK    7  A    between atoms: N_12  and  C_13
REMARK    8  A    between atoms: C_16  and  S_17
REMARK    9  A    between atoms: S_17  and  C_18
REMARK   10  A    between atoms: C_27  and  C_28
REMARK                            x       y       z     vdW  Elec       q    Type
REMARK                         _______ _______ _______ _____ _____    ______ ____
ROOT
ATOM      1  C   UNL     1      48.133   4.371  17.420  0.00  0.00    +0.000 C 
ATOM      2  C   UNL     1      48.437   3.081  18.227  0.00  0.00    +0.000 C 
ATOM      3  C   UNL     1      47.252   5.288  18.298  0.00  0.00    +0.000 C 
ENDROOT
BRANCH   1  10
ATOM      4  C   UNL     1      53.506   8.258  14.120  0.00  0.00    +0.000 C 
ATOM      5  C   UNL     1      52.420   9.327  14.169  0.00  0.00    +0.000 C 
ATOM      6  C   UNL     1      51.496   9.210  15.392  0.00  0.00    +0.000 C 
ATOM      7  N   UNL     1      50.479   8.167  15.242  0.00  0.00    +0.000 N 
ATOM      8  C   UNL     1      50.593   7.001  15.977  0.00  0.00    +0.000 A 
ATOM      9  C   UNL     1      49.422   6.316  16.316  0.00  0.00    +0.000 A 
ATOM     10  C   UNL     1      49.434   5.135  17.074  0.00  0.00    +0.000 A 
ATOM     11  C   UNL     1      50.695   4.682  17.474  0.00  0.00    +0.000 A 
ATOM     12  C   UNL     1      51.819   5.416  17.118  0.00  0.00    +0.000 A 
ATOM     13  N   UNL     1      51.791   6.562  16.400  0.00  0.00    +0.000 NA
ATOM     14  C   UNL     1      49.812   8.107  13.935  0.00  0.00    +0.000 C 
ATOM     15  C   UNL     1      50.811   8.246  12.767  0.00  0.00    +0.000 C 
ATOM     16  C   UNL     1      50.062   8.438  11.453  0.00  0.00    +0.000 C 
ATOM     17  O   UNL     1      51.675   9.381  12.936  0.00  0.00    +0.000 OA
ENDBRANCH   1  10
BRANCH   1  18
ATOM     18  C   UNL     1      47.373   3.975  16.111  0.00  0.00    +0.000 C 
BRANCH  18  19
ATOM     19  N   UNL     1      47.108   5.116  15.227  0.00  0.00    +0.000 N 
ATOM     20  H   UNL     1      46.727   5.952  15.663  0.00  0.00    +0.000 HD
BRANCH  19  21
ATOM     21  C   UNL     1      46.682   4.950  13.912  0.00  0.00    +0.000 A 
ATOM     22  C   UNL     1      46.608   5.996  12.984  0.00  0.00    +0.000 A 
ATOM     23  C   UNL     1      46.052   5.806  11.714  0.00  0.00    +0.000 A 
ATOM     24  C   UNL     1      45.536   4.558  11.366  0.00  0.00    +0.000 A 
ATOM     25  C   UNL     1      45.578   3.504  12.269  0.00  0.00    +0.000 A 
ATOM     26  C   UNL     1      46.152   3.703  13.534  0.00  0.00    +0.000 A 
BRANCH  24  27
ATOM     27  S   UNL     1      44.700   4.367   9.810  0.00  0.00    +0.000 S 
ATOM     28  C   UNL     1      44.584   2.617   9.582  0.00  0.00    +0.000 C 
ATOM     29  O   UNL     1      43.351   4.889   9.972  0.00  0.00    +0.000 OA
ATOM     30  O   UNL     1      45.573   4.898   8.779  0.00  0.00    +0.000 OA
ENDBRANCH  24  27
ENDBRANCH  19  21
ENDBRANCH  18  19
ENDBRANCH   1  18
TORSDOF 5
ENDMDL
MODEL 5
REMARK VINA RESULT:    -6.161      4.797      7.224
REMARK INTER + INTRA:          -8.609
REMARK INTER:                  -7.828
REMARK INTRA:                  -0.781
REMARK UNBOUND:                -0.648
REMARK  Name = 
REMARK  10 active torsions:
REMARK  status: ('A' for Active; 'I' for Inactive)
REMARK    1  A    between atoms: C_1  and  C_2
REMARK    2  A    between atoms: C_7  and  C_8
REMARK    3  A    between atoms: C_8  and  C_9
REMARK    4  A    between atoms: C_8  and  C_10
REMARK    5  A    between atoms: C_8  and  C_11
REMARK    6  A    between atoms: C_11  and  N_12
REMARK    7  A    between atoms: N_12  and  C_13
REMARK    8  A    between atoms: C_16  and  S_17
REMARK    9  A    between atoms: S_17  and  C_18
REMARK   10  A    between atoms: C_27  and  C_28
REMARK                            x       y       z     vdW  Elec       q    Type
REMARK                         _______ _______ _______ _____ _____    ______ ____
ROOT
ATOM      1  C   UNL     1      48.035   4.765  17.315  0.00  0.00    +0.000 C 
ATOM      2  C   UNL     1      46.849   3.770  17.206  0.00  0.00    +0.000 C 
ATOM      3  C   UNL     1      47.846   5.593  18.606  0.00  0.00    +0.000 C 
ENDROOT
BRANCH   1  10
ATOM      4  C   UNL     1      55.137   2.705  16.891  0.00  0.00    +0.000 C 
ATOM      5  C   UNL     1      55.283   3.908  17.817  0.00  0.00    +0.000 C 
ATOM      6  C   UNL     1      54.069   4.127  18.735  0.00  0.00    +0.000 C 
ATOM      7  N   UNL     1      52.946   4.772  18.054  0.00  0.00    +0.000 N 
ATOM      8  C   UNL     1      51.818   4.028  17.756  0.00  0.00    +0.000 A 
ATOM      9  C   UNL     1      50.587   4.689  17.690  0.00  0.00    +0.000 A 
ATOM     10  C   UNL     1      49.387   4.019  17.412  0.00  0.00    +0.000 A 
ATOM     11  C   UNL     1      49.495   2.640  17.204  0.00  0.00    +0.000 A 
ATOM     12  C   UNL     1      50.744   2.039  17.298  0.00  0.00    +0.000 A 
ATOM     13  N   UNL     1      51.891   2.697  17.583  0.00  0.00    +0.000 NA
ATOM     14  C   UNL     1      53.290   5.901  17.179  0.00  0.00    +0.000 C 
ATOM     15  C   UNL     1      54.525   5.599  16.304  0.00  0.00    +0.000 C 
ATOM     16  C   UNL     1      55.001   6.871  15.609  0.00  0.00    +0.000 C 
ATOM     17  O   UNL     1      55.623   5.102  17.084  0.00  0.00    +0.000 OA
ENDBRANCH   1  10
BRANCH   1  18
ATOM     18  C   UNL     1      48.021   5.700  16.061  0.00  0.00    +0.000 C 
BRANCH  18  19
ATOM     19  N   UNL     1      48.229   4.980  14.799  0.00  0.00    +0.000 N 
ATOM     20  H   UNL     1      49.153   5.045  14.384  0.00  0.00    +0.000 HD
BRANCH  19  21
ATOM     21  C   UNL     1      47.218   4.842  13.851  0.00  0.00    +0.000 A 
ATOM     22  C   UNL     1      46.519   5.925  13.303  0.00  0.00    +0.000 A 
ATOM     23  C   UNL     1      45.426   5.730  12.451  0.00  0.00    +0.000 A 
ATOM     24  C   UNL     1      45.002   4.434  12.156  0.00  0.00    +0.000 A 
ATOM     25  C   UNL     1      45.664   3.340  12.697  0.00  0.00    +0.000 A 
ATOM     26  C   UNL     1      46.768   3.548  13.537  0.00  0.00    +0.000 A 
BRANCH  24  27
ATOM     27  S   UNL     1      43.527   4.200  11.196  0.00  0.00    +0.000 S 
ATOM     28  C   UNL     1      42.403   5.421  11.807  0.00  0.00    +0.000 C 
ATOM     29  O   UNL     1      43.845   4.534   9.816  0.00  0.00    +0.000 OA
ATOM     30  O   UNL     1      42.994   2.892  11.530  0.00  0.00    +0.000 OA
ENDBRANCH  24  27
ENDBRANCH  19  21
ENDBRANCH  18  19
ENDBRANCH   1  18
TORSDOF 5
ENDMDL
MODEL 6
REMARK VINA RESULT:    -5.946      4.040      7.089
REMARK INTER + INTRA:          -8.332
REMARK INTER:                  -7.439
REMARK INTRA:                  -0.893
REMARK UNBOUND:                -0.648
REMARK  Name = 
REMARK  10 active torsions:
REMARK  status: ('A' for Active; 'I' for Inactive)
REMARK    1  A    between atoms: C_1  and  C_2
REMARK    2  A    between atoms: C_7  and  C_8
REMARK    3  A    between atoms: C_8  and  C_9
REMARK    4  A    between atoms: C_8  and  C_10
REMARK    5  A    between atoms: C_8  and  C_11
REMARK    6  A    between atoms: C_11  and  N_12
REMARK    7  A    between atoms: N_12  and  C_13
REMARK    8  A    between atoms: C_16  and  S_17
REMARK    9  A    between atoms: S_17  and  C_18
REMARK   10  A    between atoms: C_27  and  C_28
REMARK                            x       y       z     vdW  Elec       q    Type
REMARK                         _______ _______ _______ _____ _____    ______ ____
ROOT
ATOM      1  C   UNL     1      50.272   8.788  13.570  0.00  0.00    +0.000 C 
ATOM      2  C   UNL     1      50.857  10.223  13.650  0.00  0.00    +0.000 C 
ATOM      3  C   UNL     1      50.693   8.175  12.216  0.00  0.00    +0.000 C 
ENDROOT
BRANCH   1  10
ATOM      4  C   UNL     1      51.449   5.141  19.909  0.00  0.00    +0.000 C 
ATOM      5  C   UNL     1      50.153   4.467  19.472  0.00  0.00    +0.000 C 
ATOM      6  C   UNL     1      50.000   4.359  17.945  0.00  0.00    +0.000 C 
ATOM      7  N   UNL     1      49.572   5.613  17.324  0.00  0.00    +0.000 N 
ATOM      8  C   UNL     1      50.478   6.339  16.571  0.00  0.00    +0.000 A 
ATOM      9  C   UNL     1      49.988   7.133  15.530  0.00  0.00    +0.000 A 
ATOM     10  C   UNL     1      50.829   7.891  14.702  0.00  0.00    +0.000 A 
ATOM     11  C   UNL     1      52.196   7.803  14.979  0.00  0.00    +0.000 A 
ATOM     12  C   UNL     1      52.622   6.983  16.018  0.00  0.00    +0.000 A 
ATOM     13  N   UNL     1      51.800   6.246  16.799  0.00  0.00    +0.000 NA
ATOM     14  C   UNL     1      48.500   6.340  18.018  0.00  0.00    +0.000 C 
ATOM     15  C   UNL     1      48.727   6.387  19.544  0.00  0.00    +0.000 C 
ATOM     16  C   UNL     1      47.480   6.915  20.246  0.00  0.00    +0.000 C 
ATOM     17  O   UNL     1      49.003   5.085  20.084  0.00  0.00    +0.000 OA
ENDBRANCH   1  10
BRANCH   1  18
ATOM     18  C   UNL     1      48.713   8.877  13.667  0.00  0.00    +0.000 C 
BRANCH  18  19
ATOM     19  N   UNL     1      48.027   8.337  12.488  0.00  0.00    +0.000 N 
ATOM     20  H   UNL     1      47.971   8.944  11.675  0.00  0.00    +0.000 HD
BRANCH  19  21
ATOM     21  C   UNL     1      46.938   7.475  12.596  0.00  0.00    +0.000 A 
ATOM     22  C   UNL     1      46.970   6.275  13.317  0.00  0.00    +0.000 A 
ATOM     23  C   UNL     1      45.894   5.380  13.289  0.00  0.00    +0.000 A 
ATOM     24  C   UNL     1      44.774   5.670  12.511  0.00  0.00    +0.000 A 
ATOM     25  C   UNL     1      44.719   6.844  11.771  0.00  0.00    +0.000 A 
ATOM     26  C   UNL     1      45.797   7.740  11.819  0.00  0.00    +0.000 A 
BRANCH  24  27
ATOM     27  S   UNL     1      43.481   4.462  12.365  0.00  0.00    +0.000 S 
ATOM     28  C   UNL     1      43.709   3.760  10.758  0.00  0.00    +0.000 C 
ATOM     29  O   UNL     1      43.741   3.422  13.349  0.00  0.00    +0.000 OA
ATOM     30  O   UNL     1      42.217   5.175  12.369  0.00  0.00    +0.000 OA
ENDBRANCH  24  27
ENDBRANCH  19  21
ENDBRANCH  18  19
ENDBRANCH   1  18
TORSDOF 5
ENDMDL
MODEL 7
REMARK VINA RESULT:    -5.640      4.794      7.276
REMARK INTER + INTRA:          -7.937
REMARK INTER:                  -6.776
REMARK INTRA:                  -1.161
REMARK UNBOUND:                -0.648
REMARK  Name = 
REMARK  10 active torsions:
REMARK  status: ('A' for Active; 'I' for Inactive)
REMARK    1  A    between atoms: C_1  and  C_2
REMARK    2  A    between atoms: C_7  and  C_8
REMARK    3  A    between atoms: C_8  and  C_9
REMARK    4  A    between atoms: C_8  and  C_10
REMARK    5  A    between atoms: C_8  and  C_11
REMARK    6  A    between atoms: C_11  and  N_12
REMARK    7  A    between atoms: N_12  and  C_13
REMARK    8  A    between atoms: C_16  and  S_17
REMARK    9  A    between atoms: S_17  and  C_18
REMARK   10  A    between atoms: C_27  and  C_28
REMARK                            x       y       z     vdW  Elec       q    Type
REMARK                         _______ _______ _______ _____ _____    ______ ____
ROOT
ATOM      1  C   UNL     1      46.240   6.716  12.176  0.00  0.00    +0.000 C 
ATOM      2  C   UNL     1      46.081   6.190  10.724  0.00  0.00    +0.000 C 
ATOM      3  C   UNL     1      44.880   7.295  12.625  0.00  0.00    +0.000 C 
ENDROOT
BRANCH   1  10
ATOM      4  C   UNL     1      49.561   2.352  17.155  0.00  0.00    +0.000 C 
ATOM      5  C   UNL     1      49.217   3.536  18.053  0.00  0.00    +0.000 C 
ATOM      6  C   UNL     1      47.919   4.257  17.649  0.00  0.00    +0.000 C 
ATOM      7  N   UNL     1      48.097   5.157  16.509  0.00  0.00    +0.000 N 
ATOM      8  C   UNL     1      47.566   4.807  15.281  0.00  0.00    +0.000 A 
ATOM      9  C   UNL     1      47.190   5.831  14.406  0.00  0.00    +0.000 A 
ATOM     10  C   UNL     1      46.627   5.575  13.147  0.00  0.00    +0.000 A 
ATOM     11  C   UNL     1      46.460   4.226  12.817  0.00  0.00    +0.000 A 
ATOM     12  C   UNL     1      46.839   3.256  13.737  0.00  0.00    +0.000 A 
ATOM     13  N   UNL     1      47.367   3.518  14.954  0.00  0.00    +0.000 NA
ATOM     14  C   UNL     1      49.305   5.994  16.535  0.00  0.00    +0.000 C 
ATOM     15  C   UNL     1      50.553   5.194  16.962  0.00  0.00    +0.000 C 
ATOM     16  C   UNL     1      51.720   6.140  17.226  0.00  0.00    +0.000 C 
ATOM     17  O   UNL     1      50.324   4.451  18.170  0.00  0.00    +0.000 OA
ENDBRANCH   1  10
BRANCH   1  18
ATOM     18  C   UNL     1      47.337   7.832  12.187  0.00  0.00    +0.000 C 
BRANCH  18  19
ATOM     19  N   UNL     1      48.558   7.451  11.467  0.00  0.00    +0.000 N 
ATOM     20  H   UNL     1      48.571   6.525  11.050  0.00  0.00    +0.000 HD
BRANCH  19  21
ATOM     21  C   UNL     1      49.820   7.880  11.872  0.00  0.00    +0.000 A 
ATOM     22  C   UNL     1      50.934   7.912  11.025  0.00  0.00    +0.000 A 
ATOM     23  C   UNL     1      52.208   8.227  11.510  0.00  0.00    +0.000 A 
ATOM     24  C   UNL     1      52.385   8.493  12.868  0.00  0.00    +0.000 A 
ATOM     25  C   UNL     1      51.302   8.453  13.737  0.00  0.00    +0.000 A 
ATOM     26  C   UNL     1      50.028   8.151  13.236  0.00  0.00    +0.000 A 
BRANCH  24  27
ATOM     27  S   UNL     1      54.027   8.745  13.498  0.00  0.00    +0.000 S 
ATOM     28  C   UNL     1      54.920   9.438  12.139  0.00  0.00    +0.000 C 
ATOM     29  O   UNL     1      53.944   9.754  14.542  0.00  0.00    +0.000 OA
ATOM     30  O   UNL     1      54.588   7.437  13.784  0.00  0.00    +0.000 OA
ENDBRANCH  24  27
ENDBRANCH  19  21
ENDBRANCH  18  19
ENDBRANCH   1  18
TORSDOF 5
ENDMDL
MODEL 8
REMARK VINA RESULT:    -5.607      5.117      8.104
REMARK INTER + INTRA:          -7.894
REMARK INTER:                  -6.342
REMARK INTRA:                  -1.552
REMARK UNBOUND:                -0.648
REMARK  Name = 
REMARK  10 active torsions:
REMARK  status: ('A' for Active; 'I' for Inactive)
REMARK    1  A    between atoms: C_1  and  C_2
REMARK    2  A    between atoms: C_7  and  C_8
REMARK    3  A    between atoms: C_8  and  C_9
REMARK    4  A    between atoms: C_8  and  C_10
REMARK    5  A    between atoms: C_8  and  C_11
REMARK    6  A    between atoms: C_11  and  N_12
REMARK    7  A    between atoms: N_12  and  C_13
REMARK    8  A    between atoms: C_16  and  S_17
REMARK    9  A    between atoms: S_17  and  C_18
REMARK   10  A    between atoms: C_27  and  C_28
REMARK                            x       y       z     vdW  Elec       q    Type
REMARK                         _______ _______ _______ _____ _____    ______ ____
ROOT
ATOM      1  C   UNL     1      46.376   6.770  12.110  0.00  0.00    +0.000 C 
ATOM      2  C   UNL     1      45.683   6.259  10.818  0.00  0.00    +0.000 C 
ATOM      3  C   UNL     1      45.413   7.756  12.808  0.00  0.00    +0.000 C 
ENDROOT
BRANCH   1  10
ATOM      4  C   UNL     1      49.271   2.252  17.215  0.00  0.00    +0.000 C 
ATOM      5  C   UNL     1      48.909   3.435  18.107  0.00  0.00    +0.000 C 
ATOM      6  C   UNL     1      47.659   4.198  17.638  0.00  0.00    +0.000 C 
ATOM      7  N   UNL     1      47.929   5.107  16.523  0.00  0.00    +0.000 N 
ATOM      8  C   UNL     1      47.461   4.787  15.261  0.00  0.00    +0.000 A 
ATOM      9  C   UNL     1      47.167   5.831  14.379  0.00  0.00    +0.000 A 
ATOM     10  C   UNL     1      46.671   5.607  13.086  0.00  0.00    +0.000 A 
ATOM     11  C   UNL     1      46.485   4.268  12.729  0.00  0.00    +0.000 A 
ATOM     12  C   UNL     1      46.781   3.276  13.656  0.00  0.00    +0.000 A 
ATOM     13  N   UNL     1      47.244   3.508  14.906  0.00  0.00    +0.000 NA
ATOM     14  C   UNL     1      49.157   5.906  16.630  0.00  0.00    +0.000 C 
ATOM     15  C   UNL     1      50.355   5.065  17.119  0.00  0.00    +0.000 C 
ATOM     16  C   UNL     1      51.531   5.973  17.462  0.00  0.00    +0.000 C 
ATOM     17  O   UNL     1      50.034   4.315  18.301  0.00  0.00    +0.000 OA
ENDBRANCH   1  10
BRANCH   1  18
ATOM     18  C   UNL     1      47.704   7.495  11.712  0.00  0.00    +0.000 C 
BRANCH  18  19
ATOM     19  N   UNL     1      47.902   8.768  12.413  0.00  0.00    +0.000 N 
ATOM     20  H   UNL     1      47.872   9.611  11.846  0.00  0.00    +0.000 HD
BRANCH  19  21
ATOM     21  C   UNL     1      48.754   8.884  13.510  0.00  0.00    +0.000 A 
ATOM     22  C   UNL     1      48.335   9.324  14.771  0.00  0.00    +0.000 A 
ATOM     23  C   UNL     1      49.250   9.547  15.806  0.00  0.00    +0.000 A 
ATOM     24  C   UNL     1      50.612   9.354  15.577  0.00  0.00    +0.000 A 
ATOM     25  C   UNL     1      51.061   8.935  14.332  0.00  0.00    +0.000 A 
ATOM     26  C   UNL     1      50.133   8.699  13.307  0.00  0.00    +0.000 A 
BRANCH  24  27
ATOM     27  S   UNL     1      51.776   9.783  16.848  0.00  0.00    +0.000 S 
ATOM     28  C   UNL     1      52.050  11.516  16.631  0.00  0.00    +0.000 C 
ATOM     29  O   UNL     1      51.114   9.591  18.130  0.00  0.00    +0.000 OA
ATOM     30  O   UNL     1      53.017   9.091  16.553  0.00  0.00    +0.000 OA
ENDBRANCH  24  27
ENDBRANCH  19  21
ENDBRANCH  18  19
ENDBRANCH   1  18
TORSDOF 5
ENDMDL
MODEL 9
REMARK VINA RESULT:    -5.204      4.130      7.962
REMARK INTER + INTRA:          -7.373
REMARK INTER:                  -5.762
REMARK INTRA:                  -1.611
REMARK UNBOUND:                -0.648
REMARK  Name = 
REMARK  10 active torsions:
REMARK  status: ('A' for Active; 'I' for Inactive)
REMARK    1  A    between atoms: C_1  and  C_2
REMARK    2  A    between atoms: C_7  and  C_8
REMARK    3  A    between atoms: C_8  and  C_9
REMARK    4  A    between atoms: C_8  and  C_10
REMARK    5  A    between atoms: C_8  and  C_11
REMARK    6  A    between atoms: C_11  and  N_12
REMARK    7  A    between atoms: N_12  and  C_13
REMARK    8  A    between atoms: C_16  and  S_17
REMARK    9  A    between atoms: S_17  and  C_18
REMARK   10  A    between atoms: C_27  and  C_28
REMARK                            x       y       z     vdW  Elec       q    Type
REMARK                         _______ _______ _______ _____ _____    ______ ____
ROOT
ATOM      1  C   UNL     1      49.723   5.937  18.254  0.00  0.00    +0.000 C 
ATOM      2  C   UNL     1      49.597   5.465  19.727  0.00  0.00    +0.000 C 
ATOM      3  C   UNL     1      51.124   5.537  17.742  0.00  0.00    +0.000 C 
ENDROOT
BRANCH   1  10
ATOM      4  C   UNL     1      44.432   4.407  13.301  0.00  0.00    +0.000 C 
ATOM      5  C   UNL     1      45.548   4.828  12.351  0.00  0.00    +0.000 C 
ATOM      6  C   UNL     1      46.956   4.481  12.864  0.00  0.00    +0.000 C 
ATOM      7  N   UNL     1      47.443   5.424  13.873  0.00  0.00    +0.000 N 
ATOM      8  C   UNL     1      47.525   5.019  15.193  0.00  0.00    +0.000 A 
ATOM      9  C   UNL     1      48.494   5.611  16.008  0.00  0.00    +0.000 A 
ATOM     10  C   UNL     1      48.664   5.255  17.355  0.00  0.00    +0.000 A 
ATOM     11  C   UNL     1      47.803   4.264  17.836  0.00  0.00    +0.000 A 
ATOM     12  C   UNL     1      46.871   3.703  16.971  0.00  0.00    +0.000 A 
ATOM     13  N   UNL     1      46.728   4.046  15.670  0.00  0.00    +0.000 NA
ATOM     14  C   UNL     1      47.203   6.845  13.591  0.00  0.00    +0.000 C 
ATOM     15  C   UNL     1      45.774   7.098  13.069  0.00  0.00    +0.000 C 
ATOM     16  C   UNL     1      45.648   8.526  12.548  0.00  0.00    +0.000 C 
ATOM     17  O   UNL     1      45.437   6.217  11.986  0.00  0.00    +0.000 OA
ENDBRANCH   1  10
BRANCH   1  18
ATOM     18  C   UNL     1      49.550   7.492  18.211  0.00  0.00    +0.000 C 
BRANCH  18  19
ATOM     19  N   UNL     1      50.604   8.171  17.449  0.00  0.00    +0.000 N 
ATOM     20  H   UNL     1      51.247   8.752  17.978  0.00  0.00    +0.000 HD
BRANCH  19  21
ATOM     21  C   UNL     1      50.397   8.636  16.152  0.00  0.00    +0.000 A 
ATOM     22  C   UNL     1      49.402   9.560  15.811  0.00  0.00    +0.000 A 
ATOM     23  C   UNL     1      49.149   9.899  14.478  0.00  0.00    +0.000 A 
ATOM     24  C   UNL     1      49.881   9.290  13.459  0.00  0.00    +0.000 A 
ATOM     25  C   UNL     1      50.864   8.357  13.763  0.00  0.00    +0.000 A 
ATOM     26  C   UNL     1      51.119   8.037  15.105  0.00  0.00    +0.000 A 
BRANCH  24  27
ATOM     27  S   UNL     1      49.452   9.615  11.766  0.00  0.00    +0.000 S 
ATOM     28  C   UNL     1      50.925  10.291  11.058  0.00  0.00    +0.000 C 
ATOM     29  O   UNL     1      49.194   8.334  11.127  0.00  0.00    +0.000 OA
ATOM     30  O   UNL     1      48.437  10.652  11.767  0.00  0.00    +0.000 OA
ENDBRANCH  24  27
ENDBRANCH  19  21
ENDBRANCH  18  19
ENDBRANCH   1  18
TORSDOF 5
ENDMDL
