MODEL 1
REMARK VINA RESULT:    -7.928      0.000      0.000
REMARK INTER + INTRA:         -11.913
REMARK INTER:                 -10.708
REMARK INTRA:                  -1.205
REMARK UNBOUND:                -1.205
REMARK  Name = 
REMARK  7 active torsions:
REMARK  status: ('A' for Active; 'I' for Inactive)
REMARK    1  A    between atoms: C_1  and  N_2
REMARK    2  A    between atoms: N_2  and  C_3
REMARK    3  A    between atoms: C_3  and  C_4
REMARK    4  A    between atoms: C_7  and  C_8
REMARK    5  A    between atoms: C_8  and  N_9
REMARK    6  A    between atoms: C_10  and  C_12
REMARK    7  A    between atoms: C_19  and  C_21
REMARK                            x       y       z     vdW  Elec       q    Type
REMARK                         _______ _______ _______ _____ _____    ______ ____
ROOT
ATOM      1  C   UNL     1      47.384   7.619  13.786  0.00  0.00    +0.000 C 
ENDROOT
BRANCH   1   2
ATOM      2  C   UNL     1      46.514   6.568  13.142  0.00  0.00    +0.000 A 
ATOM      3  C   UNL     1      45.756   6.879  12.002  0.00  0.00    +0.000 A 
ATOM      4  C   UNL     1      44.995   5.896  11.367  0.00  0.00    +0.000 A 
ATOM      5  C   UNL     1      44.972   4.588  11.865  0.00  0.00    +0.000 A 
ATOM      6  C   UNL     1      45.727   4.280  13.005  0.00  0.00    +0.000 A 
ATOM      7  C   UNL     1      46.483   5.265  13.646  0.00  0.00    +0.000 A 
BRANCH   5   8
ATOM      8  C   UNL     1      44.191   3.515  11.158  0.00  0.00    +0.000 C 
BRANCH   8   9
ATOM      9  N   UNL     1      45.036   2.760  10.268  0.00  0.00    +0.000 N 
ATOM     10  C   UNL     1      45.119   3.060   8.928  0.00  0.00    +0.000 C 
ATOM     11  O   UNL     1      44.484   3.984   8.423  0.00  0.00    +0.000 OA
ATOM     12  H   UNL     1      45.625   2.026  10.644  0.00  0.00    +0.000 HD
BRANCH  10  13
ATOM     13  C   UNL     1      46.004   2.207   8.172  0.00  0.00    +0.000 A 
ATOM     14  C   UNL     1      46.915   2.480   7.175  0.00  0.00    +0.000 A 
ATOM     15  C   UNL     1      47.444   1.222   6.838  0.00  0.00    +0.000 A 
ATOM     16  N   UNL     1      46.910   0.241   7.568  0.00  0.00    +0.000 NA
ATOM     17  O   UNL     1      46.003   0.863   8.409  0.00  0.00    +0.000 OA
ENDBRANCH  10  13
ENDBRANCH   8   9
ENDBRANCH   5   8
ENDBRANCH   1   2
BRANCH   1  19
ATOM     18  C   UNL     1      49.477   7.131  12.432  0.00  0.00    +0.000 C 
ATOM     19  N   UNL     1      48.840   7.481  13.695  0.00  0.00    +0.000 N 
ATOM     20  C   UNL     1      49.717   7.803  14.749  0.00  0.00    +0.000 C 
ATOM     21  O   UNL     1      50.936   7.772  14.588  0.00  0.00    +0.000 OA
BRANCH  20  22
ATOM     22  C   UNL     1      49.176   8.143  16.074  0.00  0.00    +0.000 A 
ATOM     23  C   UNL     1      48.941   9.432  16.523  0.00  0.00    +0.000 A 
ATOM     24  S   UNL     1      48.239   9.503  18.078  0.00  0.00    +0.000 S 
ATOM     25  C   UNL     1      48.082   7.811  18.138  0.00  0.00    +0.000 A 
ATOM     26  N   UNL     1      47.445   7.207  19.176  0.00  0.00    +0.000 NA
ATOM     27  C   UNL     1      47.332   5.926  19.050  0.00  0.00    +0.000 A 
ATOM     28  N   UNL     1      47.832   5.194  18.003  0.00  0.00    +0.000 N 
ATOM     29  C   UNL     1      48.607   5.748  17.004  0.00  0.00    +0.000 A 
ATOM     30  O   UNL     1      49.239   5.038  16.232  0.00  0.00    +0.000 OA
ATOM     31  C   UNL     1      48.650   7.199  17.036  0.00  0.00    +0.000 A 
ATOM     32  H   UNL     1      47.770   4.187  18.002  0.00  0.00    +0.000 HD
ENDBRANCH  20  22
ENDBRANCH   1  19
TORSDOF 6
ENDMDL
MODEL 2
REMARK VINA RESULT:    -7.426      2.572      3.636
REMARK INTER + INTRA:         -11.236
REMARK INTER:                 -10.093
REMARK INTRA:                  -1.142
REMARK UNBOUND:                -1.205
REMARK  Name = 
REMARK  7 active torsions:
REMARK  status: ('A' for Active; 'I' for Inactive)
REMARK    1  A    between atoms: C_1  and  N_2
REMARK    2  A    between atoms: N_2  and  C_3
REMARK    3  A    between atoms: C_3  and  C_4
REMARK    4  A    between atoms: C_7  and  C_8
REMARK    5  A    between atoms: C_8  and  N_9
REMARK    6  A    between atoms: C_10  and  C_12
REMARK    7  A    between atoms: C_19  and  C_21
REMARK                            x       y       z     vdW  Elec       q    Type
REMARK                         _______ _______ _______ _____ _____    ______ ____
ROOT
ATOM      1  C   UNL     1      49.242   6.971  15.355  0.00  0.00    +0.000 C 
ENDROOT
BRANCH   1   2
ATOM      2  C   UNL     1      48.079   6.885  14.397  0.00  0.00    +0.000 A 
ATOM      3  C   UNL     1      47.572   8.048  13.794  0.00  0.00    +0.000 A 
ATOM      4  C   UNL     1      46.535   7.968  12.863  0.00  0.00    +0.000 A 
ATOM      5  C   UNL     1      45.982   6.728  12.525  0.00  0.00    +0.000 A 
ATOM      6  C   UNL     1      46.487   5.569  13.131  0.00  0.00    +0.000 A 
ATOM      7  C   UNL     1      47.520   5.648  14.069  0.00  0.00    +0.000 A 
BRANCH   5   8
ATOM      8  C   UNL     1      44.897   6.633  11.488  0.00  0.00    +0.000 C 
BRANCH   8   9
ATOM      9  N   UNL     1      45.350   5.906  10.329  0.00  0.00    +0.000 N 
ATOM     10  C   UNL     1      44.784   4.706   9.965  0.00  0.00    +0.000 C 
ATOM     11  O   UNL     1      43.864   4.197  10.602  0.00  0.00    +0.000 OA
ATOM     12  H   UNL     1      46.066   6.311   9.737  0.00  0.00    +0.000 HD
BRANCH  10  13
ATOM     13  C   UNL     1      45.355   4.103   8.785  0.00  0.00    +0.000 A 
ATOM     14  C   UNL     1      45.297   2.819   8.290  0.00  0.00    +0.000 A 
ATOM     15  C   UNL     1      46.074   2.865   7.120  0.00  0.00    +0.000 A 
ATOM     16  N   UNL     1      46.574   4.083   6.898  0.00  0.00    +0.000 NA
ATOM     17  O   UNL     1      46.120   4.861   7.949  0.00  0.00    +0.000 OA
ENDBRANCH  10  13
ENDBRANCH   8   9
ENDBRANCH   5   8
ENDBRANCH   1   2
BRANCH   1  19
ATOM     18  C   UNL     1      49.117   9.015  16.858  0.00  0.00    +0.000 C 
ATOM     19  N   UNL     1      49.026   7.571  16.674  0.00  0.00    +0.000 N 
ATOM     20  C   UNL     1      48.591   6.842  17.797  0.00  0.00    +0.000 C 
ATOM     21  O   UNL     1      48.322   7.410  18.854  0.00  0.00    +0.000 OA
BRANCH  20  22
ATOM     22  C   UNL     1      48.493   5.375  17.724  0.00  0.00    +0.000 A 
ATOM     23  C   UNL     1      47.323   4.674  17.484  0.00  0.00    +0.000 A 
ATOM     24  S   UNL     1      47.541   2.984  17.384  0.00  0.00    +0.000 S 
ATOM     25  C   UNL     1      49.229   3.145  17.503  0.00  0.00    +0.000 A 
ATOM     26  N   UNL     1      50.043   2.064  17.374  0.00  0.00    +0.000 NA
ATOM     27  C   UNL     1      51.303   2.346  17.407  0.00  0.00    +0.000 A 
ATOM     28  N   UNL     1      51.819   3.603  17.598  0.00  0.00    +0.000 N 
ATOM     29  C   UNL     1      51.032   4.702  17.875  0.00  0.00    +0.000 A 
ATOM     30  O   UNL     1      51.529   5.745  18.283  0.00  0.00    +0.000 OA
ATOM     31  C   UNL     1      49.609   4.457  17.719  0.00  0.00    +0.000 A 
ATOM     32  H   UNL     1      52.815   3.743  17.684  0.00  0.00    +0.000 HD
ENDBRANCH  20  22
ENDBRANCH   1  19
TORSDOF 6
ENDMDL
MODEL 3
REMARK VINA RESULT:    -7.089      1.921      2.590
REMARK INTER + INTRA:         -10.781
REMARK INTER:                  -9.599
REMARK INTRA:                  -1.182
REMARK UNBOUND:                -1.205
REMARK  Name = 
REMARK  7 active torsions:
REMARK  status: ('A' for Active; 'I' for Inactive)
REMARK    1  A    between atoms: C_1  and  N_2
REMARK    2  A    between atoms: N_2  and  C_3
REMARK    3  A    between atoms: C_3  and  C_4
REMARK    4  A    between atoms: C_7  and  C_8
REMARK    5  A    between atoms: C_8  and  N_9
REMARK    6  A    between atoms: C_10  and  C_12
REMARK    7  A    between atoms: C_19  and  C_21
REMARK                            x       y       z     vdW  Elec       q    Type
REMARK                         _______ _______ _______ _____ _____    ______ ____
ROOT
ATOM      1  C   UNL     1      48.250   8.263  14.716  0.00  0.00    +0.000 C 
ENDROOT
BRANCH   1   2
ATOM      2  C   UNL     1      47.302   7.653  13.712  0.00  0.00    +0.000 A 
ATOM      3  C   UNL     1      47.418   6.298  13.362  0.00  0.00    +0.000 A 
ATOM      4  C   UNL     1      46.508   5.714  12.479  0.00  0.00    +0.000 A 
ATOM      5  C   UNL     1      45.472   6.475  11.925  0.00  0.00    +0.000 A 
ATOM      6  C   UNL     1      45.360   7.828  12.274  0.00  0.00    +0.000 A 
ATOM      7  C   UNL     1      46.275   8.417  13.151  0.00  0.00    +0.000 A 
BRANCH   5   8
ATOM      8  C   UNL     1      44.462   5.839  11.011  0.00  0.00    +0.000 C 
BRANCH   8   9
ATOM      9  N   UNL     1      45.103   5.229   9.874  0.00  0.00    +0.000 N 
ATOM     10  C   UNL     1      44.868   3.917   9.534  0.00  0.00    +0.000 C 
ATOM     11  O   UNL     1      44.101   3.202  10.175  0.00  0.00    +0.000 OA
ATOM     12  H   UNL     1      45.701   5.792   9.279  0.00  0.00    +0.000 HD
BRANCH  10  13
ATOM     13  C   UNL     1      45.593   3.456   8.374  0.00  0.00    +0.000 A 
ATOM     14  C   UNL     1      46.090   2.217   8.034  0.00  0.00    +0.000 A 
ATOM     15  C   UNL     1      46.708   2.424   6.789  0.00  0.00    +0.000 A 
ATOM     16  N   UNL     1      46.603   3.690   6.381  0.00  0.00    +0.000 NA
ATOM     17  O   UNL     1      45.899   4.339   7.381  0.00  0.00    +0.000 OA
ENDBRANCH  10  13
ENDBRANCH   8   9
ENDBRANCH   5   8
ENDBRANCH   1   2
BRANCH   1  19
ATOM     18  C   UNL     1      50.676   8.217  13.964  0.00  0.00    +0.000 C 
ATOM     19  N   UNL     1      49.607   7.721  14.823  0.00  0.00    +0.000 N 
ATOM     20  C   UNL     1      50.003   6.813  15.823  0.00  0.00    +0.000 C 
ATOM     21  O   UNL     1      51.179   6.470  15.935  0.00  0.00    +0.000 OA
BRANCH  20  22
ATOM     22  C   UNL     1      48.996   6.231  16.724  0.00  0.00    +0.000 A 
ATOM     23  C   UNL     1      48.403   4.991  16.549  0.00  0.00    +0.000 A 
ATOM     24  S   UNL     1      47.326   4.560  17.801  0.00  0.00    +0.000 S 
ATOM     25  C   UNL     1      47.734   5.946  18.697  0.00  0.00    +0.000 A 
ATOM     26  N   UNL     1      47.238   6.139  19.948  0.00  0.00    +0.000 NA
ATOM     27  C   UNL     1      47.695   7.193  20.538  0.00  0.00    +0.000 A 
ATOM     28  N   UNL     1      48.568   8.090  19.977  0.00  0.00    +0.000 N 
ATOM     29  C   UNL     1      48.982   8.010  18.663  0.00  0.00    +0.000 A 
ATOM     30  O   UNL     1      49.554   8.950  18.125  0.00  0.00    +0.000 OA
ATOM     31  C   UNL     1      48.598   6.774  18.004  0.00  0.00    +0.000 A 
ATOM     32  H   UNL     1      48.830   8.931  20.469  0.00  0.00    +0.000 HD
ENDBRANCH  20  22
ENDBRANCH   1  19
TORSDOF 6
ENDMDL
MODEL 4
REMARK VINA RESULT:    -6.937      2.139      2.653
REMARK INTER + INTRA:         -10.576
REMARK INTER:                  -9.534
REMARK INTRA:                  -1.042
REMARK UNBOUND:                -1.205
REMARK  Name = 
REMARK  7 active torsions:
REMARK  status: ('A' for Active; 'I' for Inactive)
REMARK    1  A    between atoms: C_1  and  N_2
REMARK    2  A    between atoms: N_2  and  C_3
REMARK    3  A    between atoms: C_3  and  C_4
REMARK    4  A    between atoms: C_7  and  C_8
REMARK    5  A    between atoms: C_8  and  N_9
REMARK    6  A    between atoms: C_10  and  C_12
REMARK    7  A    between atoms: C_19  and  C_21
REMARK                            x       y       z     vdW  Elec       q    Type
REMARK                         _______ _______ _______ _____ _____    ______ ____
ROOT
ATOM      1  C   UNL     1      49.031   7.124  14.193  0.00  0.00    +0.000 C 
ENDROOT
BRANCH   1   2
ATOM      2  C   UNL     1      47.932   6.626  13.288  0.00  0.00    +0.000 A 
ATOM      3  C   UNL     1      47.735   7.210  12.026  0.00  0.00    +0.000 A 
ATOM      4  C   UNL     1      46.758   6.715  11.161  0.00  0.00    +0.000 A 
ATOM      5  C   UNL     1      45.956   5.635  11.544  0.00  0.00    +0.000 A 
ATOM      6  C   UNL     1      46.151   5.055  12.805  0.00  0.00    +0.000 A 
ATOM      7  C   UNL     1      47.124   5.554  13.676  0.00  0.00    +0.000 A 
BRANCH   5   8
ATOM      8  C   UNL     1      44.934   5.068  10.597  0.00  0.00    +0.000 C 
BRANCH   8   9
ATOM      9  N   UNL     1      45.568   4.392   9.494  0.00  0.00    +0.000 N 
ATOM     10  C   UNL     1      45.251   3.094   9.167  0.00  0.00    +0.000 C 
ATOM     11  O   UNL     1      44.412   2.448   9.792  0.00  0.00    +0.000 OA
ATOM     12  H   UNL     1      46.225   4.899   8.911  0.00  0.00    +0.000 HD
BRANCH  10  13
ATOM     13  C   UNL     1      45.979   2.560   8.042  0.00  0.00    +0.000 A 
ATOM     14  C   UNL     1      46.336   3.113   6.831  0.00  0.00    +0.000 A 
ATOM     15  C   UNL     1      47.016   2.078   6.166  0.00  0.00    +0.000 A 
ATOM     16  N   UNL     1      47.082   0.967   6.903  0.00  0.00    +0.000 NA
ATOM     17  O   UNL     1      46.429   1.272   8.085  0.00  0.00    +0.000 OA
ENDBRANCH  10  13
ENDBRANCH   8   9
ENDBRANCH   5   8
ENDBRANCH   1   2
BRANCH   1  19
ATOM     18  C   UNL     1      47.662   8.947  15.311  0.00  0.00    +0.000 C 
ATOM     19  N   UNL     1      48.669   7.895  15.385  0.00  0.00    +0.000 N 
ATOM     20  C   UNL     1      49.144   7.598  16.676  0.00  0.00    +0.000 C 
ATOM     21  O   UNL     1      48.726   8.208  17.659  0.00  0.00    +0.000 OA
BRANCH  20  22
ATOM     22  C   UNL     1      50.183   6.571  16.856  0.00  0.00    +0.000 A 
ATOM     23  C   UNL     1      51.537   6.834  16.983  0.00  0.00    +0.000 A 
ATOM     24  S   UNL     1      52.486   5.440  17.252  0.00  0.00    +0.000 S 
ATOM     25  C   UNL     1      51.102   4.459  17.363  0.00  0.00    +0.000 A 
ATOM     26  N   UNL     1      51.205   3.145  17.696  0.00  0.00    +0.000 NA
ATOM     27  C   UNL     1      50.068   2.543  17.819  0.00  0.00    +0.000 A 
ATOM     28  N   UNL     1      48.845   3.126  17.601  0.00  0.00    +0.000 N 
ATOM     29  C   UNL     1      48.702   4.413  17.124  0.00  0.00    +0.000 A 
ATOM     30  O   UNL     1      47.623   4.813  16.707  0.00  0.00    +0.000 OA
ATOM     31  C   UNL     1      49.944   5.166  17.095  0.00  0.00    +0.000 A 
ATOM     32  H   UNL     1      47.999   2.579  17.646  0.00  0.00    +0.000 HD
ENDBRANCH  20  22
ENDBRANCH   1  19
TORSDOF 6
ENDMDL
MODEL 5
REMARK VINA RESULT:    -6.259      3.674      5.666
REMARK INTER + INTRA:          -9.659
REMARK INTER:                  -7.994
REMARK INTRA:                  -1.665
REMARK UNBOUND:                -1.205
REMARK  Name = 
REMARK  7 active torsions:
REMARK  status: ('A' for Active; 'I' for Inactive)
REMARK    1  A    between atoms: C_1  and  N_2
REMARK    2  A    between atoms: N_2  and  C_3
REMARK    3  A    between atoms: C_3  and  C_4
REMARK    4  A    between atoms: C_7  and  C_8
REMARK    5  A    between atoms: C_8  and  N_9
REMARK    6  A    between atoms: C_10  and  C_12
REMARK    7  A    between atoms: C_19  and  C_21
REMARK                            x       y       z     vdW  Elec       q    Type
REMARK                         _______ _______ _______ _____ _____    ______ ____
ROOT
ATOM      1  C   UNL     1      51.548   7.714  17.659  0.00  0.00    +0.000 C 
ENDROOT
BRANCH   1   2
ATOM      2  C   UNL     1      50.482   7.912  16.609  0.00  0.00    +0.000 A 
ATOM      3  C   UNL     1      50.403   7.044  15.508  0.00  0.00    +0.000 A 
ATOM      4  C   UNL     1      49.384   7.187  14.565  0.00  0.00    +0.000 A 
ATOM      5  C   UNL     1      48.433   8.204  14.700  0.00  0.00    +0.000 A 
ATOM      6  C   UNL     1      48.515   9.072  15.798  0.00  0.00    +0.000 A 
ATOM      7  C   UNL     1      49.539   8.935  16.739  0.00  0.00    +0.000 A 
BRANCH   5   8
ATOM      8  C   UNL     1      47.306   8.333  13.713  0.00  0.00    +0.000 C 
BRANCH   8   9
ATOM      9  N   UNL     1      46.563   7.103  13.611  0.00  0.00    +0.000 N 
ATOM     10  C   UNL     1      45.461   6.994  12.795  0.00  0.00    +0.000 C 
ATOM     11  O   UNL     1      45.057   7.933  12.111  0.00  0.00    +0.000 OA
ATOM     12  H   UNL     1      46.888   6.282  14.109  0.00  0.00    +0.000 HD
BRANCH  10  13
ATOM     13  C   UNL     1      44.825   5.698  12.810  0.00  0.00    +0.000 A 
ATOM     14  C   UNL     1      43.499   5.326  12.834  0.00  0.00    +0.000 A 
ATOM     15  C   UNL     1      43.535   3.921  12.857  0.00  0.00    +0.000 A 
ATOM     16  N   UNL     1      44.785   3.452  12.846  0.00  0.00    +0.000 NA
ATOM     17  O   UNL     1      45.596   4.573  12.816  0.00  0.00    +0.000 OA
ENDBRANCH  10  13
ENDBRANCH   8   9
ENDBRANCH   5   8
ENDBRANCH   1   2
BRANCH   1  19
ATOM     18  C   UNL     1      50.965   8.643  19.950  0.00  0.00    +0.000 C 
ATOM     19  N   UNL     1      51.137   7.508  19.050  0.00  0.00    +0.000 N 
ATOM     20  C   UNL     1      50.755   6.257  19.570  0.00  0.00    +0.000 C 
ATOM     21  O   UNL     1      50.317   6.156  20.715  0.00  0.00    +0.000 OA
BRANCH  20  22
ATOM     22  C   UNL     1      50.917   5.044  18.752  0.00  0.00    +0.000 A 
ATOM     23  C   UNL     1      52.052   4.250  18.734  0.00  0.00    +0.000 A 
ATOM     24  S   UNL     1      51.911   2.870  17.740  0.00  0.00    +0.000 S 
ATOM     25  C   UNL     1      50.275   3.204  17.423  0.00  0.00    +0.000 A 
ATOM     26  N   UNL     1      49.512   2.335  16.708  0.00  0.00    +0.000 NA
ATOM     27  C   UNL     1      48.271   2.680  16.613  0.00  0.00    +0.000 A 
ATOM     28  N   UNL     1      47.735   3.831  17.133  0.00  0.00    +0.000 N 
ATOM     29  C   UNL     1      48.500   4.806  17.739  0.00  0.00    +0.000 A 
ATOM     30  O   UNL     1      48.038   5.919  17.965  0.00  0.00    +0.000 OA
ATOM     31  C   UNL     1      49.874   4.404  17.983  0.00  0.00    +0.000 A 
ATOM     32  H   UNL     1      46.771   4.074  16.961  0.00  0.00    +0.000 HD
ENDBRANCH  20  22
ENDBRANCH   1  19
TORSDOF 6
ENDMDL
MODEL 6
REMARK VINA RESULT:    -6.204      4.598      7.722
REMARK INTER + INTRA:          -9.586
REMARK INTER:                  -8.477
REMARK INTRA:                  -1.109
REMARK UNBOUND:                -1.205
REMARK  Name = 
REMARK  7 active torsions:
REMARK  status: ('A' for Active; 'I' for Inactive)
REMARK    1  A    between atoms: C_1  and  N_2
REMARK    2  A    between atoms: N_2  and  C_3
REMARK    3  A    between atoms: C_3  and  C_4
REMARK    4  A    between atoms: C_7  and  C_8
REMARK    5  A    between atoms: C_8  and  N_9
REMARK    6  A    between atoms: C_10  and  C_12
REMARK    7  A    between atoms: C_19  and  C_21
REMARK                            x       y       z     vdW  Elec       q    Type
REMARK                         _______ _______ _______ _____ _____    ______ ____
ROOT
ATOM      1  C   UNL     1      48.848   8.130  14.728  0.00  0.00    +0.000 C 
ENDROOT
BRANCH   1   2
ATOM      2  C   UNL     1      48.816   6.833  15.499  0.00  0.00    +0.000 A 
ATOM      3  C   UNL     1      49.716   6.616  16.555  0.00  0.00    +0.000 A 
ATOM      4  C   UNL     1      49.654   5.443  17.309  0.00  0.00    +0.000 A 
ATOM      5  C   UNL     1      48.697   4.464  17.016  0.00  0.00    +0.000 A 
ATOM      6  C   UNL     1      47.802   4.682  15.959  0.00  0.00    +0.000 A 
ATOM      7  C   UNL     1      47.869   5.852  15.198  0.00  0.00    +0.000 A 
BRANCH   5   8
ATOM      8  C   UNL     1      48.595   3.220  17.855  0.00  0.00    +0.000 C 
BRANCH   8   9
ATOM      9  N   UNL     1      49.901   2.686  18.150  0.00  0.00    +0.000 N 
ATOM     10  C   UNL     1      50.575   1.895  17.248  0.00  0.00    +0.000 C 
ATOM     11  O   UNL     1      50.105   1.609  16.149  0.00  0.00    +0.000 OA
ATOM     12  H   UNL     1      50.357   2.940  19.018  0.00  0.00    +0.000 HD
BRANCH  10  13
ATOM     13  C   UNL     1      51.867   1.435  17.698  0.00  0.00    +0.000 A 
ATOM     14  C   UNL     1      53.101   2.047  17.730  0.00  0.00    +0.000 A 
ATOM     15  C   UNL     1      53.957   1.068  18.261  0.00  0.00    +0.000 A 
ATOM     16  N   UNL     1      53.311  -0.065  18.543  0.00  0.00    +0.000 NA
ATOM     17  O   UNL     1      51.993   0.168  18.187  0.00  0.00    +0.000 OA
ENDBRANCH  10  13
ENDBRANCH   8   9
ENDBRANCH   5   8
ENDBRANCH   1   2
BRANCH   1  19
ATOM     18  C   UNL     1      51.166   8.443  13.739  0.00  0.00    +0.000 C 
ATOM     19  N   UNL     1      49.733   8.239  13.566  0.00  0.00    +0.000 N 
ATOM     20  C   UNL     1      49.306   8.022  12.242  0.00  0.00    +0.000 C 
ATOM     21  O   UNL     1      50.110   8.019  11.311  0.00  0.00    +0.000 OA
BRANCH  20  22
ATOM     22  C   UNL     1      47.875   7.833  11.956  0.00  0.00    +0.000 A 
ATOM     23  C   UNL     1      47.246   6.603  11.850  0.00  0.00    +0.000 A 
ATOM     24  S   UNL     1      45.564   6.710  11.585  0.00  0.00    +0.000 S 
ATOM     25  C   UNL     1      45.593   8.401  11.757  0.00  0.00    +0.000 A 
ATOM     26  N   UNL     1      44.442   9.122  11.749  0.00  0.00    +0.000 NA
ATOM     27  C   UNL     1      44.610  10.384  11.969  0.00  0.00    +0.000 A 
ATOM     28  N   UNL     1      45.826  10.992  12.155  0.00  0.00    +0.000 N 
ATOM     29  C   UNL     1      47.025  10.323  12.028  0.00  0.00    +0.000 A 
ATOM     30  O   UNL     1      48.083  10.936  11.952  0.00  0.00    +0.000 OA
ATOM     31  C   UNL     1      46.881   8.882  11.911  0.00  0.00    +0.000 A 
ATOM     32  H   UNL     1      45.891  11.994  12.251  0.00  0.00    +0.000 HD
ENDBRANCH  20  22
ENDBRANCH   1  19
TORSDOF 6
ENDMDL
MODEL 7
REMARK VINA RESULT:    -6.141      4.087      7.032
REMARK INTER + INTRA:          -9.500
REMARK INTER:                  -7.876
REMARK INTRA:                  -1.624
REMARK UNBOUND:                -1.205
REMARK  Name = 
REMARK  7 active torsions:
REMARK  status: ('A' for Active; 'I' for Inactive)
REMARK    1  A    between atoms: C_1  and  N_2
REMARK    2  A    between atoms: N_2  and  C_3
REMARK    3  A    between atoms: C_3  and  C_4
REMARK    4  A    between atoms: C_7  and  C_8
REMARK    5  A    between atoms: C_8  and  N_9
REMARK    6  A    between atoms: C_10  and  C_12
REMARK    7  A    between atoms: C_19  and  C_21
REMARK                            x       y       z     vdW  Elec       q    Type
REMARK                         _______ _______ _______ _____ _____    ______ ____
ROOT
ATOM      1  C   UNL     1      49.238  10.756  14.388  0.00  0.00    +0.000 C 
ENDROOT
BRANCH   1   2
ATOM      2  C   UNL     1      49.295   9.824  15.574  0.00  0.00    +0.000 A 
ATOM      3  C   UNL     1      48.121   9.489  16.267  0.00  0.00    +0.000 A 
ATOM      4  C   UNL     1      48.159   8.583  17.328  0.00  0.00    +0.000 A 
ATOM      5  C   UNL     1      49.371   8.003  17.720  0.00  0.00    +0.000 A 
ATOM      6  C   UNL     1      50.542   8.342  17.028  0.00  0.00    +0.000 A 
ATOM      7  C   UNL     1      50.508   9.255  15.971  0.00  0.00    +0.000 A 
BRANCH   5   8
ATOM      8  C   UNL     1      49.409   6.991  18.831  0.00  0.00    +0.000 C 
BRANCH   8   9
ATOM      9  N   UNL     1      49.828   5.702  18.344  0.00  0.00    +0.000 N 
ATOM     10  C   UNL     1      48.926   4.796  17.836  0.00  0.00    +0.000 C 
ATOM     11  O   UNL     1      47.722   5.040  17.768  0.00  0.00    +0.000 OA
ATOM     12  H   UNL     1      50.816   5.474  18.324  0.00  0.00    +0.000 HD
BRANCH  10  13
ATOM     13  C   UNL     1      49.504   3.550  17.395  0.00  0.00    +0.000 A 
ATOM     14  C   UNL     1      50.671   2.906  17.741  0.00  0.00    +0.000 A 
ATOM     15  C   UNL     1      50.672   1.744  16.950  0.00  0.00    +0.000 A 
ATOM     16  N   UNL     1      49.589   1.667  16.173  0.00  0.00    +0.000 NA
ATOM     17  O   UNL     1      48.854   2.805  16.455  0.00  0.00    +0.000 OA
ENDBRANCH  10  13
ENDBRANCH   8   9
ENDBRANCH   5   8
ENDBRANCH   1   2
BRANCH   1  19
ATOM     18  C   UNL     1      51.265  10.674  12.859  0.00  0.00    +0.000 C 
ATOM     19  N   UNL     1      49.873  10.340  13.134  0.00  0.00    +0.000 N 
ATOM     20  C   UNL     1      49.253   9.497  12.193  0.00  0.00    +0.000 C 
ATOM     21  O   UNL     1      49.867   9.091  11.207  0.00  0.00    +0.000 OA
BRANCH  20  22
ATOM     22  C   UNL     1      47.840   9.123  12.363  0.00  0.00    +0.000 A 
ATOM     23  C   UNL     1      46.765   9.911  11.986  0.00  0.00    +0.000 A 
ATOM     24  S   UNL     1      45.247   9.175  12.245  0.00  0.00    +0.000 S 
ATOM     25  C   UNL     1      45.980   7.718  12.724  0.00  0.00    +0.000 A 
ATOM     26  N   UNL     1      45.231   6.614  12.986  0.00  0.00    +0.000 NA
ATOM     27  C   UNL     1      45.925   5.560  13.262  0.00  0.00    +0.000 A 
ATOM     28  N   UNL     1      47.295   5.522  13.339  0.00  0.00    +0.000 N 
ATOM     29  C   UNL     1      48.084   6.648  13.223  0.00  0.00    +0.000 A 
ATOM     30  O   UNL     1      49.266   6.624  13.542  0.00  0.00    +0.000 OA
ATOM     31  C   UNL     1      47.357   7.827  12.785  0.00  0.00    +0.000 A 
ATOM     32  H   UNL     1      47.771   4.681  13.629  0.00  0.00    +0.000 HD
ENDBRANCH  20  22
ENDBRANCH   1  19
TORSDOF 6
ENDMDL
MODEL 8
REMARK VINA RESULT:    -6.104      3.842      7.483
REMARK INTER + INTRA:          -9.450
REMARK INTER:                  -8.319
REMARK INTRA:                  -1.131
REMARK UNBOUND:                -1.205
REMARK  Name = 
REMARK  7 active torsions:
REMARK  status: ('A' for Active; 'I' for Inactive)
REMARK    1  A    between atoms: C_1  and  N_2
REMARK    2  A    between atoms: N_2  and  C_3
REMARK    3  A    between atoms: C_3  and  C_4
REMARK    4  A    between atoms: C_7  and  C_8
REMARK    5  A    between atoms: C_8  and  N_9
REMARK    6  A    between atoms: C_10  and  C_12
REMARK    7  A    between atoms: C_19  and  C_21
REMARK                            x       y       z     vdW  Elec       q    Type
REMARK                         _______ _______ _______ _____ _____    ______ ____
ROOT
ATOM      1  C   UNL     1      49.640   8.538  14.840  0.00  0.00    +0.000 C 
ENDROOT
BRANCH   1   2
ATOM      2  C   UNL     1      49.565   7.277  15.667  0.00  0.00    +0.000 A 
ATOM      3  C   UNL     1      50.723   6.755  16.265  0.00  0.00    +0.000 A 
ATOM      4  C   UNL     1      50.651   5.623  17.079  0.00  0.00    +0.000 A 
ATOM      5  C   UNL     1      49.423   4.989  17.302  0.00  0.00    +0.000 A 
ATOM      6  C   UNL     1      48.269   5.511  16.701  0.00  0.00    +0.000 A 
ATOM      7  C   UNL     1      48.341   6.639  15.880  0.00  0.00    +0.000 A 
BRANCH   5   8
ATOM      8  C   UNL     1      49.333   3.798  18.215  0.00  0.00    +0.000 C 
BRANCH   8   9
ATOM      9  N   UNL     1      50.611   3.147  18.345  0.00  0.00    +0.000 N 
ATOM     10  C   UNL     1      50.994   2.136  17.494  0.00  0.00    +0.000 C 
ATOM     11  O   UNL     1      50.271   1.741  16.581  0.00  0.00    +0.000 OA
ATOM     12  H   UNL     1      51.268   3.474  19.045  0.00  0.00    +0.000 HD
BRANCH  10  13
ATOM     13  C   UNL     1      52.300   1.583  17.761  0.00  0.00    +0.000 A 
ATOM     14  C   UNL     1      53.565   2.111  17.629  0.00  0.00    +0.000 A 
ATOM     15  C   UNL     1      54.417   1.069  18.034  0.00  0.00    +0.000 A 
ATOM     16  N   UNL     1      53.738  -0.023  18.392  0.00  0.00    +0.000 NA
ATOM     17  O   UNL     1      52.404   0.303  18.220  0.00  0.00    +0.000 OA
ENDBRANCH  10  13
ENDBRANCH   8   9
ENDBRANCH   5   8
ENDBRANCH   1   2
BRANCH   1  19
ATOM     18  C   UNL     1      51.567   8.384  13.193  0.00  0.00    +0.000 C 
ATOM     19  N   UNL     1      50.136   8.450  13.465  0.00  0.00    +0.000 N 
ATOM     20  C   UNL     1      49.297   8.288  12.346  0.00  0.00    +0.000 C 
ATOM     21  O   UNL     1      49.768   8.112  11.223  0.00  0.00    +0.000 OA
BRANCH  20  22
ATOM     22  C   UNL     1      47.837   8.367  12.508  0.00  0.00    +0.000 A 
ATOM     23  C   UNL     1      47.090   9.527  12.378  0.00  0.00    +0.000 A 
ATOM     24  S   UNL     1      45.409   9.287  12.552  0.00  0.00    +0.000 S 
ATOM     25  C   UNL     1      45.609   7.602  12.651  0.00  0.00    +0.000 A 
ATOM     26  N   UNL     1      44.533   6.774  12.700  0.00  0.00    +0.000 NA
ATOM     27  C   UNL     1      44.834   5.518  12.694  0.00  0.00    +0.000 A 
ATOM     28  N   UNL     1      46.112   5.019  12.683  0.00  0.00    +0.000 N 
ATOM     29  C   UNL     1      47.231   5.821  12.777  0.00  0.00    +0.000 A 
ATOM     30  O   UNL     1      48.332   5.340  13.014  0.00  0.00    +0.000 OA
ATOM     31  C   UNL     1      46.944   7.239  12.656  0.00  0.00    +0.000 A 
ATOM     32  H   UNL     1      46.278   4.025  12.750  0.00  0.00    +0.000 HD
ENDBRANCH  20  22
ENDBRANCH   1  19
TORSDOF 6
ENDMDL
MODEL 9
REMARK VINA RESULT:    -5.979      2.453      3.444
REMARK INTER + INTRA:          -9.281
REMARK INTER:                  -8.139
REMARK INTRA:                  -1.143
REMARK UNBOUND:                -1.205
REMARK  Name = 
REMARK  7 active torsions:
REMARK  status: ('A' for Active; 'I' for Inactive)
REMARK    1  A    between atoms: C_1  and  N_2
REMARK    2  A    between atoms: N_2  and  C_3
REMARK    3  A    between atoms: C_3  and  C_4
REMARK    4  A    between atoms: C_7  and  C_8
REMARK    5  A    between atoms: C_8  and  N_9
REMARK    6  A    between atoms: C_10  and  C_12
REMARK    7  A    between atoms: C_19  and  C_21
REMARK                            x       y       z     vdW  Elec       q    Type
REMARK                         _______ _______ _______ _____ _____    ______ ____
ROOT
ATOM      1  C   UNL     1      50.971   8.149  14.200  0.00  0.00    +0.000 C 
ENDROOT
BRANCH   1   2
ATOM      2  C   UNL     1      49.681   7.717  13.547  0.00  0.00    +0.000 A 
ATOM      3  C   UNL     1      48.794   6.867  14.226  0.00  0.00    +0.000 A 
ATOM      4  C   UNL     1      47.573   6.511  13.651  0.00  0.00    +0.000 A 
ATOM      5  C   UNL     1      47.222   6.992  12.385  0.00  0.00    +0.000 A 
ATOM      6  C   UNL     1      48.110   7.838  11.707  0.00  0.00    +0.000 A 
ATOM      7  C   UNL     1      49.336   8.188  12.278  0.00  0.00    +0.000 A 
BRANCH   5   8
ATOM      8  C   UNL     1      45.887   6.649  11.781  0.00  0.00    +0.000 C 
BRANCH   8   9
ATOM      9  N   UNL     1      46.047   5.885  10.570  0.00  0.00    +0.000 N 
ATOM     10  C   UNL     1      45.036   5.090  10.082  0.00  0.00    +0.000 C 
ATOM     11  O   UNL     1      43.949   4.993  10.648  0.00  0.00    +0.000 OA
ATOM     12  H   UNL     1      46.904   5.975  10.035  0.00  0.00    +0.000 HD
BRANCH  10  13
ATOM     13  C   UNL     1      45.357   4.385   8.864  0.00  0.00    +0.000 A 
ATOM     14  C   UNL     1      44.891   3.200   8.339  0.00  0.00    +0.000 A 
ATOM     15  C   UNL     1      45.607   3.051   7.139  0.00  0.00    +0.000 A 
ATOM     16  N   UNL     1      46.451   4.063   6.929  0.00  0.00    +0.000 NA
ATOM     17  O   UNL     1      46.292   4.904   8.017  0.00  0.00    +0.000 OA
ENDBRANCH  10  13
ENDBRANCH   8   9
ENDBRANCH   5   8
ENDBRANCH   1   2
BRANCH   1  19
ATOM     18  C   UNL     1      50.636  10.484  15.141  0.00  0.00    +0.000 C 
ATOM     19  N   UNL     1      50.911   9.066  15.341  0.00  0.00    +0.000 N 
ATOM     20  C   UNL     1      50.973   8.643  16.682  0.00  0.00    +0.000 C 
ATOM     21  O   UNL     1      50.811   9.439  17.605  0.00  0.00    +0.000 OA
BRANCH  20  22
ATOM     22  C   UNL     1      51.274   7.236  16.992  0.00  0.00    +0.000 A 
ATOM     23  C   UNL     1      52.532   6.661  16.907  0.00  0.00    +0.000 A 
ATOM     24  S   UNL     1      52.578   5.028  17.402  0.00  0.00    +0.000 S 
ATOM     25  C   UNL     1      50.951   5.080  17.893  0.00  0.00    +0.000 A 
ATOM     26  N   UNL     1      50.378   4.018  18.520  0.00  0.00    +0.000 NA
ATOM     27  C   UNL     1      49.163   4.227  18.905  0.00  0.00    +0.000 A 
ATOM     28  N   UNL     1      48.459   5.384  18.684  0.00  0.00    +0.000 N 
ATOM     29  C   UNL     1      48.952   6.429  17.929  0.00  0.00    +0.000 A 
ATOM     30  O   UNL     1      48.216   7.330  17.545  0.00  0.00    +0.000 OA
ATOM     31  C   UNL     1      50.357   6.291  17.588  0.00  0.00    +0.000 A 
ATOM     32  H   UNL     1      47.489   5.455  18.951  0.00  0.00    +0.000 HD
ENDBRANCH  20  22
ENDBRANCH   1  19
TORSDOF 6
ENDMDL
