MODEL 1
REMARK VINA RESULT:    -8.141      0.000      0.000
REMARK INTER + INTRA:         -13.230
REMARK INTER:                 -11.948
REMARK INTRA:                  -1.282
REMARK UNBOUND:                -1.282
REMARK  Name = 
REMARK  9 active torsions:
REMARK  status: ('A' for Active; 'I' for Inactive)
REMARK    1  A    between atoms: N_1  and  C_2
REMARK    2  A    between atoms: C_2  and  C_3
REMARK    3  A    between atoms: C_3  and  N_4
REMARK    4  A    between atoms: C_3  and  C_19
REMARK    5  A    between atoms: N_4  and  C_5
REMARK    6  A    between atoms: C_8  and  C_9
REMARK    7  A    between atoms: C_9  and  N_10
REMARK    8  A    between atoms: N_10  and  C_11
REMARK    9  A    between atoms: C_14  and  O_15
REMARK                            x       y       z     vdW  Elec       q    Type
REMARK                         _______ _______ _______ _____ _____    ______ ____
ROOT
ATOM      1  N   UNL     1      48.279   5.879  16.038  0.00  0.00    +0.000 N 
ATOM      2  H   UNL     1      49.156   6.393  16.026  0.00  0.00    +0.000 HD
ENDROOT
BRANCH   1   3
ATOM      3  C   UNL     1      47.669   5.956  14.774  0.00  0.00    +0.000 A 
ATOM      4  C   UNL     1      47.928   6.987  13.868  0.00  0.00    +0.000 A 
ATOM      5  C   UNL     1      47.337   7.007  12.602  0.00  0.00    +0.000 A 
ATOM      6  C   UNL     1      46.509   5.960  12.180  0.00  0.00    +0.000 A 
ATOM      7  C   UNL     1      46.291   4.892  13.053  0.00  0.00    +0.000 A 
ATOM      8  C   UNL     1      46.878   4.887  14.327  0.00  0.00    +0.000 A 
BRANCH   6   9
ATOM      9  C   UNL     1      45.867   6.009  10.814  0.00  0.00    +0.000 C 
BRANCH   9  10
ATOM     10  N   UNL     1      44.413   6.151  10.931  0.00  0.00    +0.000 NA
ATOM     11  H   UNL     1      44.148   7.046  10.516  0.00  0.00    +0.000 HD
BRANCH  10  12
ATOM     12  C   UNL     1      43.668   5.065  10.294  0.00  0.00    +0.000 C 
ATOM     13  C   UNL     1      44.587   4.106   9.505  0.00  0.00    +0.000 C 
ATOM     14  C   UNL     1      44.337   2.714  10.064  0.00  0.00    +0.000 C 
ATOM     15  C   UNL     1      43.927   2.982  11.501  0.00  0.00    +0.000 C 
ATOM     16  C   UNL     1      43.001   4.181  11.362  0.00  0.00    +0.000 C 
BRANCH  15  17
ATOM     17  O   UNL     1      43.275   1.865  12.077  0.00  0.00    +0.000 OA
ATOM     18  H   UNL     1      43.469   1.855  13.029  0.00  0.00    +0.000 HD
ENDBRANCH  15  17
ENDBRANCH  10  12
ENDBRANCH   9  10
ENDBRANCH   6   9
ENDBRANCH   1   3
BRANCH   1  19
ATOM     19  C   UNL     1      48.471   4.542  16.661  0.00  0.00    +0.000 C 
BRANCH  19  20
ATOM     20  C   UNL     1      49.819   4.403  17.359  0.00  0.00    +0.000 A 
ATOM     21  C   UNL     1      50.443   5.436  18.042  0.00  0.00    +0.000 A 
ATOM     22  S   UNL     1      51.930   4.980  18.739  0.00  0.00    +0.000 S 
ATOM     23  C   UNL     1      51.799   3.395  18.133  0.00  0.00    +0.000 A 
ATOM     24  N   UNL     1      52.765   2.471  18.368  0.00  0.00    +0.000 NA
ATOM     25  C   UNL     1      52.532   1.313  17.843  0.00  0.00    +0.000 A 
ATOM     26  N   UNL     1      51.421   0.997  17.102  0.00  0.00    +0.000 N 
ATOM     27  C   UNL     1      50.407   1.890  16.851  0.00  0.00    +0.000 A 
ATOM     28  O   UNL     1      49.406   1.556  16.221  0.00  0.00    +0.000 OA
ATOM     29  C   UNL     1      50.629   3.212  17.414  0.00  0.00    +0.000 A 
ATOM     30  H   UNL     1      51.294   0.069  16.731  0.00  0.00    +0.000 HD
ENDBRANCH  19  20
BRANCH  19  31
ATOM     31  C   UNL     1      47.315   4.278  17.692  0.00  0.00    +0.000 C 
BRANCH  31  32
ATOM     32  N   UNL     1      46.735   2.926  17.652  0.00  0.00    +0.000 NA
ATOM     33  H   UNL     1      46.188   2.831  16.798  0.00  0.00    +0.000 HD
ATOM     34  H   UNL     1      47.512   2.264  17.548  0.00  0.00    +0.000 HD
ENDBRANCH  31  32
ENDBRANCH  19  31
ENDBRANCH   1  19
TORSDOF 9
ENDMDL
MODEL 2
REMARK VINA RESULT:    -8.019      2.136      2.583
REMARK INTER + INTRA:         -13.051
REMARK INTER:                 -11.960
REMARK INTRA:                  -1.091
REMARK UNBOUND:                -1.282
REMARK  Name = 
REMARK  9 active torsions:
REMARK  status: ('A' for Active; 'I' for Inactive)
REMARK    1  A    between atoms: N_1  and  C_2
REMARK    2  A    between atoms: C_2  and  C_3
REMARK    3  A    between atoms: C_3  and  N_4
REMARK    4  A    between atoms: C_3  and  C_19
REMARK    5  A    between atoms: N_4  and  C_5
REMARK    6  A    between atoms: C_8  and  C_9
REMARK    7  A    between atoms: C_9  and  N_10
REMARK    8  A    between atoms: N_10  and  C_11
REMARK    9  A    between atoms: C_14  and  O_15
REMARK                            x       y       z     vdW  Elec       q    Type
REMARK                         _______ _______ _______ _____ _____    ______ ____
ROOT
ATOM      1  N   UNL     1      47.658   5.503  15.316  0.00  0.00    +0.000 N 
ATOM      2  H   UNL     1      48.453   6.066  15.023  0.00  0.00    +0.000 HD
ENDROOT
BRANCH   1   3
ATOM      3  C   UNL     1      46.908   5.122  14.190  0.00  0.00    +0.000 A 
ATOM      4  C   UNL     1      46.430   6.039  13.251  0.00  0.00    +0.000 A 
ATOM      5  C   UNL     1      45.726   5.620  12.119  0.00  0.00    +0.000 A 
ATOM      6  C   UNL     1      45.526   4.258  11.862  0.00  0.00    +0.000 A 
ATOM      7  C   UNL     1      46.051   3.327  12.762  0.00  0.00    +0.000 A 
ATOM      8  C   UNL     1      46.746   3.759  13.902  0.00  0.00    +0.000 A 
BRANCH   6   9
ATOM      9  C   UNL     1      44.747   3.825  10.643  0.00  0.00    +0.000 C 
BRANCH   9  10
ATOM     10  N   UNL     1      45.234   2.536  10.148  0.00  0.00    +0.000 NA
ATOM     11  H   UNL     1      44.759   1.797  10.669  0.00  0.00    +0.000 HD
BRANCH  10  12
ATOM     12  C   UNL     1      45.029   2.347   8.712  0.00  0.00    +0.000 C 
ATOM     13  C   UNL     1      45.347   3.622   7.901  0.00  0.00    +0.000 C 
ATOM     14  C   UNL     1      46.391   3.226   6.869  0.00  0.00    +0.000 C 
ATOM     15  C   UNL     1      47.132   2.082   7.541  0.00  0.00    +0.000 C 
ATOM     16  C   UNL     1      46.000   1.284   8.172  0.00  0.00    +0.000 C 
BRANCH  15  17
ATOM     17  O   UNL     1      47.872   1.317   6.608  0.00  0.00    +0.000 OA
ATOM     18  H   UNL     1      47.796   1.739   5.737  0.00  0.00    +0.000 HD
ENDBRANCH  15  17
ENDBRANCH  10  12
ENDBRANCH   9  10
ENDBRANCH   6   9
ENDBRANCH   1   3
BRANCH   1  19
ATOM     19  C   UNL     1      48.092   4.454  16.276  0.00  0.00    +0.000 C 
BRANCH  19  20
ATOM     20  C   UNL     1      49.413   4.789  16.960  0.00  0.00    +0.000 A 
ATOM     21  C   UNL     1      49.810   6.080  17.279  0.00  0.00    +0.000 A 
ATOM     22  S   UNL     1      51.325   6.144  18.059  0.00  0.00    +0.000 S 
ATOM     23  C   UNL     1      51.509   4.453  17.975  0.00  0.00    +0.000 A 
ATOM     24  N   UNL     1      52.616   3.843  18.468  0.00  0.00    +0.000 NA
ATOM     25  C   UNL     1      52.620   2.558  18.332  0.00  0.00    +0.000 A 
ATOM     26  N   UNL     1      51.616   1.829  17.744  0.00  0.00    +0.000 N 
ATOM     27  C   UNL     1      50.468   2.397  17.246  0.00  0.00    +0.000 A 
ATOM     28  O   UNL     1      49.572   1.706  16.767  0.00  0.00    +0.000 OA
ATOM     29  C   UNL     1      50.423   3.845  17.368  0.00  0.00    +0.000 A 
ATOM     30  H   UNL     1      51.675   0.825  17.681  0.00  0.00    +0.000 HD
ENDBRANCH  19  20
BRANCH  19  31
ATOM     31  C   UNL     1      46.976   4.248  17.362  0.00  0.00    +0.000 C 
BRANCH  31  32
ATOM     32  N   UNL     1      46.673   2.847  17.694  0.00  0.00    +0.000 NA
ATOM     33  H   UNL     1      45.878   2.544  17.133  0.00  0.00    +0.000 HD
ATOM     34  H   UNL     1      47.463   2.279  17.367  0.00  0.00    +0.000 HD
ENDBRANCH  31  32
ENDBRANCH  19  31
ENDBRANCH   1  19
TORSDOF 9
ENDMDL
MODEL 3
REMARK VINA RESULT:    -7.179      4.660      6.754
REMARK INTER + INTRA:         -11.818
REMARK INTER:                 -10.668
REMARK INTRA:                  -1.150
REMARK UNBOUND:                -1.282
REMARK  Name = 
REMARK  9 active torsions:
REMARK  status: ('A' for Active; 'I' for Inactive)
REMARK    1  A    between atoms: N_1  and  C_2
REMARK    2  A    between atoms: C_2  and  C_3
REMARK    3  A    between atoms: C_3  and  N_4
REMARK    4  A    between atoms: C_3  and  C_19
REMARK    5  A    between atoms: N_4  and  C_5
REMARK    6  A    between atoms: C_8  and  C_9
REMARK    7  A    between atoms: C_9  and  N_10
REMARK    8  A    between atoms: N_10  and  C_11
REMARK    9  A    between atoms: C_14  and  O_15
REMARK                            x       y       z     vdW  Elec       q    Type
REMARK                         _______ _______ _______ _____ _____    ______ ____
ROOT
ATOM      1  N   UNL     1      46.737   6.748  13.777  0.00  0.00    +0.000 N 
ATOM      2  H   UNL     1      46.047   7.478  13.938  0.00  0.00    +0.000 HD
ENDROOT
BRANCH   1   3
ATOM      3  C   UNL     1      46.205   5.778  12.909  0.00  0.00    +0.000 A 
ATOM      4  C   UNL     1      46.107   4.427  13.251  0.00  0.00    +0.000 A 
ATOM      5  C   UNL     1      45.531   3.498  12.380  0.00  0.00    +0.000 A 
ATOM      6  C   UNL     1      44.981   3.905  11.159  0.00  0.00    +0.000 A 
ATOM      7  C   UNL     1      45.018   5.262  10.832  0.00  0.00    +0.000 A 
ATOM      8  C   UNL     1      45.609   6.186  11.706  0.00  0.00    +0.000 A 
BRANCH   6   9
ATOM      9  C   UNL     1      44.379   2.883  10.224  0.00  0.00    +0.000 C 
BRANCH   9  10
ATOM     10  N   UNL     1      45.421   2.027   9.652  0.00  0.00    +0.000 NA
ATOM     11  H   UNL     1      45.324   1.095  10.059  0.00  0.00    +0.000 HD
BRANCH  10  12
ATOM     12  C   UNL     1      45.370   1.942   8.193  0.00  0.00    +0.000 C 
ATOM     13  C   UNL     1      45.449   3.331   7.521  0.00  0.00    +0.000 C 
ATOM     14  C   UNL     1      46.630   3.278   6.563  0.00  0.00    +0.000 C 
ATOM     15  C   UNL     1      47.559   2.263   7.207  0.00  0.00    +0.000 C 
ATOM     16  C   UNL     1      46.594   1.177   7.662  0.00  0.00    +0.000 C 
BRANCH  15  17
ATOM     17  O   UNL     1      48.520   1.776   6.290  0.00  0.00    +0.000 OA
ATOM     18  H   UNL     1      48.156   1.855   5.393  0.00  0.00    +0.000 HD
ENDBRANCH  15  17
ENDBRANCH  10  12
ENDBRANCH   9  10
ENDBRANCH   6   9
ENDBRANCH   1   3
BRANCH   1  19
ATOM     19  C   UNL     1      48.060   7.347  13.457  0.00  0.00    +0.000 C 
BRANCH  19  20
ATOM     20  C   UNL     1      47.944   8.671  12.709  0.00  0.00    +0.000 A 
ATOM     21  C   UNL     1      46.791   9.443  12.682  0.00  0.00    +0.000 A 
ATOM     22  S   UNL     1      46.966  10.881  11.785  0.00  0.00    +0.000 S 
ATOM     23  C   UNL     1      48.579  10.510  11.386  0.00  0.00    +0.000 A 
ATOM     24  N   UNL     1      49.321  11.344  10.615  0.00  0.00    +0.000 NA
ATOM     25  C   UNL     1      50.525  10.932  10.392  0.00  0.00    +0.000 A 
ATOM     26  N   UNL     1      51.053   9.757  10.870  0.00  0.00    +0.000 N 
ATOM     27  C   UNL     1      50.350   8.888  11.669  0.00  0.00    +0.000 A 
ATOM     28  O   UNL     1      50.871   7.869  12.114  0.00  0.00    +0.000 OA
ATOM     29  C   UNL     1      48.984   9.306  11.939  0.00  0.00    +0.000 A 
ATOM     30  H   UNL     1      52.006   9.500  10.669  0.00  0.00    +0.000 HD
ENDBRANCH  19  20
BRANCH  19  31
ATOM     31  C   UNL     1      48.868   7.563  14.787  0.00  0.00    +0.000 C 
BRANCH  31  32
ATOM     32  N   UNL     1      50.093   6.757  14.915  0.00  0.00    +0.000 NA
ATOM     33  H   UNL     1      50.895   7.383  14.927  0.00  0.00    +0.000 HD
ATOM     34  H   UNL     1      50.076   6.324  15.846  0.00  0.00    +0.000 HD
ENDBRANCH  31  32
ENDBRANCH  19  31
ENDBRANCH   1  19
TORSDOF 9
ENDMDL
MODEL 4
REMARK VINA RESULT:    -6.847      2.473      3.387
REMARK INTER + INTRA:         -11.331
REMARK INTER:                 -10.285
REMARK INTRA:                  -1.046
REMARK UNBOUND:                -1.282
REMARK  Name = 
REMARK  9 active torsions:
REMARK  status: ('A' for Active; 'I' for Inactive)
REMARK    1  A    between atoms: N_1  and  C_2
REMARK    2  A    between atoms: C_2  and  C_3
REMARK    3  A    between atoms: C_3  and  N_4
REMARK    4  A    between atoms: C_3  and  C_19
REMARK    5  A    between atoms: N_4  and  C_5
REMARK    6  A    between atoms: C_8  and  C_9
REMARK    7  A    between atoms: C_9  and  N_10
REMARK    8  A    between atoms: N_10  and  C_11
REMARK    9  A    between atoms: C_14  and  O_15
REMARK                            x       y       z     vdW  Elec       q    Type
REMARK                         _______ _______ _______ _____ _____    ______ ____
ROOT
ATOM      1  N   UNL     1      48.749   7.082  13.586  0.00  0.00    +0.000 N 
ATOM      2  H   UNL     1      49.614   6.616  13.321  0.00  0.00    +0.000 HD
ENDROOT
BRANCH   1   3
ATOM      3  C   UNL     1      47.655   6.409  13.017  0.00  0.00    +0.000 A 
ATOM      4  C   UNL     1      47.115   6.754  11.776  0.00  0.00    +0.000 A 
ATOM      5  C   UNL     1      46.054   6.035  11.220  0.00  0.00    +0.000 A 
ATOM      6  C   UNL     1      45.536   4.905  11.865  0.00  0.00    +0.000 A 
ATOM      7  C   UNL     1      46.108   4.512  13.078  0.00  0.00    +0.000 A 
ATOM      8  C   UNL     1      47.164   5.249  13.635  0.00  0.00    +0.000 A 
BRANCH   6   9
ATOM      9  C   UNL     1      44.379   4.151  11.257  0.00  0.00    +0.000 C 
BRANCH   9  10
ATOM     10  N   UNL     1      44.827   2.870  10.707  0.00  0.00    +0.000 NA
ATOM     11  H   UNL     1      44.415   2.123  11.269  0.00  0.00    +0.000 HD
BRANCH  10  12
ATOM     12  C   UNL     1      44.480   2.685   9.298  0.00  0.00    +0.000 C 
ATOM     13  C   UNL     1      44.890   3.895   8.430  0.00  0.00    +0.000 C 
ATOM     14  C   UNL     1      45.785   3.349   7.328  0.00  0.00    +0.000 C 
ATOM     15  C   UNL     1      46.427   2.130   7.968  0.00  0.00    +0.000 C 
ATOM     16  C   UNL     1      45.259   1.496   8.710  0.00  0.00    +0.000 C 
BRANCH  15  17
ATOM     17  O   UNL     1      46.982   1.260   7.000  0.00  0.00    +0.000 OA
ATOM     18  H   UNL     1      47.868   1.585   6.770  0.00  0.00    +0.000 HD
ENDBRANCH  15  17
ENDBRANCH  10  12
ENDBRANCH   9  10
ENDBRANCH   6   9
ENDBRANCH   1   3
BRANCH   1  19
ATOM     19  C   UNL     1      48.739   7.358  15.048  0.00  0.00    +0.000 C 
BRANCH  19  20
ATOM     20  C   UNL     1      50.007   6.883  15.749  0.00  0.00    +0.000 A 
ATOM     21  C   UNL     1      51.268   7.406  15.498  0.00  0.00    +0.000 A 
ATOM     22  S   UNL     1      52.492   6.694  16.448  0.00  0.00    +0.000 S 
ATOM     23  C   UNL     1      51.381   5.651  17.207  0.00  0.00    +0.000 A 
ATOM     24  N   UNL     1      51.786   4.757  18.145  0.00  0.00    +0.000 NA
ATOM     25  C   UNL     1      50.835   4.030  18.632  0.00  0.00    +0.000 A 
ATOM     26  N   UNL     1      49.516   4.115  18.263  0.00  0.00    +0.000 N 
ATOM     27  C   UNL     1      49.052   5.014  17.333  0.00  0.00    +0.000 A 
ATOM     28  O   UNL     1      47.856   5.091  17.063  0.00  0.00    +0.000 OA
ATOM     29  C   UNL     1      50.089   5.849  16.749  0.00  0.00    +0.000 A 
ATOM     30  H   UNL     1      48.820   3.526  18.693  0.00  0.00    +0.000 HD
ENDBRANCH  19  20
BRANCH  19  31
ATOM     31  C   UNL     1      48.554   8.900  15.283  0.00  0.00    +0.000 C 
BRANCH  31  32
ATOM     32  N   UNL     1      47.539   9.266  16.284  0.00  0.00    +0.000 NA
ATOM     33  H   UNL     1      46.877   9.910  15.856  0.00  0.00    +0.000 HD
ATOM     34  H   UNL     1      46.996   8.419  16.490  0.00  0.00    +0.000 HD
ENDBRANCH  31  32
ENDBRANCH  19  31
ENDBRANCH   1  19
TORSDOF 9
ENDMDL
MODEL 5
REMARK VINA RESULT:    -6.839      3.380      5.045
REMARK INTER + INTRA:         -11.320
REMARK INTER:                 -10.438
REMARK INTRA:                  -0.881
REMARK UNBOUND:                -1.282
REMARK  Name = 
REMARK  9 active torsions:
REMARK  status: ('A' for Active; 'I' for Inactive)
REMARK    1  A    between atoms: N_1  and  C_2
REMARK    2  A    between atoms: C_2  and  C_3
REMARK    3  A    between atoms: C_3  and  N_4
REMARK    4  A    between atoms: C_3  and  C_19
REMARK    5  A    between atoms: N_4  and  C_5
REMARK    6  A    between atoms: C_8  and  C_9
REMARK    7  A    between atoms: C_9  and  N_10
REMARK    8  A    between atoms: N_10  and  C_11
REMARK    9  A    between atoms: C_14  and  O_15
REMARK                            x       y       z     vdW  Elec       q    Type
REMARK                         _______ _______ _______ _____ _____    ______ ____
ROOT
ATOM      1  N   UNL     1      46.523   6.546  13.668  0.00  0.00    +0.000 N 
ATOM      2  H   UNL     1      45.772   7.085  14.092  0.00  0.00    +0.000 HD
ENDROOT
BRANCH   1   3
ATOM      3  C   UNL     1      45.994   5.673  12.703  0.00  0.00    +0.000 A 
ATOM      4  C   UNL     1      45.828   4.304  12.929  0.00  0.00    +0.000 A 
ATOM      5  C   UNL     1      45.257   3.473  11.962  0.00  0.00    +0.000 A 
ATOM      6  C   UNL     1      44.778   3.998  10.756  0.00  0.00    +0.000 A 
ATOM      7  C   UNL     1      44.882   5.375  10.543  0.00  0.00    +0.000 A 
ATOM      8  C   UNL     1      45.469   6.200  11.514  0.00  0.00    +0.000 A 
BRANCH   6   9
ATOM      9  C   UNL     1      44.180   3.081   9.717  0.00  0.00    +0.000 C 
BRANCH   9  10
ATOM     10  N   UNL     1      44.796   3.309   8.407  0.00  0.00    +0.000 NA
ATOM     11  H   UNL     1      44.711   4.303   8.186  0.00  0.00    +0.000 HD
BRANCH  10  12
ATOM     12  C   UNL     1      46.199   2.900   8.343  0.00  0.00    +0.000 C 
ATOM     13  C   UNL     1      46.358   1.393   8.045  0.00  0.00    +0.000 C 
ATOM     14  C   UNL     1      47.228   1.291   6.802  0.00  0.00    +0.000 C 
ATOM     15  C   UNL     1      46.928   2.580   6.056  0.00  0.00    +0.000 C 
ATOM     16  C   UNL     1      46.906   3.610   7.177  0.00  0.00    +0.000 C 
BRANCH  15  17
ATOM     17  O   UNL     1      47.916   2.866   5.084  0.00  0.00    +0.000 OA
ATOM     18  H   UNL     1      48.784   2.854   5.518  0.00  0.00    +0.000 HD
ENDBRANCH  15  17
ENDBRANCH  10  12
ENDBRANCH   9  10
ENDBRANCH   6   9
ENDBRANCH   1   3
BRANCH   1  19
ATOM     19  C   UNL     1      47.648   7.442  13.285  0.00  0.00    +0.000 C 
BRANCH  19  20
ATOM     20  C   UNL     1      48.264   8.162  14.479  0.00  0.00    +0.000 A 
ATOM     21  C   UNL     1      48.472   9.533  14.528  0.00  0.00    +0.000 A 
ATOM     22  S   UNL     1      49.157  10.057  15.998  0.00  0.00    +0.000 S 
ATOM     23  C   UNL     1      49.218   8.468  16.607  0.00  0.00    +0.000 A 
ATOM     24  N   UNL     1      49.714   8.210  17.844  0.00  0.00    +0.000 NA
ATOM     25  C   UNL     1      49.701   6.960  18.171  0.00  0.00    +0.000 A 
ATOM     26  N   UNL     1      49.238   5.945  17.370  0.00  0.00    +0.000 N 
ATOM     27  C   UNL     1      48.710   6.156  16.119  0.00  0.00    +0.000 A 
ATOM     28  O   UNL     1      48.264   5.226  15.452  0.00  0.00    +0.000 OA
ATOM     29  C   UNL     1      48.712   7.549  15.703  0.00  0.00    +0.000 A 
ATOM     30  H   UNL     1      49.243   4.990  17.692  0.00  0.00    +0.000 HD
ENDBRANCH  19  20
BRANCH  19  31
ATOM     31  C   UNL     1      48.753   6.602  12.549  0.00  0.00    +0.000 C 
BRANCH  31  32
ATOM     32  N   UNL     1      50.086   7.224  12.501  0.00  0.00    +0.000 NA
ATOM     33  H   UNL     1      50.762   6.577  12.904  0.00  0.00    +0.000 HD
ATOM     34  H   UNL     1      50.349   7.306  11.512  0.00  0.00    +0.000 HD
ENDBRANCH  31  32
ENDBRANCH  19  31
ENDBRANCH   1  19
TORSDOF 9
ENDMDL
MODEL 6
REMARK VINA RESULT:    -6.341      4.234      5.439
REMARK INTER + INTRA:         -10.588
REMARK INTER:                 -10.006
REMARK INTRA:                  -0.582
REMARK UNBOUND:                -1.282
REMARK  Name = 
REMARK  9 active torsions:
REMARK  status: ('A' for Active; 'I' for Inactive)
REMARK    1  A    between atoms: N_1  and  C_2
REMARK    2  A    between atoms: C_2  and  C_3
REMARK    3  A    between atoms: C_3  and  N_4
REMARK    4  A    between atoms: C_3  and  C_19
REMARK    5  A    between atoms: N_4  and  C_5
REMARK    6  A    between atoms: C_8  and  C_9
REMARK    7  A    between atoms: C_9  and  N_10
REMARK    8  A    between atoms: N_10  and  C_11
REMARK    9  A    between atoms: C_14  and  O_15
REMARK                            x       y       z     vdW  Elec       q    Type
REMARK                         _______ _______ _______ _____ _____    ______ ____
ROOT
ATOM      1  N   UNL     1      46.431   7.635  13.634  0.00  0.00    +0.000 N 
ATOM      2  H   UNL     1      45.798   8.426  13.544  0.00  0.00    +0.000 HD
ENDROOT
BRANCH   1   3
ATOM      3  C   UNL     1      45.931   6.543  12.905  0.00  0.00    +0.000 A 
ATOM      4  C   UNL     1      46.093   5.218  13.317  0.00  0.00    +0.000 A 
ATOM      5  C   UNL     1      45.543   4.159  12.590  0.00  0.00    +0.000 A 
ATOM      6  C   UNL     1      44.760   4.398  11.454  0.00  0.00    +0.000 A 
ATOM      7  C   UNL     1      44.538   5.722  11.067  0.00  0.00    +0.000 A 
ATOM      8  C   UNL     1      45.106   6.778  11.795  0.00  0.00    +0.000 A 
BRANCH   6   9
ATOM      9  C   UNL     1      44.189   3.240  10.672  0.00  0.00    +0.000 C 
BRANCH   9  10
ATOM     10  N   UNL     1      45.260   2.449  10.061  0.00  0.00    +0.000 NA
ATOM     11  H   UNL     1      45.321   1.560  10.561  0.00  0.00    +0.000 HD
BRANCH  10  12
ATOM     12  C   UNL     1      45.065   2.208   8.632  0.00  0.00    +0.000 C 
ATOM     13  C   UNL     1      45.261   3.487   7.789  0.00  0.00    +0.000 C 
ATOM     14  C   UNL     1      46.332   3.162   6.759  0.00  0.00    +0.000 C 
ATOM     15  C   UNL     1      47.177   2.108   7.451  0.00  0.00    +0.000 C 
ATOM     16  C   UNL     1      46.127   1.224   8.110  0.00  0.00    +0.000 C 
BRANCH  15  17
ATOM     17  O   UNL     1      47.979   1.391   6.532  0.00  0.00    +0.000 OA
ATOM     18  H   UNL     1      48.816   1.162   6.969  0.00  0.00    +0.000 HD
ENDBRANCH  15  17
ENDBRANCH  10  12
ENDBRANCH   9  10
ENDBRANCH   6   9
ENDBRANCH   1   3
BRANCH   1  19
ATOM     19  C   UNL     1      47.835   8.068  13.404  0.00  0.00    +0.000 C 
BRANCH  19  20
ATOM     20  C   UNL     1      48.742   7.798  14.599  0.00  0.00    +0.000 A 
ATOM     21  C   UNL     1      48.659   6.658  15.387  0.00  0.00    +0.000 A 
ATOM     22  S   UNL     1      49.816   6.621  16.638  0.00  0.00    +0.000 S 
ATOM     23  C   UNL     1      50.450   8.134  16.182  0.00  0.00    +0.000 A 
ATOM     24  N   UNL     1      51.480   8.697  16.862  0.00  0.00    +0.000 NA
ATOM     25  C   UNL     1      51.853   9.847  16.405  0.00  0.00    +0.000 A 
ATOM     26  N   UNL     1      51.286  10.485  15.330  0.00  0.00    +0.000 N 
ATOM     27  C   UNL     1      50.254   9.950  14.598  0.00  0.00    +0.000 A 
ATOM     28  O   UNL     1      49.803  10.531  13.614  0.00  0.00    +0.000 OA
ATOM     29  C   UNL     1      49.793   8.658  15.081  0.00  0.00    +0.000 A 
ATOM     30  H   UNL     1      51.634  11.377  15.016  0.00  0.00    +0.000 HD
ENDBRANCH  19  20
BRANCH  19  31
ATOM     31  C   UNL     1      48.404   7.335  12.136  0.00  0.00    +0.000 C 
BRANCH  31  32
ATOM     32  N   UNL     1      49.829   6.975  12.205  0.00  0.00    +0.000 NA
ATOM     33  H   UNL     1      50.010   6.531  13.103  0.00  0.00    +0.000 HD
ATOM     34  H   UNL     1      49.992   6.242  11.505  0.00  0.00    +0.000 HD
ENDBRANCH  31  32
ENDBRANCH  19  31
ENDBRANCH   1  19
TORSDOF 9
ENDMDL
MODEL 7
REMARK VINA RESULT:    -6.310      2.878      8.437
REMARK INTER + INTRA:         -10.542
REMARK INTER:                  -9.365
REMARK INTRA:                  -1.177
REMARK UNBOUND:                -1.282
REMARK  Name = 
REMARK  9 active torsions:
REMARK  status: ('A' for Active; 'I' for Inactive)
REMARK    1  A    between atoms: N_1  and  C_2
REMARK    2  A    between atoms: C_2  and  C_3
REMARK    3  A    between atoms: C_3  and  N_4
REMARK    4  A    between atoms: C_3  and  C_19
REMARK    5  A    between atoms: N_4  and  C_5
REMARK    6  A    between atoms: C_8  and  C_9
REMARK    7  A    between atoms: C_9  and  N_10
REMARK    8  A    between atoms: N_10  and  C_11
REMARK    9  A    between atoms: C_14  and  O_15
REMARK                            x       y       z     vdW  Elec       q    Type
REMARK                         _______ _______ _______ _____ _____    ______ ____
ROOT
ATOM      1  N   UNL     1      48.006   7.162  14.719  0.00  0.00    +0.000 N 
ATOM      2  H   UNL     1      47.035   7.253  15.011  0.00  0.00    +0.000 HD
ENDROOT
BRANCH   1   3
ATOM      3  C   UNL     1      48.752   6.553  15.742  0.00  0.00    +0.000 A 
ATOM      4  C   UNL     1      48.288   5.453  16.468  0.00  0.00    +0.000 A 
ATOM      5  C   UNL     1      49.076   4.845  17.448  0.00  0.00    +0.000 A 
ATOM      6  C   UNL     1      50.382   5.285  17.694  0.00  0.00    +0.000 A 
ATOM      7  C   UNL     1      50.880   6.345  16.933  0.00  0.00    +0.000 A 
ATOM      8  C   UNL     1      50.077   6.958  15.960  0.00  0.00    +0.000 A 
BRANCH   6   9
ATOM      9  C   UNL     1      51.211   4.626  18.770  0.00  0.00    +0.000 C 
BRANCH   9  10
ATOM     10  N   UNL     1      51.213   3.171  18.604  0.00  0.00    +0.000 NA
ATOM     11  H   UNL     1      50.251   2.870  18.439  0.00  0.00    +0.000 HD
BRANCH  10  12
ATOM     12  C   UNL     1      52.075   2.709  17.516  0.00  0.00    +0.000 C 
ATOM     13  C   UNL     1      53.567   2.998  17.786  0.00  0.00    +0.000 C 
ATOM     14  C   UNL     1      54.289   1.663  17.691  0.00  0.00    +0.000 C 
ATOM     15  C   UNL     1      53.225   0.660  18.102  0.00  0.00    +0.000 C 
ATOM     16  C   UNL     1      51.988   1.179  17.383  0.00  0.00    +0.000 C 
BRANCH  15  17
ATOM     17  O   UNL     1      53.563  -0.656  17.705  0.00  0.00    +0.000 OA
ATOM     18  H   UNL     1      52.746  -1.122  17.462  0.00  0.00    +0.000 HD
ENDBRANCH  15  17
ENDBRANCH  10  12
ENDBRANCH   9  10
ENDBRANCH   6   9
ENDBRANCH   1   3
BRANCH   1  19
ATOM     19  C   UNL     1      48.081   6.600  13.344  0.00  0.00    +0.000 C 
BRANCH  19  20
ATOM     20  C   UNL     1      46.709   6.381  12.718  0.00  0.00    +0.000 A 
ATOM     21  C   UNL     1      45.953   7.393  12.144  0.00  0.00    +0.000 A 
ATOM     22  S   UNL     1      44.471   6.846  11.504  0.00  0.00    +0.000 S 
ATOM     23  C   UNL     1      44.780   5.245  11.993  0.00  0.00    +0.000 A 
ATOM     24  N   UNL     1      43.886   4.253  11.752  0.00  0.00    +0.000 NA
ATOM     25  C   UNL     1      44.253   3.090  12.182  0.00  0.00    +0.000 A 
ATOM     26  N   UNL     1      45.434   2.833  12.835  0.00  0.00    +0.000 N 
ATOM     27  C   UNL     1      46.379   3.798  13.087  0.00  0.00    +0.000 A 
ATOM     28  O   UNL     1      47.443   3.519  13.633  0.00  0.00    +0.000 OA
ATOM     29  C   UNL     1      46.005   5.126  12.629  0.00  0.00    +0.000 A 
ATOM     30  H   UNL     1      45.666   1.899  13.133  0.00  0.00    +0.000 HD
ENDBRANCH  19  20
BRANCH  19  31
ATOM     31  C   UNL     1      48.927   7.563  12.435  0.00  0.00    +0.000 C 
BRANCH  31  32
ATOM     32  N   UNL     1      50.373   7.290  12.405  0.00  0.00    +0.000 NA
ATOM     33  H   UNL     1      50.685   7.298  11.436  0.00  0.00    +0.000 HD
ATOM     34  H   UNL     1      50.842   8.089  12.846  0.00  0.00    +0.000 HD
ENDBRANCH  31  32
ENDBRANCH  19  31
ENDBRANCH   1  19
TORSDOF 9
ENDMDL
MODEL 8
REMARK VINA RESULT:    -6.280      2.373      3.279
REMARK INTER + INTRA:         -10.499
REMARK INTER:                  -9.148
REMARK INTRA:                  -1.351
REMARK UNBOUND:                -1.282
REMARK  Name = 
REMARK  9 active torsions:
REMARK  status: ('A' for Active; 'I' for Inactive)
REMARK    1  A    between atoms: N_1  and  C_2
REMARK    2  A    between atoms: C_2  and  C_3
REMARK    3  A    between atoms: C_3  and  N_4
REMARK    4  A    between atoms: C_3  and  C_19
REMARK    5  A    between atoms: N_4  and  C_5
REMARK    6  A    between atoms: C_8  and  C_9
REMARK    7  A    between atoms: C_9  and  N_10
REMARK    8  A    between atoms: N_10  and  C_11
REMARK    9  A    between atoms: C_14  and  O_15
REMARK                            x       y       z     vdW  Elec       q    Type
REMARK                         _______ _______ _______ _____ _____    ______ ____
ROOT
ATOM      1  N   UNL     1      49.202   6.515  15.131  0.00  0.00    +0.000 N 
ATOM      2  H   UNL     1      49.003   5.734  15.751  0.00  0.00    +0.000 HD
ENDROOT
BRANCH   1   3
ATOM      3  C   UNL     1      48.315   6.491  14.041  0.00  0.00    +0.000 A 
ATOM      4  C   UNL     1      48.493   7.280  12.902  0.00  0.00    +0.000 A 
ATOM      5  C   UNL     1      47.615   7.197  11.817  0.00  0.00    +0.000 A 
ATOM      6  C   UNL     1      46.561   6.276  11.816  0.00  0.00    +0.000 A 
ATOM      7  C   UNL     1      46.409   5.438  12.923  0.00  0.00    +0.000 A 
ATOM      8  C   UNL     1      47.287   5.538  14.013  0.00  0.00    +0.000 A 
BRANCH   6   9
ATOM      9  C   UNL     1      45.614   6.214  10.642  0.00  0.00    +0.000 C 
BRANCH   9  10
ATOM     10  N   UNL     1      44.222   6.259  11.096  0.00  0.00    +0.000 NA
ATOM     11  H   UNL     1      43.817   7.145  10.788  0.00  0.00    +0.000 HD
BRANCH  10  12
ATOM     12  C   UNL     1      43.413   5.142  10.610  0.00  0.00    +0.000 C 
ATOM     13  C   UNL     1      44.211   4.197   9.686  0.00  0.00    +0.000 C 
ATOM     14  C   UNL     1      44.104   2.808  10.296  0.00  0.00    +0.000 C 
ATOM     15  C   UNL     1      43.939   3.088  11.779  0.00  0.00    +0.000 C 
ATOM     16  C   UNL     1      42.966   4.258  11.787  0.00  0.00    +0.000 C 
BRANCH  15  17
ATOM     17  O   UNL     1      43.430   1.963  12.472  0.00  0.00    +0.000 OA
ATOM     18  H   UNL     1      43.721   1.161  12.009  0.00  0.00    +0.000 HD
ENDBRANCH  15  17
ENDBRANCH  10  12
ENDBRANCH   9  10
ENDBRANCH   6   9
ENDBRANCH   1   3
BRANCH   1  19
ATOM     19  C   UNL     1      49.342   7.772  15.913  0.00  0.00    +0.000 C 
BRANCH  19  20
ATOM     20  C   UNL     1      48.841   7.637  17.347  0.00  0.00    +0.000 A 
ATOM     21  C   UNL     1      48.068   8.595  17.986  0.00  0.00    +0.000 A 
ATOM     22  S   UNL     1      47.638   8.160  19.577  0.00  0.00    +0.000 S 
ATOM     23  C   UNL     1      48.488   6.689  19.471  0.00  0.00    +0.000 A 
ATOM     24  N   UNL     1      48.530   5.825  20.517  0.00  0.00    +0.000 NA
ATOM     25  C   UNL     1      49.215   4.752  20.293  0.00  0.00    +0.000 A 
ATOM     26  N   UNL     1      49.864   4.467  19.117  0.00  0.00    +0.000 N 
ATOM     27  C   UNL     1      49.838   5.299  18.024  0.00  0.00    +0.000 A 
ATOM     28  O   UNL     1      50.394   4.988  16.974  0.00  0.00    +0.000 OA
ATOM     29  C   UNL     1      49.086   6.526  18.232  0.00  0.00    +0.000 A 
ATOM     30  H   UNL     1      50.371   3.604  19.003  0.00  0.00    +0.000 HD
ENDBRANCH  19  20
BRANCH  19  31
ATOM     31  C   UNL     1      50.850   8.212  15.923  0.00  0.00    +0.000 C 
BRANCH  31  32
ATOM     32  N   UNL     1      51.807   7.187  15.477  0.00  0.00    +0.000 NA
ATOM     33  H   UNL     1      52.678   7.308  15.991  0.00  0.00    +0.000 HD
ATOM     34  H   UNL     1      51.441   6.277  15.779  0.00  0.00    +0.000 HD
ENDBRANCH  31  32
ENDBRANCH  19  31
ENDBRANCH   1  19
TORSDOF 9
ENDMDL
MODEL 9
REMARK VINA RESULT:    -6.196      5.128      8.525
REMARK INTER + INTRA:         -10.376
REMARK INTER:                  -9.206
REMARK INTRA:                  -1.170
REMARK UNBOUND:                -1.282
REMARK  Name = 
REMARK  9 active torsions:
REMARK  status: ('A' for Active; 'I' for Inactive)
REMARK    1  A    between atoms: N_1  and  C_2
REMARK    2  A    between atoms: C_2  and  C_3
REMARK    3  A    between atoms: C_3  and  N_4
REMARK    4  A    between atoms: C_3  and  C_19
REMARK    5  A    between atoms: N_4  and  C_5
REMARK    6  A    between atoms: C_8  and  C_9
REMARK    7  A    between atoms: C_9  and  N_10
REMARK    8  A    between atoms: N_10  and  C_11
REMARK    9  A    between atoms: C_14  and  O_15
REMARK                            x       y       z     vdW  Elec       q    Type
REMARK                         _______ _______ _______ _____ _____    ______ ____
ROOT
ATOM      1  N   UNL     1      46.681   6.853  12.903  0.00  0.00    +0.000 N 
ATOM      2  H   UNL     1      46.623   6.023  13.488  0.00  0.00    +0.000 HD
ENDROOT
BRANCH   1   3
ATOM      3  C   UNL     1      48.024   7.240  12.761  0.00  0.00    +0.000 A 
ATOM      4  C   UNL     1      48.578   7.619  11.536  0.00  0.00    +0.000 A 
ATOM      5  C   UNL     1      49.907   8.040  11.440  0.00  0.00    +0.000 A 
ATOM      6  C   UNL     1      50.710   8.151  12.582  0.00  0.00    +0.000 A 
ATOM      7  C   UNL     1      50.149   7.833  13.821  0.00  0.00    +0.000 A 
ATOM      8  C   UNL     1      48.819   7.398  13.906  0.00  0.00    +0.000 A 
BRANCH   6   9
ATOM      9  C   UNL     1      52.148   8.591  12.454  0.00  0.00    +0.000 C 
BRANCH   9  10
ATOM     10  N   UNL     1      52.368   9.281  11.181  0.00  0.00    +0.000 NA
ATOM     11  H   UNL     1      52.633  10.247  11.386  0.00  0.00    +0.000 HD
BRANCH  10  12
ATOM     12  C   UNL     1      53.388   8.651  10.344  0.00  0.00    +0.000 C 
ATOM     13  C   UNL     1      53.729   7.219  10.812  0.00  0.00    +0.000 C 
ATOM     14  C   UNL     1      53.499   6.309   9.616  0.00  0.00    +0.000 C 
ATOM     15  C   UNL     1      52.416   7.028   8.831  0.00  0.00    +0.000 C 
ATOM     16  C   UNL     1      52.864   8.481   8.907  0.00  0.00    +0.000 C 
BRANCH  15  17
ATOM     17  O   UNL     1      52.336   6.562   7.497  0.00  0.00    +0.000 OA
ATOM     18  H   UNL     1      53.094   6.916   7.003  0.00  0.00    +0.000 HD
ENDBRANCH  15  17
ENDBRANCH  10  12
ENDBRANCH   9  10
ENDBRANCH   6   9
ENDBRANCH   1   3
BRANCH   1  19
ATOM     19  C   UNL     1      45.850   6.683  11.681  0.00  0.00    +0.000 C 
BRANCH  19  20
ATOM     20  C   UNL     1      45.127   5.341  11.639  0.00  0.00    +0.000 A 
ATOM     21  C   UNL     1      44.460   4.791  12.725  0.00  0.00    +0.000 A 
ATOM     22  S   UNL     1      43.728   3.293  12.375  0.00  0.00    +0.000 S 
ATOM     23  C   UNL     1      44.296   3.319  10.770  0.00  0.00    +0.000 A 
ATOM     24  N   UNL     1      44.022   2.305   9.911  0.00  0.00    +0.000 NA
ATOM     25  C   UNL     1      44.520   2.460   8.729  0.00  0.00    +0.000 A 
ATOM     26  N   UNL     1      45.271   3.538   8.330  0.00  0.00    +0.000 N 
ATOM     27  C   UNL     1      45.561   4.598   9.154  0.00  0.00    +0.000 A 
ATOM     28  O   UNL     1      46.198   5.566   8.747  0.00  0.00    +0.000 OA
ATOM     29  C   UNL     1      45.028   4.464  10.500  0.00  0.00    +0.000 A 
ATOM     30  H   UNL     1      45.620   3.603   7.387  0.00  0.00    +0.000 HD
ENDBRANCH  19  20
BRANCH  19  31
ATOM     31  C   UNL     1      44.800   7.849  11.599  0.00  0.00    +0.000 C 
BRANCH  31  32
ATOM     32  N   UNL     1      43.496   7.480  11.026  0.00  0.00    +0.000 NA
ATOM     33  H   UNL     1      43.089   8.304  10.586  0.00  0.00    +0.000 HD
ATOM     34  H   UNL     1      43.676   6.826  10.255  0.00  0.00    +0.000 HD
ENDBRANCH  31  32
ENDBRANCH  19  31
ENDBRANCH   1  19
TORSDOF 9
ENDMDL
