MODEL 1
REMARK VINA RESULT:    -7.301      0.000      0.000
REMARK INTER + INTRA:         -11.785
REMARK INTER:                 -10.716
REMARK INTRA:                  -1.069
REMARK UNBOUND:                -1.069
REMARK  Name = 
REMARK  9 active torsions:
REMARK  status: ('A' for Active; 'I' for Inactive)
REMARK    1  A    between atoms: C_1  and  O_2
REMARK    2  A    between atoms: O_2  and  C_3
REMARK    3  A    between atoms: C_10  and  C_11
REMARK    4  A    between atoms: N_13  and  C_14
REMARK    5  A    between atoms: C_14  and  C_15
REMARK    6  A    between atoms: C_18  and  O_19
REMARK    7  A    between atoms: O_19  and  C_20
REMARK    8  A    between atoms: C_20  and  C_21
REMARK    9  A    between atoms: C_21  and  N_22
REMARK                            x       y       z     vdW  Elec       q    Type
REMARK                         _______ _______ _______ _____ _____    ______ ____
ROOT
ATOM      1  C   UNL     1      47.805   7.185  13.727  0.00  0.00    +0.000 C 
ATOM      2  O   UNL     1      48.460   7.496  12.737  0.00  0.00    +0.000 OA
ATOM      3  N   UNL     1      46.441   7.289  13.736  0.00  0.00    +0.000 N 
ATOM      4  H   UNL     1      45.917   6.976  14.540  0.00  0.00    +0.000 HD
ENDROOT
BRANCH   1  12
ATOM      5  C   UNL     1      47.270   4.431  15.715  0.00  0.00    +0.000 A 
ATOM      6  N   UNL     1      47.275   3.458  16.647  0.00  0.00    +0.000 NA
ATOM      7  C   UNL     1      48.170   3.542  17.635  0.00  0.00    +0.000 A 
ATOM      8  N   UNL     1      49.083   4.494  17.813  0.00  0.00    +0.000 NA
ATOM      9  C   UNL     1      49.046   5.441  16.858  0.00  0.00    +0.000 A 
ATOM     10  S   UNL     1      50.141   6.737  16.922  0.00  0.00    +0.000 S 
ATOM     11  C   UNL     1      49.495   7.419  15.503  0.00  0.00    +0.000 A 
ATOM     12  C   UNL     1      48.451   6.682  14.952  0.00  0.00    +0.000 A 
ATOM     13  C   UNL     1      48.185   5.499  15.768  0.00  0.00    +0.000 A 
BRANCH   5  15
ATOM     14  C   UNL     1      46.892   3.606  13.551  0.00  0.00    +0.000 C 
ATOM     15  O   UNL     1      46.381   4.326  14.668  0.00  0.00    +0.000 OA
ENDBRANCH   5  15
ENDBRANCH   1  12
BRANCH   3  16
ATOM     16  C   UNL     1      45.685   7.764  12.605  0.00  0.00    +0.000 C 
BRANCH  16  17
ATOM     17  C   UNL     1      45.160   6.617  11.775  0.00  0.00    +0.000 A 
ATOM     18  C   UNL     1      43.935   6.015  12.091  0.00  0.00    +0.000 A 
ATOM     19  C   UNL     1      43.430   4.966  11.314  0.00  0.00    +0.000 A 
ATOM     20  C   UNL     1      44.143   4.494  10.210  0.00  0.00    +0.000 A 
ATOM     21  C   UNL     1      45.393   5.048   9.926  0.00  0.00    +0.000 A 
ATOM     22  C   UNL     1      45.898   6.104  10.700  0.00  0.00    +0.000 A 
BRANCH  20  23
ATOM     23  O   UNL     1      43.729   3.480   9.384  0.00  0.00    +0.000 OA
BRANCH  23  24
ATOM     24  C   UNL     1      44.516   3.306   8.194  0.00  0.00    +0.000 C 
BRANCH  24  25
ATOM     25  C   UNL     1      45.509   2.144   8.396  0.00  0.00    +0.000 C 
BRANCH  25  26
ATOM     26  N   UNL     1      46.879   2.431   7.919  0.00  0.00    +0.000 NA
ATOM     27  C   UNL     1      46.902   3.629   7.059  0.00  0.00    +0.000 C 
ATOM     28  C   UNL     1      46.652   3.107   5.658  0.00  0.00    +0.000 C 
ATOM     29  C   UNL     1      47.443   1.816   5.642  0.00  0.00    +0.000 C 
ATOM     30  C   UNL     1      47.452   1.350   7.094  0.00  0.00    +0.000 C 
ENDBRANCH  25  26
ENDBRANCH  24  25
ENDBRANCH  23  24
ENDBRANCH  20  23
ENDBRANCH  16  17
ENDBRANCH   3  16
TORSDOF 8
ENDMDL
MODEL 2
REMARK VINA RESULT:    -7.044      1.797      2.212
REMARK INTER + INTRA:         -11.408
REMARK INTER:                 -10.287
REMARK INTRA:                  -1.121
REMARK UNBOUND:                -1.069
REMARK  Name = 
REMARK  9 active torsions:
REMARK  status: ('A' for Active; 'I' for Inactive)
REMARK    1  A    between atoms: C_1  and  O_2
REMARK    2  A    between atoms: O_2  and  C_3
REMARK    3  A    between atoms: C_10  and  C_11
REMARK    4  A    between atoms: N_13  and  C_14
REMARK    5  A    between atoms: C_14  and  C_15
REMARK    6  A    between atoms: C_18  and  O_19
REMARK    7  A    between atoms: O_19  and  C_20
REMARK    8  A    between atoms: C_20  and  C_21
REMARK    9  A    between atoms: C_21  and  N_22
REMARK                            x       y       z     vdW  Elec       q    Type
REMARK                         _______ _______ _______ _____ _____    ______ ____
ROOT
ATOM      1  C   UNL     1      49.008   6.994  15.574  0.00  0.00    +0.000 C 
ATOM      2  O   UNL     1      50.109   6.760  15.087  0.00  0.00    +0.000 OA
ATOM      3  N   UNL     1      47.932   7.292  14.783  0.00  0.00    +0.000 N 
ATOM      4  H   UNL     1      47.022   7.427  15.199  0.00  0.00    +0.000 HD
ENDROOT
BRANCH   1  12
ATOM      5  C   UNL     1      48.826   4.448  17.878  0.00  0.00    +0.000 A 
ATOM      6  N   UNL     1      48.709   3.661  18.966  0.00  0.00    +0.000 NA
ATOM      7  C   UNL     1      48.471   4.250  20.141  0.00  0.00    +0.000 A 
ATOM      8  N   UNL     1      48.334   5.552  20.374  0.00  0.00    +0.000 NA
ATOM      9  C   UNL     1      48.463   6.300  19.263  0.00  0.00    +0.000 A 
ATOM     10  S   UNL     1      48.319   7.989  19.369  0.00  0.00    +0.000 S 
ATOM     11  C   UNL     1      48.579   8.167  17.696  0.00  0.00    +0.000 A 
ATOM     12  C   UNL     1      48.785   6.962  17.030  0.00  0.00    +0.000 A 
ATOM     13  C   UNL     1      48.714   5.847  17.973  0.00  0.00    +0.000 A 
BRANCH   5  15
ATOM     14  C   UNL     1      47.997   3.230  16.052  0.00  0.00    +0.000 C 
ATOM     15  O   UNL     1      49.118   3.852  16.671  0.00  0.00    +0.000 OA
ENDBRANCH   5  15
ENDBRANCH   1  12
BRANCH   3  16
ATOM     16  C   UNL     1      48.011   7.355  13.345  0.00  0.00    +0.000 C 
BRANCH  16  17
ATOM     17  C   UNL     1      47.024   6.412  12.700  0.00  0.00    +0.000 A 
ATOM     18  C   UNL     1      46.498   5.333  13.421  0.00  0.00    +0.000 A 
ATOM     19  C   UNL     1      45.566   4.467  12.838  0.00  0.00    +0.000 A 
ATOM     20  C   UNL     1      45.147   4.659  11.520  0.00  0.00    +0.000 A 
ATOM     21  C   UNL     1      45.713   5.696  10.776  0.00  0.00    +0.000 A 
ATOM     22  C   UNL     1      46.643   6.569  11.361  0.00  0.00    +0.000 A 
BRANCH  20  23
ATOM     23  O   UNL     1      44.233   3.873  10.865  0.00  0.00    +0.000 OA
BRANCH  23  24
ATOM     24  C   UNL     1      44.161   4.081   9.444  0.00  0.00    +0.000 C 
BRANCH  24  25
ATOM     25  C   UNL     1      44.631   2.808   8.711  0.00  0.00    +0.000 C 
BRANCH  25  26
ATOM     26  N   UNL     1      46.095   2.728   8.519  0.00  0.00    +0.000 NA
ATOM     27  C   UNL     1      46.565   3.765   7.581  0.00  0.00    +0.000 C 
ATOM     28  C   UNL     1      46.471   3.122   6.212  0.00  0.00    +0.000 C 
ATOM     29  C   UNL     1      46.923   1.702   6.483  0.00  0.00    +0.000 C 
ATOM     30  C   UNL     1      46.542   1.448   7.939  0.00  0.00    +0.000 C 
ENDBRANCH  25  26
ENDBRANCH  24  25
ENDBRANCH  23  24
ENDBRANCH  20  23
ENDBRANCH  16  17
ENDBRANCH   3  16
TORSDOF 8
ENDMDL
MODEL 3
REMARK VINA RESULT:    -6.799      2.332      3.124
REMARK INTER + INTRA:         -11.048
REMARK INTER:                  -9.972
REMARK INTRA:                  -1.076
REMARK UNBOUND:                -1.069
REMARK  Name = 
REMARK  9 active torsions:
REMARK  status: ('A' for Active; 'I' for Inactive)
REMARK    1  A    between atoms: C_1  and  O_2
REMARK    2  A    between atoms: O_2  and  C_3
REMARK    3  A    between atoms: C_10  and  C_11
REMARK    4  A    between atoms: N_13  and  C_14
REMARK    5  A    between atoms: C_14  and  C_15
REMARK    6  A    between atoms: C_18  and  O_19
REMARK    7  A    between atoms: O_19  and  C_20
REMARK    8  A    between atoms: C_20  and  C_21
REMARK    9  A    between atoms: C_21  and  N_22
REMARK                            x       y       z     vdW  Elec       q    Type
REMARK                         _______ _______ _______ _____ _____    ______ ____
ROOT
ATOM      1  C   UNL     1      49.035   6.678  15.531  0.00  0.00    +0.000 C 
ATOM      2  O   UNL     1      50.135   6.856  15.018  0.00  0.00    +0.000 OA
ATOM      3  N   UNL     1      47.887   6.751  14.791  0.00  0.00    +0.000 N 
ATOM      4  H   UNL     1      46.997   6.547  15.221  0.00  0.00    +0.000 HD
ENDROOT
BRANCH   1  12
ATOM      5  C   UNL     1      47.904   8.486  18.229  0.00  0.00    +0.000 A 
ATOM      6  N   UNL     1      47.523   8.958  19.432  0.00  0.00    +0.000 NA
ATOM      7  C   UNL     1      47.646   8.151  20.489  0.00  0.00    +0.000 A 
ATOM      8  N   UNL     1      48.110   6.904  20.498  0.00  0.00    +0.000 NA
ATOM      9  C   UNL     1      48.474   6.471  19.278  0.00  0.00    +0.000 A 
ATOM     10  S   UNL     1      49.089   4.899  19.095  0.00  0.00    +0.000 S 
ATOM     11  C   UNL     1      49.291   5.118  17.419  0.00  0.00    +0.000 A 
ATOM     12  C   UNL     1      48.894   6.372  16.966  0.00  0.00    +0.000 A 
ATOM     13  C   UNL     1      48.406   7.180  18.083  0.00  0.00    +0.000 A 
BRANCH   5  15
ATOM     14  C   UNL     1      48.871  10.098  16.826  0.00  0.00    +0.000 C 
ATOM     15  O   UNL     1      47.735   9.295  17.128  0.00  0.00    +0.000 OA
ENDBRANCH   5  15
ENDBRANCH   1  12
BRANCH   3  16
ATOM     16  C   UNL     1      47.884   7.041  13.380  0.00  0.00    +0.000 C 
BRANCH  16  17
ATOM     17  C   UNL     1      46.900   6.164  12.642  0.00  0.00    +0.000 A 
ATOM     18  C   UNL     1      46.391   5.007  13.244  0.00  0.00    +0.000 A 
ATOM     19  C   UNL     1      45.462   4.201  12.577  0.00  0.00    +0.000 A 
ATOM     20  C   UNL     1      45.029   4.532  11.292  0.00  0.00    +0.000 A 
ATOM     21  C   UNL     1      45.577   5.651  10.662  0.00  0.00    +0.000 A 
ATOM     22  C   UNL     1      46.504   6.464  11.332  0.00  0.00    +0.000 A 
BRANCH  20  23
ATOM     23  O   UNL     1      44.117   3.813  10.561  0.00  0.00    +0.000 OA
BRANCH  23  24
ATOM     24  C   UNL     1      44.332   3.826   9.140  0.00  0.00    +0.000 C 
BRANCH  24  25
ATOM     25  C   UNL     1      44.921   2.472   8.695  0.00  0.00    +0.000 C 
BRANCH  25  26
ATOM     26  N   UNL     1      46.365   2.517   8.379  0.00  0.00    +0.000 NA
ATOM     27  C   UNL     1      46.686   3.676   7.525  0.00  0.00    +0.000 C 
ATOM     28  C   UNL     1      46.515   3.172   6.106  0.00  0.00    +0.000 C 
ATOM     29  C   UNL     1      47.077   1.767   6.186  0.00  0.00    +0.000 C 
ATOM     30  C   UNL     1      46.840   1.338   7.631  0.00  0.00    +0.000 C 
ENDBRANCH  25  26
ENDBRANCH  24  25
ENDBRANCH  23  24
ENDBRANCH  20  23
ENDBRANCH  16  17
ENDBRANCH   3  16
TORSDOF 8
ENDMDL
MODEL 4
REMARK VINA RESULT:    -6.649      2.103      3.537
REMARK INTER + INTRA:         -10.828
REMARK INTER:                  -9.631
REMARK INTRA:                  -1.197
REMARK UNBOUND:                -1.069
REMARK  Name = 
REMARK  9 active torsions:
REMARK  status: ('A' for Active; 'I' for Inactive)
REMARK    1  A    between atoms: C_1  and  O_2
REMARK    2  A    between atoms: O_2  and  C_3
REMARK    3  A    between atoms: C_10  and  C_11
REMARK    4  A    between atoms: N_13  and  C_14
REMARK    5  A    between atoms: C_14  and  C_15
REMARK    6  A    between atoms: C_18  and  O_19
REMARK    7  A    between atoms: O_19  and  C_20
REMARK    8  A    between atoms: C_20  and  C_21
REMARK    9  A    between atoms: C_21  and  N_22
REMARK                            x       y       z     vdW  Elec       q    Type
REMARK                         _______ _______ _______ _____ _____    ______ ____
ROOT
ATOM      1  C   UNL     1      48.538   5.286  16.577  0.00  0.00    +0.000 C 
ATOM      2  O   UNL     1      49.319   4.356  16.748  0.00  0.00    +0.000 OA
ATOM      3  N   UNL     1      47.458   5.163  15.747  0.00  0.00    +0.000 N 
ATOM      4  H   UNL     1      46.797   5.921  15.663  0.00  0.00    +0.000 HD
ENDROOT
BRANCH   1  12
ATOM      5  C   UNL     1      48.693   8.537  15.465  0.00  0.00    +0.000 A 
ATOM      6  N   UNL     1      48.791   9.871  15.304  0.00  0.00    +0.000 NA
ATOM      7  C   UNL     1      48.985  10.620  16.393  0.00  0.00    +0.000 A 
ATOM      8  N   UNL     1      49.096  10.197  17.649  0.00  0.00    +0.000 NA
ATOM      9  C   UNL     1      48.987   8.861  17.765  0.00  0.00    +0.000 A 
ATOM     10  S   UNL     1      49.102   8.141  19.298  0.00  0.00    +0.000 S 
ATOM     11  C   UNL     1      48.888   6.586  18.640  0.00  0.00    +0.000 A 
ATOM     12  C   UNL     1      48.720   6.581  17.258  0.00  0.00    +0.000 A 
ATOM     13  C   UNL     1      48.781   7.946  16.739  0.00  0.00    +0.000 A 
BRANCH   5  15
ATOM     14  C   UNL     1      49.617   7.409  13.626  0.00  0.00    +0.000 C 
ATOM     15  O   UNL     1      48.445   7.763  14.353  0.00  0.00    +0.000 OA
ENDBRANCH   5  15
ENDBRANCH   1  12
BRANCH   3  16
ATOM     16  C   UNL     1      47.163   3.953  15.022  0.00  0.00    +0.000 C 
BRANCH  16  17
ATOM     17  C   UNL     1      46.481   4.253  13.708  0.00  0.00    +0.000 A 
ATOM     18  C   UNL     1      46.383   5.571  13.245  0.00  0.00    +0.000 A 
ATOM     19  C   UNL     1      45.773   5.855  12.018  0.00  0.00    +0.000 A 
ATOM     20  C   UNL     1      45.242   4.829  11.234  0.00  0.00    +0.000 A 
ATOM     21  C   UNL     1      45.283   3.520  11.719  0.00  0.00    +0.000 A 
ATOM     22  C   UNL     1      45.900   3.232  12.945  0.00  0.00    +0.000 A 
BRANCH  20  23
ATOM     23  O   UNL     1      44.635   5.005  10.017  0.00  0.00    +0.000 OA
BRANCH  23  24
ATOM     24  C   UNL     1      44.093   3.810   9.430  0.00  0.00    +0.000 C 
BRANCH  24  25
ATOM     25  C   UNL     1      44.760   3.558   8.062  0.00  0.00    +0.000 C 
BRANCH  25  26
ATOM     26  N   UNL     1      46.183   3.166   8.149  0.00  0.00    +0.000 NA
ATOM     27  C   UNL     1      46.964   3.751   7.043  0.00  0.00    +0.000 C 
ATOM     28  C   UNL     1      46.876   2.731   5.924  0.00  0.00    +0.000 C 
ATOM     29  C   UNL     1      46.975   1.416   6.669  0.00  0.00    +0.000 C 
ATOM     30  C   UNL     1      46.398   1.710   8.050  0.00  0.00    +0.000 C 
ENDBRANCH  25  26
ENDBRANCH  24  25
ENDBRANCH  23  24
ENDBRANCH  20  23
ENDBRANCH  16  17
ENDBRANCH   3  16
TORSDOF 8
ENDMDL
MODEL 5
REMARK VINA RESULT:    -6.604      2.964      4.387
REMARK INTER + INTRA:         -10.761
REMARK INTER:                  -9.651
REMARK INTRA:                  -1.110
REMARK UNBOUND:                -1.069
REMARK  Name = 
REMARK  9 active torsions:
REMARK  status: ('A' for Active; 'I' for Inactive)
REMARK    1  A    between atoms: C_1  and  O_2
REMARK    2  A    between atoms: O_2  and  C_3
REMARK    3  A    between atoms: C_10  and  C_11
REMARK    4  A    between atoms: N_13  and  C_14
REMARK    5  A    between atoms: C_14  and  C_15
REMARK    6  A    between atoms: C_18  and  O_19
REMARK    7  A    between atoms: O_19  and  C_20
REMARK    8  A    between atoms: C_20  and  C_21
REMARK    9  A    between atoms: C_21  and  N_22
REMARK                            x       y       z     vdW  Elec       q    Type
REMARK                         _______ _______ _______ _____ _____    ______ ____
ROOT
ATOM      1  C   UNL     1      50.650   6.018  17.826  0.00  0.00    +0.000 C 
ATOM      2  O   UNL     1      50.285   6.799  18.699  0.00  0.00    +0.000 OA
ATOM      3  N   UNL     1      50.179   6.116  16.545  0.00  0.00    +0.000 N 
ATOM      4  H   UNL     1      50.534   5.499  15.829  0.00  0.00    +0.000 HD
ENDROOT
BRANCH   1  12
ATOM      5  C   UNL     1      50.614   2.620  17.292  0.00  0.00    +0.000 A 
ATOM      6  N   UNL     1      50.855   1.298  17.206  0.00  0.00    +0.000 NA
ATOM      7  C   UNL     1      52.013   0.841  17.690  0.00  0.00    +0.000 A 
ATOM      8  N   UNL     1      52.982   1.552  18.261  0.00  0.00    +0.000 NA
ATOM      9  C   UNL     1      52.702   2.866  18.322  0.00  0.00    +0.000 A 
ATOM     10  S   UNL     1      53.826   3.930  19.019  0.00  0.00    +0.000 S 
ATOM     11  C   UNL     1      52.811   5.268  18.737  0.00  0.00    +0.000 A 
ATOM     12  C   UNL     1      51.614   4.939  18.109  0.00  0.00    +0.000 A 
ATOM     13  C   UNL     1      51.552   3.499  17.863  0.00  0.00    +0.000 A 
BRANCH   5  15
ATOM     14  C   UNL     1      48.332   3.044  17.640  0.00  0.00    +0.000 C 
ATOM     15  O   UNL     1      49.443   3.106  16.752  0.00  0.00    +0.000 OA
ENDBRANCH   5  15
ENDBRANCH   1  12
BRANCH   3  16
ATOM     16  C   UNL     1      49.236   7.124  16.134  0.00  0.00    +0.000 C 
BRANCH  16  17
ATOM     17  C   UNL     1      48.436   6.670  14.936  0.00  0.00    +0.000 A 
ATOM     18  C   UNL     1      47.589   5.558  15.028  0.00  0.00    +0.000 A 
ATOM     19  C   UNL     1      46.828   5.144  13.929  0.00  0.00    +0.000 A 
ATOM     20  C   UNL     1      46.902   5.829  12.716  0.00  0.00    +0.000 A 
ATOM     21  C   UNL     1      47.789   6.901  12.599  0.00  0.00    +0.000 A 
ATOM     22  C   UNL     1      48.549   7.322  13.701  0.00  0.00    +0.000 A 
BRANCH  20  23
ATOM     23  O   UNL     1      46.190   5.508  11.588  0.00  0.00    +0.000 OA
BRANCH  23  24
ATOM     24  C   UNL     1      44.992   4.748  11.821  0.00  0.00    +0.000 C 
BRANCH  24  25
ATOM     25  C   UNL     1      45.108   3.375  11.128  0.00  0.00    +0.000 C 
BRANCH  25  26
ATOM     26  N   UNL     1      44.385   3.287   9.841  0.00  0.00    +0.000 NA
ATOM     27  C   UNL     1      44.550   1.955   9.229  0.00  0.00    +0.000 C 
ATOM     28  C   UNL     1      45.801   2.071   8.380  0.00  0.00    +0.000 C 
ATOM     29  C   UNL     1      45.675   3.462   7.795  0.00  0.00    +0.000 C 
ATOM     30  C   UNL     1      44.869   4.244   8.829  0.00  0.00    +0.000 C 
ENDBRANCH  25  26
ENDBRANCH  24  25
ENDBRANCH  23  24
ENDBRANCH  20  23
ENDBRANCH  16  17
ENDBRANCH   3  16
TORSDOF 8
ENDMDL
MODEL 6
REMARK VINA RESULT:    -6.248      3.554      6.365
REMARK INTER + INTRA:         -10.239
REMARK INTER:                  -9.074
REMARK INTRA:                  -1.165
REMARK UNBOUND:                -1.069
REMARK  Name = 
REMARK  9 active torsions:
REMARK  status: ('A' for Active; 'I' for Inactive)
REMARK    1  A    between atoms: C_1  and  O_2
REMARK    2  A    between atoms: O_2  and  C_3
REMARK    3  A    between atoms: C_10  and  C_11
REMARK    4  A    between atoms: N_13  and  C_14
REMARK    5  A    between atoms: C_14  and  C_15
REMARK    6  A    between atoms: C_18  and  O_19
REMARK    7  A    between atoms: O_19  and  C_20
REMARK    8  A    between atoms: C_20  and  C_21
REMARK    9  A    between atoms: C_21  and  N_22
REMARK                            x       y       z     vdW  Elec       q    Type
REMARK                         _______ _______ _______ _____ _____    ______ ____
ROOT
ATOM      1  C   UNL     1      50.238   2.263  17.180  0.00  0.00    +0.000 C 
ATOM      2  O   UNL     1      49.725   1.673  16.234  0.00  0.00    +0.000 OA
ATOM      3  N   UNL     1      49.508   3.109  17.969  0.00  0.00    +0.000 N 
ATOM      4  H   UNL     1      49.936   3.541  18.775  0.00  0.00    +0.000 HD
ENDROOT
BRANCH   1  12
ATOM      5  C   UNL     1      52.824   4.467  17.715  0.00  0.00    +0.000 A 
ATOM      6  N   UNL     1      53.990   5.094  17.965  0.00  0.00    +0.000 NA
ATOM      7  C   UNL     1      55.063   4.341  18.221  0.00  0.00    +0.000 A 
ATOM      8  N   UNL     1      55.121   3.012  18.263  0.00  0.00    +0.000 NA
ATOM      9  C   UNL     1      53.936   2.427  18.013  0.00  0.00    +0.000 A 
ATOM     10  S   UNL     1      53.818   0.734  18.025  0.00  0.00    +0.000 S 
ATOM     11  C   UNL     1      52.159   0.795  17.651  0.00  0.00    +0.000 A 
ATOM     12  C   UNL     1      51.662   2.088  17.517  0.00  0.00    +0.000 A 
ATOM     13  C   UNL     1      52.731   3.063  17.734  0.00  0.00    +0.000 A 
BRANCH   5  15
ATOM     14  C   UNL     1      51.930   6.350  16.639  0.00  0.00    +0.000 C 
ATOM     15  O   UNL     1      51.704   5.236  17.496  0.00  0.00    +0.000 OA
ENDBRANCH   5  15
ENDBRANCH   1  12
BRANCH   3  16
ATOM     16  C   UNL     1      48.108   3.368  17.752  0.00  0.00    +0.000 C 
BRANCH  16  17
ATOM     17  C   UNL     1      47.892   4.218  16.522  0.00  0.00    +0.000 A 
ATOM     18  C   UNL     1      48.453   5.499  16.437  0.00  0.00    +0.000 A 
ATOM     19  C   UNL     1      48.276   6.284  15.292  0.00  0.00    +0.000 A 
ATOM     20  C   UNL     1      47.531   5.807  14.213  0.00  0.00    +0.000 A 
ATOM     21  C   UNL     1      46.919   4.557  14.315  0.00  0.00    +0.000 A 
ATOM     22  C   UNL     1      47.099   3.765  15.459  0.00  0.00    +0.000 A 
BRANCH  20  23
ATOM     23  O   UNL     1      47.309   6.496  13.047  0.00  0.00    +0.000 OA
BRANCH  23  24
ATOM     24  C   UNL     1      45.936   6.835  12.793  0.00  0.00    +0.000 C 
BRANCH  24  25
ATOM     25  C   UNL     1      45.441   6.081  11.542  0.00  0.00    +0.000 C 
BRANCH  25  26
ATOM     26  N   UNL     1      43.985   5.823  11.530  0.00  0.00    +0.000 NA
ATOM     27  C   UNL     1      43.512   5.379  12.855  0.00  0.00    +0.000 C 
ATOM     28  C   UNL     1      43.657   3.871  12.833  0.00  0.00    +0.000 C 
ATOM     29  C   UNL     1      43.235   3.519  11.422  0.00  0.00    +0.000 C 
ATOM     30  C   UNL     1      43.585   4.754  10.596  0.00  0.00    +0.000 C 
ENDBRANCH  25  26
ENDBRANCH  24  25
ENDBRANCH  23  24
ENDBRANCH  20  23
ENDBRANCH  16  17
ENDBRANCH   3  16
TORSDOF 8
ENDMDL
MODEL 7
REMARK VINA RESULT:    -6.105      2.224      3.321
REMARK INTER + INTRA:         -10.029
REMARK INTER:                  -8.945
REMARK INTRA:                  -1.084
REMARK UNBOUND:                -1.069
REMARK  Name = 
REMARK  9 active torsions:
REMARK  status: ('A' for Active; 'I' for Inactive)
REMARK    1  A    between atoms: C_1  and  O_2
REMARK    2  A    between atoms: O_2  and  C_3
REMARK    3  A    between atoms: C_10  and  C_11
REMARK    4  A    between atoms: N_13  and  C_14
REMARK    5  A    between atoms: C_14  and  C_15
REMARK    6  A    between atoms: C_18  and  O_19
REMARK    7  A    between atoms: O_19  and  C_20
REMARK    8  A    between atoms: C_20  and  C_21
REMARK    9  A    between atoms: C_21  and  N_22
REMARK                            x       y       z     vdW  Elec       q    Type
REMARK                         _______ _______ _______ _____ _____    ______ ____
ROOT
ATOM      1  C   UNL     1      49.936   7.712  15.208  0.00  0.00    +0.000 C 
ATOM      2  O   UNL     1      49.335   8.720  15.564  0.00  0.00    +0.000 OA
ATOM      3  N   UNL     1      49.637   7.086  14.029  0.00  0.00    +0.000 N 
ATOM      4  H   UNL     1      50.181   6.290  13.728  0.00  0.00    +0.000 HD
ENDROOT
BRANCH   1  12
ATOM      5  C   UNL     1      50.180   4.835  17.077  0.00  0.00    +0.000 A 
ATOM      6  N   UNL     1      50.538   3.802  17.866  0.00  0.00    +0.000 NA
ATOM      7  C   UNL     1      51.762   3.817  18.399  0.00  0.00    +0.000 A 
ATOM      8  N   UNL     1      52.696   4.751  18.240  0.00  0.00    +0.000 NA
ATOM      9  C   UNL     1      52.300   5.759  17.442  0.00  0.00    +0.000 A 
ATOM     10  S   UNL     1      53.364   7.043  17.124  0.00  0.00    +0.000 S 
ATOM     11  C   UNL     1      52.214   7.820  16.139  0.00  0.00    +0.000 A 
ATOM     12  C   UNL     1      51.013   7.126  16.027  0.00  0.00    +0.000 A 
ATOM     13  C   UNL     1      51.069   5.892  16.810  0.00  0.00    +0.000 A 
BRANCH   5  15
ATOM     14  C   UNL     1      47.858   4.846  17.414  0.00  0.00    +0.000 C 
ATOM     15  O   UNL     1      48.937   4.803  16.486  0.00  0.00    +0.000 OA
ENDBRANCH   5  15
ENDBRANCH   1  12
BRANCH   3  16
ATOM     16  C   UNL     1      48.609   7.554  13.134  0.00  0.00    +0.000 C 
BRANCH  16  17
ATOM     17  C   UNL     1      47.399   6.651  13.169  0.00  0.00    +0.000 A 
ATOM     18  C   UNL     1      46.123   7.164  12.900  0.00  0.00    +0.000 A 
ATOM     19  C   UNL     1      44.999   6.330  12.909  0.00  0.00    +0.000 A 
ATOM     20  C   UNL     1      45.128   4.969  13.192  0.00  0.00    +0.000 A 
ATOM     21  C   UNL     1      46.387   4.463  13.520  0.00  0.00    +0.000 A 
ATOM     22  C   UNL     1      47.516   5.297  13.506  0.00  0.00    +0.000 A 
BRANCH  20  23
ATOM     23  O   UNL     1      44.091   4.071  13.215  0.00  0.00    +0.000 OA
BRANCH  23  24
ATOM     24  C   UNL     1      43.269   4.061  12.036  0.00  0.00    +0.000 C 
BRANCH  24  25
ATOM     25  C   UNL     1      43.658   2.865  11.144  0.00  0.00    +0.000 C 
BRANCH  25  26
ATOM     26  N   UNL     1      44.949   3.031  10.443  0.00  0.00    +0.000 NA
ATOM     27  C   UNL     1      45.057   4.371   9.837  0.00  0.00    +0.000 C 
ATOM     28  C   UNL     1      44.460   4.220   8.452  0.00  0.00    +0.000 C 
ATOM     29  C   UNL     1      44.963   2.857   8.024  0.00  0.00    +0.000 C 
ATOM     30  C   UNL     1      45.138   2.083   9.328  0.00  0.00    +0.000 C 
ENDBRANCH  25  26
ENDBRANCH  24  25
ENDBRANCH  23  24
ENDBRANCH  20  23
ENDBRANCH  16  17
ENDBRANCH   3  16
TORSDOF 8
ENDMDL
MODEL 8
REMARK VINA RESULT:    -6.046      2.200      3.401
REMARK INTER + INTRA:          -9.943
REMARK INTER:                  -9.210
REMARK INTRA:                  -0.734
REMARK UNBOUND:                -1.069
REMARK  Name = 
REMARK  9 active torsions:
REMARK  status: ('A' for Active; 'I' for Inactive)
REMARK    1  A    between atoms: C_1  and  O_2
REMARK    2  A    between atoms: O_2  and  C_3
REMARK    3  A    between atoms: C_10  and  C_11
REMARK    4  A    between atoms: N_13  and  C_14
REMARK    5  A    between atoms: C_14  and  C_15
REMARK    6  A    between atoms: C_18  and  O_19
REMARK    7  A    between atoms: O_19  and  C_20
REMARK    8  A    between atoms: C_20  and  C_21
REMARK    9  A    between atoms: C_21  and  N_22
REMARK                            x       y       z     vdW  Elec       q    Type
REMARK                         _______ _______ _______ _____ _____    ______ ____
ROOT
ATOM      1  C   UNL     1      47.971   8.297  14.077  0.00  0.00    +0.000 C 
ATOM      2  O   UNL     1      47.912   9.467  13.712  0.00  0.00    +0.000 OA
ATOM      3  N   UNL     1      46.978   7.407  13.771  0.00  0.00    +0.000 N 
ATOM      4  H   UNL     1      47.072   6.437  14.033  0.00  0.00    +0.000 HD
ENDROOT
BRANCH   1  12
ATOM      5  C   UNL     1      51.381   8.530  13.694  0.00  0.00    +0.000 A 
ATOM      6  N   UNL     1      52.724   8.466  13.781  0.00  0.00    +0.000 NA
ATOM      7  C   UNL     1      53.253   7.787  14.803  0.00  0.00    +0.000 A 
ATOM      8  N   UNL     1      52.596   7.152  15.771  0.00  0.00    +0.000 NA
ATOM      9  C   UNL     1      51.260   7.246  15.648  0.00  0.00    +0.000 A 
ATOM     10  S   UNL     1      50.259   6.496  16.795  0.00  0.00    +0.000 S 
ATOM     11  C   UNL     1      48.855   7.033  15.996  0.00  0.00    +0.000 A 
ATOM     12  C   UNL     1      49.114   7.790  14.858  0.00  0.00    +0.000 A 
ATOM     13  C   UNL     1      50.556   7.914  14.652  0.00  0.00    +0.000 A 
BRANCH   5  15
ATOM     14  C   UNL     1      51.242  10.631  12.657  0.00  0.00    +0.000 C 
ATOM     15  O   UNL     1      50.829   9.268  12.671  0.00  0.00    +0.000 OA
ENDBRANCH   5  15
ENDBRANCH   1  12
BRANCH   3  16
ATOM     16  C   UNL     1      45.808   7.771  13.013  0.00  0.00    +0.000 C 
BRANCH  16  17
ATOM     17  C   UNL     1      45.239   6.581  12.277  0.00  0.00    +0.000 A 
ATOM     18  C   UNL     1      44.407   5.669  12.939  0.00  0.00    +0.000 A 
ATOM     19  C   UNL     1      43.858   4.576  12.258  0.00  0.00    +0.000 A 
ATOM     20  C   UNL     1      44.136   4.370  10.906  0.00  0.00    +0.000 A 
ATOM     21  C   UNL     1      45.012   5.240  10.256  0.00  0.00    +0.000 A 
ATOM     22  C   UNL     1      45.559   6.341  10.935  0.00  0.00    +0.000 A 
BRANCH  20  23
ATOM     23  O   UNL     1      43.640   3.336  10.152  0.00  0.00    +0.000 OA
BRANCH  23  24
ATOM     24  C   UNL     1      44.544   2.236   9.960  0.00  0.00    +0.000 C 
BRANCH  24  25
ATOM     25  C   UNL     1      44.951   2.155   8.475  0.00  0.00    +0.000 C 
BRANCH  25  26
ATOM     26  N   UNL     1      46.387   2.409   8.229  0.00  0.00    +0.000 NA
ATOM     27  C   UNL     1      46.579   3.618   7.406  0.00  0.00    +0.000 C 
ATOM     28  C   UNL     1      46.545   3.122   5.973  0.00  0.00    +0.000 C 
ATOM     29  C   UNL     1      47.295   1.810   6.062  0.00  0.00    +0.000 C 
ATOM     30  C   UNL     1      47.057   1.323   7.488  0.00  0.00    +0.000 C 
ENDBRANCH  25  26
ENDBRANCH  24  25
ENDBRANCH  23  24
ENDBRANCH  20  23
ENDBRANCH  16  17
ENDBRANCH   3  16
TORSDOF 8
ENDMDL
MODEL 9
REMARK VINA RESULT:    -5.773      2.669      8.091
REMARK INTER + INTRA:          -9.542
REMARK INTER:                  -8.440
REMARK INTRA:                  -1.102
REMARK UNBOUND:                -1.069
REMARK  Name = 
REMARK  9 active torsions:
REMARK  status: ('A' for Active; 'I' for Inactive)
REMARK    1  A    between atoms: C_1  and  O_2
REMARK    2  A    between atoms: O_2  and  C_3
REMARK    3  A    between atoms: C_10  and  C_11
REMARK    4  A    between atoms: N_13  and  C_14
REMARK    5  A    between atoms: C_14  and  C_15
REMARK    6  A    between atoms: C_18  and  O_19
REMARK    7  A    between atoms: O_19  and  C_20
REMARK    8  A    between atoms: C_20  and  C_21
REMARK    9  A    between atoms: C_21  and  N_22
REMARK                            x       y       z     vdW  Elec       q    Type
REMARK                         _______ _______ _______ _____ _____    ______ ____
ROOT
ATOM      1  C   UNL     1      45.510   6.704  11.570  0.00  0.00    +0.000 C 
ATOM      2  O   UNL     1      44.889   7.731  11.313  0.00  0.00    +0.000 OA
ATOM      3  N   UNL     1      46.848   6.737  11.855  0.00  0.00    +0.000 N 
ATOM      4  H   UNL     1      47.328   5.889  12.118  0.00  0.00    +0.000 HD
ENDROOT
BRANCH   1  12
ATOM      5  C   UNL     1      45.246   4.163   9.267  0.00  0.00    +0.000 A 
ATOM      6  N   UNL     1      44.989   3.040   8.568  0.00  0.00    +0.000 NA
ATOM      7  C   UNL     1      44.249   2.094   9.153  0.00  0.00    +0.000 A 
ATOM      8  N   UNL     1      43.724   2.127  10.374  0.00  0.00    +0.000 NA
ATOM      9  C   UNL     1      44.008   3.261  11.038  0.00  0.00    +0.000 A 
ATOM     10  S   UNL     1      43.420   3.479  12.616  0.00  0.00    +0.000 S 
ATOM     11  C   UNL     1      44.147   5.013  12.730  0.00  0.00    +0.000 A 
ATOM     12  C   UNL     1      44.849   5.387  11.589  0.00  0.00    +0.000 A 
ATOM     13  C   UNL     1      44.763   4.335  10.577  0.00  0.00    +0.000 A 
BRANCH   5  15
ATOM     14  C   UNL     1      46.826   4.640   7.599  0.00  0.00    +0.000 C 
ATOM     15  O   UNL     1      46.047   5.122   8.689  0.00  0.00    +0.000 OA
ENDBRANCH   5  15
ENDBRANCH   1  12
BRANCH   3  16
ATOM     16  C   UNL     1      47.614   7.958  11.872  0.00  0.00    +0.000 C 
BRANCH  16  17
ATOM     17  C   UNL     1      48.402   8.092  13.153  0.00  0.00    +0.000 A 
ATOM     18  C   UNL     1      47.814   8.654  14.293  0.00  0.00    +0.000 A 
ATOM     19  C   UNL     1      48.531   8.762  15.491  0.00  0.00    +0.000 A 
ATOM     20  C   UNL     1      49.851   8.317  15.570  0.00  0.00    +0.000 A 
ATOM     21  C   UNL     1      50.463   7.812  14.421  0.00  0.00    +0.000 A 
ATOM     22  C   UNL     1      49.745   7.697  13.221  0.00  0.00    +0.000 A 
BRANCH  20  23
ATOM     23  O   UNL     1      50.631   8.370  16.697  0.00  0.00    +0.000 OA
BRANCH  23  24
ATOM     24  C   UNL     1      51.122   7.100  17.157  0.00  0.00    +0.000 C 
BRANCH  24  25
ATOM     25  C   UNL     1      49.954   6.270  17.726  0.00  0.00    +0.000 C 
BRANCH  25  26
ATOM     26  N   UNL     1      49.628   5.065  16.933  0.00  0.00    +0.000 NA
ATOM     27  C   UNL     1      48.237   5.110  16.444  0.00  0.00    +0.000 C 
ATOM     28  C   UNL     1      47.418   4.461  17.542  0.00  0.00    +0.000 C 
ATOM     29  C   UNL     1      48.313   3.325  17.992  0.00  0.00    +0.000 C 
ATOM     30  C   UNL     1      49.730   3.811  17.702  0.00  0.00    +0.000 C 
ENDBRANCH  25  26
ENDBRANCH  24  25
ENDBRANCH  23  24
ENDBRANCH  20  23
ENDBRANCH  16  17
ENDBRANCH   3  16
TORSDOF 8
ENDMDL
