MODEL 1
REMARK VINA RESULT:    -8.892      0.000      0.000
REMARK INTER + INTRA:         -13.662
REMARK INTER:                 -12.530
REMARK INTRA:                  -1.132
REMARK UNBOUND:                -1.132
REMARK  Name = 
REMARK  7 active torsions:
REMARK  status: ('A' for Active; 'I' for Inactive)
REMARK    1  A    between atoms: C_2  and  C_20
REMARK    2  A    between atoms: N_3  and  C_4
REMARK    3  A    between atoms: C_4  and  C_5
REMARK    4  A    between atoms: C_8  and  C_9
REMARK    5  A    between atoms: C_9  and  N_10
REMARK    6  A    between atoms: N_10  and  C_11
REMARK    7  A    between atoms: C_11  and  C_12
REMARK                            x       y       z     vdW  Elec       q    Type
REMARK                         _______ _______ _______ _____ _____    ______ ____
ROOT
ATOM      1  C   UNL     1      46.621   7.908  12.688  0.00  0.00    +0.000 C 
ENDROOT
BRANCH   1   2
ATOM      2  C   UNL     1      45.603   6.936  12.086  0.00  0.00    +0.000 C 
ATOM      3  C   UNL     1      45.143   5.887  13.112  0.00  0.00    +0.000 C 
ATOM      4  C   UNL     1      44.160   4.894  12.498  0.00  0.00    +0.000 C 
ATOM      5  C   UNL     1      44.747   4.209  11.257  0.00  0.00    +0.000 C 
ATOM      6  C   UNL     1      45.230   5.257  10.238  0.00  0.00    +0.000 C 
ATOM      7  C   UNL     1      46.206   6.249  10.857  0.00  0.00    +0.000 C 
BRANCH   5   8
ATOM      8  C   UNL     1      43.711   3.253  10.636  0.00  0.00    +0.000 C 
BRANCH   8   9
ATOM      9  N   UNL     1      44.099   2.932   9.266  0.00  0.00    +0.000 NA
ATOM     10  H   UNL     1      44.471   3.762   8.803  0.00  0.00    +0.000 HD
BRANCH   9  11
ATOM     11  C   UNL     1      45.072   1.851   9.195  0.00  0.00    +0.000 C 
BRANCH  11  12
ATOM     12  C   UNL     1      45.985   2.053   8.018  0.00  0.00    +0.000 A 
ATOM     13  C   UNL     1      45.977   3.246   7.285  0.00  0.00    +0.000 A 
ATOM     14  C   UNL     1      46.859   3.408   6.221  0.00  0.00    +0.000 A 
ATOM     15  C   UNL     1      47.722   2.367   5.921  0.00  0.00    +0.000 A 
ATOM     16  N   UNL     1      47.753   1.197   6.595  0.00  0.00    +0.000 NA
ATOM     17  C   UNL     1      46.886   1.069   7.624  0.00  0.00    +0.000 A 
ENDBRANCH  11  12
ENDBRANCH   9  11
ENDBRANCH   8   9
ENDBRANCH   5   8
ENDBRANCH   1   2
BRANCH   1  20
ATOM     18  O   UNL     1      48.897   6.297  13.228  0.00  0.00    +0.000 OA
ATOM     19  C   UNL     1      48.183   6.662  14.156  0.00  0.00    +0.000 C 
ATOM     20  N   UNL     1      47.088   7.464  13.978  0.00  0.00    +0.000 N 
ATOM     21  H   UNL     1      46.509   7.707  14.773  0.00  0.00    +0.000 HD
BRANCH  19  22
ATOM     22  C   UNL     1      48.480   6.302  15.547  0.00  0.00    +0.000 A 
ATOM     23  C   UNL     1      49.157   7.190  16.367  0.00  0.00    +0.000 A 
ATOM     24  S   UNL     1      49.403   6.601  17.949  0.00  0.00    +0.000 S 
ATOM     25  C   UNL     1      48.633   5.126  17.583  0.00  0.00    +0.000 A 
ATOM     26  N   UNL     1      48.511   4.148  18.517  0.00  0.00    +0.000 NA
ATOM     27  C   UNL     1      47.926   3.078  18.098  0.00  0.00    +0.000 A 
ATOM     28  N   UNL     1      47.451   2.894  16.826  0.00  0.00    +0.000 N 
ATOM     29  C   UNL     1      47.522   3.865  15.858  0.00  0.00    +0.000 A 
ATOM     30  O   UNL     1      47.011   3.689  14.757  0.00  0.00    +0.000 OA
ATOM     31  C   UNL     1      48.186   5.087  16.274  0.00  0.00    +0.000 A 
ATOM     32  H   UNL     1      46.979   2.040  16.565  0.00  0.00    +0.000 HD
ENDBRANCH  19  22
ENDBRANCH   1  20
TORSDOF 7
ENDMDL
MODEL 2
REMARK VINA RESULT:    -7.939      1.978      2.729
REMARK INTER + INTRA:         -12.320
REMARK INTER:                 -11.169
REMARK INTRA:                  -1.151
REMARK UNBOUND:                -1.132
REMARK  Name = 
REMARK  7 active torsions:
REMARK  status: ('A' for Active; 'I' for Inactive)
REMARK    1  A    between atoms: C_2  and  C_20
REMARK    2  A    between atoms: N_3  and  C_4
REMARK    3  A    between atoms: C_4  and  C_5
REMARK    4  A    between atoms: C_8  and  C_9
REMARK    5  A    between atoms: C_9  and  N_10
REMARK    6  A    between atoms: N_10  and  C_11
REMARK    7  A    between atoms: C_11  and  C_12
REMARK                            x       y       z     vdW  Elec       q    Type
REMARK                         _______ _______ _______ _____ _____    ______ ____
ROOT
ATOM      1  C   UNL     1      47.623   7.188  13.276  0.00  0.00    +0.000 C 
ENDROOT
BRANCH   1   2
ATOM      2  C   UNL     1      46.946   6.013  12.565  0.00  0.00    +0.000 C 
ATOM      3  C   UNL     1      46.147   6.476  11.335  0.00  0.00    +0.000 C 
ATOM      4  C   UNL     1      45.439   5.309  10.653  0.00  0.00    +0.000 C 
ATOM      5  C   UNL     1      44.529   4.551  11.628  0.00  0.00    +0.000 C 
ATOM      6  C   UNL     1      45.320   4.106  12.872  0.00  0.00    +0.000 C 
ATOM      7  C   UNL     1      46.030   5.274  13.545  0.00  0.00    +0.000 C 
BRANCH   5   8
ATOM      8  C   UNL     1      43.870   3.352  10.920  0.00  0.00    +0.000 C 
BRANCH   8   9
ATOM      9  N   UNL     1      44.335   3.281   9.539  0.00  0.00    +0.000 NA
ATOM     10  H   UNL     1      45.040   3.998   9.369  0.00  0.00    +0.000 HD
BRANCH   9  11
ATOM     11  C   UNL     1      44.870   1.972   9.192  0.00  0.00    +0.000 C 
BRANCH  11  12
ATOM     12  C   UNL     1      45.891   2.103   8.096  0.00  0.00    +0.000 A 
ATOM     13  C   UNL     1      46.040   3.297   7.378  0.00  0.00    +0.000 A 
ATOM     14  C   UNL     1      47.017   3.391   6.393  0.00  0.00    +0.000 A 
ATOM     15  C   UNL     1      47.814   2.285   6.153  0.00  0.00    +0.000 A 
ATOM     16  N   UNL     1      47.695   1.113   6.814  0.00  0.00    +0.000 NA
ATOM     17  C   UNL     1      46.738   1.052   7.766  0.00  0.00    +0.000 A 
ENDBRANCH  11  12
ENDBRANCH   9  11
ENDBRANCH   8   9
ENDBRANCH   5   8
ENDBRANCH   1   2
BRANCH   1  20
ATOM     18  O   UNL     1      50.079   6.970  14.686  0.00  0.00    +0.000 OA
ATOM     19  C   UNL     1      49.022   6.812  15.288  0.00  0.00    +0.000 C 
ATOM     20  N   UNL     1      47.800   6.932  14.684  0.00  0.00    +0.000 N 
ATOM     21  H   UNL     1      46.956   6.756  15.217  0.00  0.00    +0.000 HD
BRANCH  19  22
ATOM     22  C   UNL     1      48.988   6.529  16.727  0.00  0.00    +0.000 A 
ATOM     23  C   UNL     1      49.422   5.303  17.206  0.00  0.00    +0.000 A 
ATOM     24  S   UNL     1      49.315   5.160  18.903  0.00  0.00    +0.000 S 
ATOM     25  C   UNL     1      48.661   6.726  19.053  0.00  0.00    +0.000 A 
ATOM     26  N   UNL     1      48.326   7.232  20.267  0.00  0.00    +0.000 NA
ATOM     27  C   UNL     1      47.823   8.419  20.231  0.00  0.00    +0.000 A 
ATOM     28  N   UNL     1      47.623   9.149  19.089  0.00  0.00    +0.000 N 
ATOM     29  C   UNL     1      47.976   8.693  17.843  0.00  0.00    +0.000 A 
ATOM     30  O   UNL     1      47.856   9.411  16.856  0.00  0.00    +0.000 OA
ATOM     31  C   UNL     1      48.535   7.353  17.825  0.00  0.00    +0.000 A 
ATOM     32  H   UNL     1      47.246  10.086  19.129  0.00  0.00    +0.000 HD
ENDBRANCH  19  22
ENDBRANCH   1  20
TORSDOF 7
ENDMDL
MODEL 3
REMARK VINA RESULT:    -7.929      1.745      2.257
REMARK INTER + INTRA:         -12.306
REMARK INTER:                 -11.261
REMARK INTRA:                  -1.045
REMARK UNBOUND:                -1.132
REMARK  Name = 
REMARK  7 active torsions:
REMARK  status: ('A' for Active; 'I' for Inactive)
REMARK    1  A    between atoms: C_2  and  C_20
REMARK    2  A    between atoms: N_3  and  C_4
REMARK    3  A    between atoms: C_4  and  C_5
REMARK    4  A    between atoms: C_8  and  C_9
REMARK    5  A    between atoms: C_9  and  N_10
REMARK    6  A    between atoms: N_10  and  C_11
REMARK    7  A    between atoms: C_11  and  C_12
REMARK                            x       y       z     vdW  Elec       q    Type
REMARK                         _______ _______ _______ _____ _____    ______ ____
ROOT
ATOM      1  C   UNL     1      47.973   7.315  13.343  0.00  0.00    +0.000 C 
ENDROOT
BRANCH   1   2
ATOM      2  C   UNL     1      46.962   6.343  12.727  0.00  0.00    +0.000 C 
ATOM      3  C   UNL     1      45.622   7.034  12.422  0.00  0.00    +0.000 C 
ATOM      4  C   UNL     1      44.603   6.054  11.847  0.00  0.00    +0.000 C 
ATOM      5  C   UNL     1      44.388   4.852  12.776  0.00  0.00    +0.000 C 
ATOM      6  C   UNL     1      45.730   4.172  13.102  0.00  0.00    +0.000 C 
ATOM      7  C   UNL     1      46.745   5.156  13.670  0.00  0.00    +0.000 C 
BRANCH   5   8
ATOM      8  C   UNL     1      43.392   3.860  12.143  0.00  0.00    +0.000 C 
BRANCH   8   9
ATOM      9  N   UNL     1      43.566   3.849  10.694  0.00  0.00    +0.000 NA
ATOM     10  H   UNL     1      44.169   4.619  10.407  0.00  0.00    +0.000 HD
BRANCH   9  11
ATOM     11  C   UNL     1      44.108   2.590  10.203  0.00  0.00    +0.000 C 
BRANCH  11  12
ATOM     12  C   UNL     1      45.102   2.847   9.105  0.00  0.00    +0.000 A 
ATOM     13  C   UNL     1      45.817   1.800   8.509  0.00  0.00    +0.000 A 
ATOM     14  C   UNL     1      46.704   2.073   7.473  0.00  0.00    +0.000 A 
ATOM     15  C   UNL     1      46.853   3.389   7.067  0.00  0.00    +0.000 A 
ATOM     16  N   UNL     1      46.192   4.428   7.623  0.00  0.00    +0.000 NA
ATOM     17  C   UNL     1      45.335   4.131   8.625  0.00  0.00    +0.000 A 
ENDBRANCH  11  12
ENDBRANCH   9  11
ENDBRANCH   8   9
ENDBRANCH   5   8
ENDBRANCH   1   2
BRANCH   1  20
ATOM     18  O   UNL     1      50.093   6.744  15.145  0.00  0.00    +0.000 OA
ATOM     19  C   UNL     1      48.977   6.993  15.587  0.00  0.00    +0.000 C 
ATOM     20  N   UNL     1      47.914   7.307  14.784  0.00  0.00    +0.000 N 
ATOM     21  H   UNL     1      47.003   7.469  15.196  0.00  0.00    +0.000 HD
BRANCH  19  22
ATOM     22  C   UNL     1      48.706   7.020  17.029  0.00  0.00    +0.000 A 
ATOM     23  C   UNL     1      48.325   8.202  17.644  0.00  0.00    +0.000 A 
ATOM     24  S   UNL     1      48.046   8.037  19.319  0.00  0.00    +0.000 S 
ATOM     25  C   UNL     1      48.450   6.382  19.283  0.00  0.00    +0.000 A 
ATOM     26  N   UNL     1      48.425   5.631  20.413  0.00  0.00    +0.000 NA
ATOM     27  C   UNL     1      48.773   4.400  20.245  0.00  0.00    +0.000 A 
ATOM     28  N   UNL     1      49.146   3.851  19.045  0.00  0.00    +0.000 N 
ATOM     29  C   UNL     1      49.154   4.562  17.872  0.00  0.00    +0.000 A 
ATOM     30  O   UNL     1      49.415   4.011  16.808  0.00  0.00    +0.000 OA
ATOM     31  C   UNL     1      48.783   5.960  18.008  0.00  0.00    +0.000 A 
ATOM     32  H   UNL     1      49.385   2.872  18.974  0.00  0.00    +0.000 HD
ENDBRANCH  19  22
ENDBRANCH   1  20
TORSDOF 7
ENDMDL
MODEL 4
REMARK VINA RESULT:    -7.552      2.183      2.821
REMARK INTER + INTRA:         -11.774
REMARK INTER:                 -10.907
REMARK INTRA:                  -0.867
REMARK UNBOUND:                -1.132
REMARK  Name = 
REMARK  7 active torsions:
REMARK  status: ('A' for Active; 'I' for Inactive)
REMARK    1  A    between atoms: C_2  and  C_20
REMARK    2  A    between atoms: N_3  and  C_4
REMARK    3  A    between atoms: C_4  and  C_5
REMARK    4  A    between atoms: C_8  and  C_9
REMARK    5  A    between atoms: C_9  and  N_10
REMARK    6  A    between atoms: N_10  and  C_11
REMARK    7  A    between atoms: C_11  and  C_12
REMARK                            x       y       z     vdW  Elec       q    Type
REMARK                         _______ _______ _______ _____ _____    ______ ____
ROOT
ATOM      1  C   UNL     1      47.690   7.501  13.788  0.00  0.00    +0.000 C 
ENDROOT
BRANCH   1   2
ATOM      2  C   UNL     1      46.813   6.788  12.755  0.00  0.00    +0.000 C 
ATOM      3  C   UNL     1      45.515   7.565  12.478  0.00  0.00    +0.000 C 
ATOM      4  C   UNL     1      44.623   6.831  11.480  0.00  0.00    +0.000 C 
ATOM      5  C   UNL     1      44.305   5.404  11.947  0.00  0.00    +0.000 C 
ATOM      6  C   UNL     1      45.602   4.632  12.248  0.00  0.00    +0.000 C 
ATOM      7  C   UNL     1      46.491   5.371  13.240  0.00  0.00    +0.000 C 
BRANCH   5   8
ATOM      8  C   UNL     1      43.447   4.677  10.894  0.00  0.00    +0.000 C 
BRANCH   8   9
ATOM      9  N   UNL     1      44.261   3.689  10.194  0.00  0.00    +0.000 NA
ATOM     10  H   UNL     1      43.827   2.768  10.259  0.00  0.00    +0.000 HD
BRANCH   9  11
ATOM     11  C   UNL     1      44.482   4.032   8.796  0.00  0.00    +0.000 C 
BRANCH  11  12
ATOM     12  C   UNL     1      45.501   3.106   8.191  0.00  0.00    +0.000 A 
ATOM     13  C   UNL     1      46.427   3.561   7.244  0.00  0.00    +0.000 A 
ATOM     14  C   UNL     1      47.375   2.683   6.729  0.00  0.00    +0.000 A 
ATOM     15  C   UNL     1      47.365   1.372   7.176  0.00  0.00    +0.000 A 
ATOM     16  N   UNL     1      46.482   0.891   8.078  0.00  0.00    +0.000 NA
ATOM     17  C   UNL     1      45.574   1.768   8.562  0.00  0.00    +0.000 A 
ENDBRANCH  11  12
ENDBRANCH   9  11
ENDBRANCH   8   9
ENDBRANCH   5   8
ENDBRANCH   1   2
BRANCH   1  20
ATOM     18  O   UNL     1      49.007   8.164  16.216  0.00  0.00    +0.000 OA
ATOM     19  C   UNL     1      48.849   6.984  15.918  0.00  0.00    +0.000 C 
ATOM     20  N   UNL     1      48.198   6.587  14.782  0.00  0.00    +0.000 N 
ATOM     21  H   UNL     1      48.125   5.601  14.562  0.00  0.00    +0.000 HD
BRANCH  19  22
ATOM     22  C   UNL     1      49.309   5.899  16.792  0.00  0.00    +0.000 A 
ATOM     23  C   UNL     1      48.390   5.104  17.458  0.00  0.00    +0.000 A 
ATOM     24  S   UNL     1      49.110   3.892  18.419  0.00  0.00    +0.000 S 
ATOM     25  C   UNL     1      50.678   4.406  17.995  0.00  0.00    +0.000 A 
ATOM     26  N   UNL     1      51.777   3.784  18.494  0.00  0.00    +0.000 NA
ATOM     27  C   UNL     1      52.899   4.289  18.107  0.00  0.00    +0.000 A 
ATOM     28  N   UNL     1      53.023   5.364  17.265  0.00  0.00    +0.000 N 
ATOM     29  C   UNL     1      51.942   6.003  16.710  0.00  0.00    +0.000 A 
ATOM     30  O   UNL     1      52.100   6.907  15.897  0.00  0.00    +0.000 OA
ATOM     31  C   UNL     1      50.652   5.481  17.125  0.00  0.00    +0.000 A 
ATOM     32  H   UNL     1      53.932   5.698  16.979  0.00  0.00    +0.000 HD
ENDBRANCH  19  22
ENDBRANCH   1  20
TORSDOF 7
ENDMDL
MODEL 5
REMARK VINA RESULT:    -7.335      2.056      3.440
REMARK INTER + INTRA:         -11.468
REMARK INTER:                 -10.349
REMARK INTRA:                  -1.119
REMARK UNBOUND:                -1.132
REMARK  Name = 
REMARK  7 active torsions:
REMARK  status: ('A' for Active; 'I' for Inactive)
REMARK    1  A    between atoms: C_2  and  C_20
REMARK    2  A    between atoms: N_3  and  C_4
REMARK    3  A    between atoms: C_4  and  C_5
REMARK    4  A    between atoms: C_8  and  C_9
REMARK    5  A    between atoms: C_9  and  N_10
REMARK    6  A    between atoms: N_10  and  C_11
REMARK    7  A    between atoms: C_11  and  C_12
REMARK                            x       y       z     vdW  Elec       q    Type
REMARK                         _______ _______ _______ _____ _____    ______ ____
ROOT
ATOM      1  C   UNL     1      47.372   3.946  15.033  0.00  0.00    +0.000 C 
ENDROOT
BRANCH   1   2
ATOM      2  C   UNL     1      46.826   4.325  13.653  0.00  0.00    +0.000 C 
ATOM      3  C   UNL     1      46.028   5.639  13.699  0.00  0.00    +0.000 C 
ATOM      4  C   UNL     1      45.450   5.993  12.332  0.00  0.00    +0.000 C 
ATOM      5  C   UNL     1      44.582   4.857  11.772  0.00  0.00    +0.000 C 
ATOM      6  C   UNL     1      45.371   3.536  11.748  0.00  0.00    +0.000 C 
ATOM      7  C   UNL     1      45.951   3.190  13.113  0.00  0.00    +0.000 C 
BRANCH   5   8
ATOM      8  C   UNL     1      44.057   5.227  10.372  0.00  0.00    +0.000 C 
BRANCH   8   9
ATOM      9  N   UNL     1      45.057   4.885   9.366  0.00  0.00    +0.000 NA
ATOM     10  H   UNL     1      45.864   4.446   9.809  0.00  0.00    +0.000 HD
BRANCH   9  11
ATOM     11  C   UNL     1      44.532   4.012   8.326  0.00  0.00    +0.000 C 
BRANCH  11  12
ATOM     12  C   UNL     1      45.603   3.070   7.849  0.00  0.00    +0.000 A 
ATOM     13  C   UNL     1      46.522   3.452   6.864  0.00  0.00    +0.000 A 
ATOM     14  C   UNL     1      47.520   2.565   6.471  0.00  0.00    +0.000 A 
ATOM     15  C   UNL     1      47.564   1.320   7.075  0.00  0.00    +0.000 A 
ATOM     16  N   UNL     1      46.690   0.909   8.020  0.00  0.00    +0.000 NA
ATOM     17  C   UNL     1      45.734   1.793   8.382  0.00  0.00    +0.000 A 
ENDBRANCH  11  12
ENDBRANCH   9  11
ENDBRANCH   8   9
ENDBRANCH   5   8
ENDBRANCH   1   2
BRANCH   1  20
ATOM     18  O   UNL     1      49.607   4.526  16.686  0.00  0.00    +0.000 OA
ATOM     19  C   UNL     1      48.656   5.300  16.665  0.00  0.00    +0.000 C 
ATOM     20  N   UNL     1      47.558   5.104  15.872  0.00  0.00    +0.000 N 
ATOM     21  H   UNL     1      46.782   5.754  15.917  0.00  0.00    +0.000 HD
BRANCH  19  22
ATOM     22  C   UNL     1      48.646   6.533  17.460  0.00  0.00    +0.000 A 
ATOM     23  C   UNL     1      48.665   6.469  18.845  0.00  0.00    +0.000 A 
ATOM     24  S   UNL     1      48.657   8.001  19.596  0.00  0.00    +0.000 S 
ATOM     25  C   UNL     1      48.603   8.803  18.093  0.00  0.00    +0.000 A 
ATOM     26  N   UNL     1      48.566  10.158  18.023  0.00  0.00    +0.000 NA
ATOM     27  C   UNL     1      48.506  10.630  16.825  0.00  0.00    +0.000 A 
ATOM     28  N   UNL     1      48.477   9.869  15.685  0.00  0.00    +0.000 N 
ATOM     29  C   UNL     1      48.545   8.498  15.705  0.00  0.00    +0.000 A 
ATOM     30  O   UNL     1      48.599   7.859  14.660  0.00  0.00    +0.000 OA
ATOM     31  C   UNL     1      48.600   7.913  17.033  0.00  0.00    +0.000 A 
ATOM     32  H   UNL     1      48.454  10.300  14.772  0.00  0.00    +0.000 HD
ENDBRANCH  19  22
ENDBRANCH   1  20
TORSDOF 7
ENDMDL
MODEL 6
REMARK VINA RESULT:    -7.319      3.603      4.780
REMARK INTER + INTRA:         -11.446
REMARK INTER:                 -10.198
REMARK INTRA:                  -1.247
REMARK UNBOUND:                -1.132
REMARK  Name = 
REMARK  7 active torsions:
REMARK  status: ('A' for Active; 'I' for Inactive)
REMARK    1  A    between atoms: C_2  and  C_20
REMARK    2  A    between atoms: N_3  and  C_4
REMARK    3  A    between atoms: C_4  and  C_5
REMARK    4  A    between atoms: C_8  and  C_9
REMARK    5  A    between atoms: C_9  and  N_10
REMARK    6  A    between atoms: N_10  and  C_11
REMARK    7  A    between atoms: C_11  and  C_12
REMARK                            x       y       z     vdW  Elec       q    Type
REMARK                         _______ _______ _______ _____ _____    ______ ____
ROOT
ATOM      1  C   UNL     1      47.748   7.014  13.447  0.00  0.00    +0.000 C 
ENDROOT
BRANCH   1   2
ATOM      2  C   UNL     1      47.050   5.918  12.636  0.00  0.00    +0.000 C 
ATOM      3  C   UNL     1      46.136   6.510  11.550  0.00  0.00    +0.000 C 
ATOM      4  C   UNL     1      45.410   5.417  10.770  0.00  0.00    +0.000 C 
ATOM      5  C   UNL     1      44.611   4.494  11.700  0.00  0.00    +0.000 C 
ATOM      6  C   UNL     1      45.519   3.919  12.802  0.00  0.00    +0.000 C 
ATOM      7  C   UNL     1      46.245   5.014  13.573  0.00  0.00    +0.000 C 
BRANCH   5   8
ATOM      8  C   UNL     1      43.933   3.374  10.886  0.00  0.00    +0.000 C 
BRANCH   8   9
ATOM      9  N   UNL     1      44.940   2.424  10.425  0.00  0.00    +0.000 NA
ATOM     10  H   UNL     1      45.045   1.668  11.102  0.00  0.00    +0.000 HD
BRANCH   9  11
ATOM     11  C   UNL     1      44.632   1.871   9.114  0.00  0.00    +0.000 C 
BRANCH  11  12
ATOM     12  C   UNL     1      45.774   2.116   8.167  0.00  0.00    +0.000 A 
ATOM     13  C   UNL     1      46.003   3.382   7.614  0.00  0.00    +0.000 A 
ATOM     14  C   UNL     1      47.089   3.578   6.767  0.00  0.00    +0.000 A 
ATOM     15  C   UNL     1      47.911   2.498   6.495  0.00  0.00    +0.000 A 
ATOM     16  N   UNL     1      47.718   1.259   6.998  0.00  0.00    +0.000 NA
ATOM     17  C   UNL     1      46.657   1.099   7.819  0.00  0.00    +0.000 A 
ENDBRANCH  11  12
ENDBRANCH   9  11
ENDBRANCH   8   9
ENDBRANCH   5   8
ENDBRANCH   1   2
BRANCH   1  20
ATOM     18  O   UNL     1      48.711   8.890  11.544  0.00  0.00    +0.000 OA
ATOM     19  C   UNL     1      49.498   8.115  12.078  0.00  0.00    +0.000 C 
ATOM     20  N   UNL     1      49.114   7.205  13.026  0.00  0.00    +0.000 N 
ATOM     21  H   UNL     1      49.795   6.562  13.411  0.00  0.00    +0.000 HD
BRANCH  19  22
ATOM     22  C   UNL     1      50.933   8.139  11.774  0.00  0.00    +0.000 A 
ATOM     23  C   UNL     1      51.383   7.787  10.512  0.00  0.00    +0.000 A 
ATOM     24  S   UNL     1      53.078   7.883  10.343  0.00  0.00    +0.000 S 
ATOM     25  C   UNL     1      53.270   8.375  11.963  0.00  0.00    +0.000 A 
ATOM     26  N   UNL     1      54.501   8.622  12.479  0.00  0.00    +0.000 NA
ATOM     27  C   UNL     1      54.501   8.966  13.722  0.00  0.00    +0.000 A 
ATOM     28  N   UNL     1      53.378   9.085  14.500  0.00  0.00    +0.000 N 
ATOM     29  C   UNL     1      52.111   8.878  14.014  0.00  0.00    +0.000 A 
ATOM     30  O   UNL     1      51.130   9.076  14.722  0.00  0.00    +0.000 OA
ATOM     31  C   UNL     1      52.056   8.474  12.620  0.00  0.00    +0.000 A 
ATOM     32  H   UNL     1      53.442   9.383  15.463  0.00  0.00    +0.000 HD
ENDBRANCH  19  22
ENDBRANCH   1  20
TORSDOF 7
ENDMDL
MODEL 7
REMARK VINA RESULT:    -7.081      2.748      3.701
REMARK INTER + INTRA:         -11.110
REMARK INTER:                 -10.346
REMARK INTRA:                  -0.763
REMARK UNBOUND:                -1.132
REMARK  Name = 
REMARK  7 active torsions:
REMARK  status: ('A' for Active; 'I' for Inactive)
REMARK    1  A    between atoms: C_2  and  C_20
REMARK    2  A    between atoms: N_3  and  C_4
REMARK    3  A    between atoms: C_4  and  C_5
REMARK    4  A    between atoms: C_8  and  C_9
REMARK    5  A    between atoms: C_9  and  N_10
REMARK    6  A    between atoms: N_10  and  C_11
REMARK    7  A    between atoms: C_11  and  C_12
REMARK                            x       y       z     vdW  Elec       q    Type
REMARK                         _______ _______ _______ _____ _____    ______ ____
ROOT
ATOM      1  C   UNL     1      48.935   7.150  15.928  0.00  0.00    +0.000 C 
ENDROOT
BRANCH   1   2
ATOM      2  C   UNL     1      48.500   6.708  14.528  0.00  0.00    +0.000 C 
ATOM      3  C   UNL     1      47.903   7.875  13.723  0.00  0.00    +0.000 C 
ATOM      4  C   UNL     1      47.432   7.424  12.343  0.00  0.00    +0.000 C 
ATOM      5  C   UNL     1      46.426   6.269  12.439  0.00  0.00    +0.000 C 
ATOM      6  C   UNL     1      47.011   5.108  13.264  0.00  0.00    +0.000 C 
ATOM      7  C   UNL     1      47.485   5.566  14.638  0.00  0.00    +0.000 C 
BRANCH   5   8
ATOM      8  C   UNL     1      46.010   5.806  11.029  0.00  0.00    +0.000 C 
BRANCH   8   9
ATOM      9  N   UNL     1      45.099   4.671  11.134  0.00  0.00    +0.000 NA
ATOM     10  H   UNL     1      44.425   4.831  11.883  0.00  0.00    +0.000 HD
BRANCH   9  11
ATOM     11  C   UNL     1      44.396   4.399   9.889  0.00  0.00    +0.000 C 
BRANCH  11  12
ATOM     12  C   UNL     1      45.245   3.541   8.991  0.00  0.00    +0.000 A 
ATOM     13  C   UNL     1      45.287   2.149   9.140  0.00  0.00    +0.000 A 
ATOM     14  C   UNL     1      46.058   1.386   8.270  0.00  0.00    +0.000 A 
ATOM     15  C   UNL     1      46.769   2.040   7.279  0.00  0.00    +0.000 A 
ATOM     16  N   UNL     1      46.765   3.381   7.109  0.00  0.00    +0.000 NA
ATOM     17  C   UNL     1      46.005   4.096   7.968  0.00  0.00    +0.000 A 
ENDBRANCH  11  12
ENDBRANCH   9  11
ENDBRANCH   8   9
ENDBRANCH   5   8
ENDBRANCH   1   2
BRANCH   1  20
ATOM     18  O   UNL     1      48.695   5.329  18.095  0.00  0.00    +0.000 OA
ATOM     19  C   UNL     1      49.778   5.458  17.533  0.00  0.00    +0.000 C 
ATOM     20  N   UNL     1      49.964   6.292  16.464  0.00  0.00    +0.000 N 
ATOM     21  H   UNL     1      50.886   6.392  16.058  0.00  0.00    +0.000 HD
BRANCH  19  22
ATOM     22  C   UNL     1      50.956   4.684  17.940  0.00  0.00    +0.000 A 
ATOM     23  C   UNL     1      52.007   5.306  18.594  0.00  0.00    +0.000 A 
ATOM     24  S   UNL     1      53.282   4.246  18.993  0.00  0.00    +0.000 S 
ATOM     25  C   UNL     1      52.481   2.921  18.283  0.00  0.00    +0.000 A 
ATOM     26  N   UNL     1      53.045   1.686  18.272  0.00  0.00    +0.000 NA
ATOM     27  C   UNL     1      52.338   0.781  17.683  0.00  0.00    +0.000 A 
ATOM     28  N   UNL     1      51.116   0.999  17.101  0.00  0.00    +0.000 N 
ATOM     29  C   UNL     1      50.493   2.222  17.117  0.00  0.00    +0.000 A 
ATOM     30  O   UNL     1      49.364   2.354  16.657  0.00  0.00    +0.000 OA
ATOM     31  C   UNL     1      51.253   3.281  17.756  0.00  0.00    +0.000 A 
ATOM     32  H   UNL     1      50.600   0.242  16.676  0.00  0.00    +0.000 HD
ENDBRANCH  19  22
ENDBRANCH   1  20
TORSDOF 7
ENDMDL
MODEL 8
REMARK VINA RESULT:    -7.031      2.779      8.124
REMARK INTER + INTRA:         -11.041
REMARK INTER:                  -9.518
REMARK INTRA:                  -1.523
REMARK UNBOUND:                -1.132
REMARK  Name = 
REMARK  7 active torsions:
REMARK  status: ('A' for Active; 'I' for Inactive)
REMARK    1  A    between atoms: C_2  and  C_20
REMARK    2  A    between atoms: N_3  and  C_4
REMARK    3  A    between atoms: C_4  and  C_5
REMARK    4  A    between atoms: C_8  and  C_9
REMARK    5  A    between atoms: C_9  and  N_10
REMARK    6  A    between atoms: N_10  and  C_11
REMARK    7  A    between atoms: C_11  and  C_12
REMARK                            x       y       z     vdW  Elec       q    Type
REMARK                         _______ _______ _______ _____ _____    ______ ____
ROOT
ATOM      1  C   UNL     1      47.478   7.986  11.934  0.00  0.00    +0.000 C 
ENDROOT
BRANCH   1   2
ATOM      2  C   UNL     1      48.323   7.952  13.211  0.00  0.00    +0.000 C 
ATOM      3  C   UNL     1      48.255   6.580  13.902  0.00  0.00    +0.000 C 
ATOM      4  C   UNL     1      49.065   6.562  15.196  0.00  0.00    +0.000 C 
ATOM      5  C   UNL     1      48.617   7.670  16.159  0.00  0.00    +0.000 C 
ATOM      6  C   UNL     1      48.661   9.042  15.462  0.00  0.00    +0.000 C 
ATOM      7  C   UNL     1      47.857   9.053  14.169  0.00  0.00    +0.000 C 
BRANCH   5   8
ATOM      8  C   UNL     1      49.487   7.654  17.430  0.00  0.00    +0.000 C 
BRANCH   8   9
ATOM      9  N   UNL     1      48.793   6.930  18.491  0.00  0.00    +0.000 NA
ATOM     10  H   UNL     1      47.866   6.646  18.173  0.00  0.00    +0.000 HD
BRANCH   9  11
ATOM     11  C   UNL     1      49.534   5.765  18.953  0.00  0.00    +0.000 C 
BRANCH  11  12
ATOM     12  C   UNL     1      49.173   4.561  18.127  0.00  0.00    +0.000 A 
ATOM     13  C   UNL     1      47.840   4.263  17.816  0.00  0.00    +0.000 A 
ATOM     14  C   UNL     1      47.547   3.159  17.023  0.00  0.00    +0.000 A 
ATOM     15  C   UNL     1      48.599   2.382  16.567  0.00  0.00    +0.000 A 
ATOM     16  N   UNL     1      49.896   2.627  16.855  0.00  0.00    +0.000 NA
ATOM     17  C   UNL     1      50.150   3.708  17.625  0.00  0.00    +0.000 A 
ENDBRANCH  11  12
ENDBRANCH   9  11
ENDBRANCH   8   9
ENDBRANCH   5   8
ENDBRANCH   1   2
BRANCH   1  20
ATOM     18  O   UNL     1      44.670   7.712  11.614  0.00  0.00    +0.000 OA
ATOM     19  C   UNL     1      45.375   6.709  11.631  0.00  0.00    +0.000 C 
ATOM     20  N   UNL     1      46.737   6.762  11.751  0.00  0.00    +0.000 N 
ATOM     21  H   UNL     1      47.272   5.903  11.797  0.00  0.00    +0.000 HD
BRANCH  19  22
ATOM     22  C   UNL     1      44.809   5.364  11.474  0.00  0.00    +0.000 A 
ATOM     23  C   UNL     1      44.059   4.800  12.493  0.00  0.00    +0.000 A 
ATOM     24  S   UNL     1      43.479   3.238  12.127  0.00  0.00    +0.000 S 
ATOM     25  C   UNL     1      44.233   3.253  10.599  0.00  0.00    +0.000 A 
ATOM     26  N   UNL     1      44.138   2.190   9.761  0.00  0.00    +0.000 NA
ATOM     27  C   UNL     1      44.774   2.328   8.647  0.00  0.00    +0.000 A 
ATOM     28  N   UNL     1      45.500   3.435   8.294  0.00  0.00    +0.000 N 
ATOM     29  C   UNL     1      45.597   4.547   9.094  0.00  0.00    +0.000 A 
ATOM     30  O   UNL     1      46.189   5.548   8.705  0.00  0.00    +0.000 OA
ATOM     31  C   UNL     1      44.910   4.437  10.368  0.00  0.00    +0.000 A 
ATOM     32  H   UNL     1      45.957   3.493   7.395  0.00  0.00    +0.000 HD
ENDBRANCH  19  22
ENDBRANCH   1  20
TORSDOF 7
ENDMDL
MODEL 9
REMARK VINA RESULT:    -6.988      3.581      7.949
REMARK INTER + INTRA:         -10.979
REMARK INTER:                  -9.108
REMARK INTRA:                  -1.871
REMARK UNBOUND:                -1.132
REMARK  Name = 
REMARK  7 active torsions:
REMARK  status: ('A' for Active; 'I' for Inactive)
REMARK    1  A    between atoms: C_2  and  C_20
REMARK    2  A    between atoms: N_3  and  C_4
REMARK    3  A    between atoms: C_4  and  C_5
REMARK    4  A    between atoms: C_8  and  C_9
REMARK    5  A    between atoms: C_9  and  N_10
REMARK    6  A    between atoms: N_10  and  C_11
REMARK    7  A    between atoms: C_11  and  C_12
REMARK                            x       y       z     vdW  Elec       q    Type
REMARK                         _______ _______ _______ _____ _____    ______ ____
ROOT
ATOM      1  C   UNL     1      47.734   8.614  14.139  0.00  0.00    +0.000 C 
ENDROOT
BRANCH   1   2
ATOM      2  C   UNL     1      48.307   7.885  15.358  0.00  0.00    +0.000 C 
ATOM      3  C   UNL     1      48.361   8.799  16.594  0.00  0.00    +0.000 C 
ATOM      4  C   UNL     1      48.970   8.084  17.796  0.00  0.00    +0.000 C 
ATOM      5  C   UNL     1      50.366   7.531  17.477  0.00  0.00    +0.000 C 
ATOM      6  C   UNL     1      50.320   6.634  16.226  0.00  0.00    +0.000 C 
ATOM      7  C   UNL     1      49.705   7.352  15.031  0.00  0.00    +0.000 C 
BRANCH   5   8
ATOM      8  C   UNL     1      50.930   6.773  18.694  0.00  0.00    +0.000 C 
BRANCH   8   9
ATOM      9  N   UNL     1      49.832   6.295  19.528  0.00  0.00    +0.000 NA
ATOM     10  H   UNL     1      48.939   6.598  19.138  0.00  0.00    +0.000 HD
BRANCH   9  11
ATOM     11  C   UNL     1      49.834   4.848  19.686  0.00  0.00    +0.000 C 
BRANCH  11  12
ATOM     12  C   UNL     1      49.124   4.199  18.530  0.00  0.00    +0.000 A 
ATOM     13  C   UNL     1      47.822   4.572  18.173  0.00  0.00    +0.000 A 
ATOM     14  C   UNL     1      47.209   3.972  17.077  0.00  0.00    +0.000 A 
ATOM     15  C   UNL     1      47.918   3.014  16.373  0.00  0.00    +0.000 A 
ATOM     16  N   UNL     1      49.170   2.618  16.692  0.00  0.00    +0.000 NA
ATOM     17  C   UNL     1      49.740   3.219  17.759  0.00  0.00    +0.000 A 
ENDBRANCH  11  12
ENDBRANCH   9  11
ENDBRANCH   8   9
ENDBRANCH   5   8
ENDBRANCH   1   2
BRANCH   1  20
ATOM     18  O   UNL     1      47.783   6.619  12.118  0.00  0.00    +0.000 OA
ATOM     19  C   UNL     1      46.707   6.980  12.583  0.00  0.00    +0.000 C 
ATOM     20  N   UNL     1      46.605   7.913  13.579  0.00  0.00    +0.000 N 
ATOM     21  H   UNL     1      45.690   8.205  13.903  0.00  0.00    +0.000 HD
BRANCH  19  22
ATOM     22  C   UNL     1      45.437   6.397  12.134  0.00  0.00    +0.000 A 
ATOM     23  C   UNL     1      44.460   7.203  11.572  0.00  0.00    +0.000 A 
ATOM     24  S   UNL     1      43.060   6.349  11.104  0.00  0.00    +0.000 S 
ATOM     25  C   UNL     1      43.704   4.873  11.661  0.00  0.00    +0.000 A 
ATOM     26  N   UNL     1      42.994   3.719  11.567  0.00  0.00    +0.000 NA
ATOM     27  C   UNL     1      43.594   2.682  12.045  0.00  0.00    +0.000 A 
ATOM     28  N   UNL     1      44.841   2.693  12.613  0.00  0.00    +0.000 N 
ATOM     29  C   UNL     1      45.609   3.828  12.700  0.00  0.00    +0.000 A 
ATOM     30  O   UNL     1      46.752   3.777  13.141  0.00  0.00    +0.000 OA
ATOM     31  C   UNL     1      44.974   5.029  12.187  0.00  0.00    +0.000 A 
ATOM     32  H   UNL     1      45.267   1.841  12.949  0.00  0.00    +0.000 HD
ENDBRANCH  19  22
ENDBRANCH   1  20
TORSDOF 7
ENDMDL
