MODEL 1
REMARK VINA RESULT:    -7.148      0.000      0.000
REMARK INTER + INTRA:         -11.350
REMARK INTER:                 -10.700
REMARK INTRA:                  -0.650
REMARK UNBOUND:                -0.650
REMARK  Name = 
REMARK  10 active torsions:
REMARK  status: ('A' for Active; 'I' for Inactive)
REMARK    1  A    between atoms: CB_1  and  CA_2
REMARK    2  A    between atoms: CA_2  and  C_3
REMARK    3  A    between atoms: CA_2  and  N_5
REMARK    4  A    between atoms: C_3  and  O_4
REMARK    5  A    between atoms: N_5  and  C_6
REMARK    6  A    between atoms: C_6  and  C_7
REMARK    7  A    between atoms: C_10  and  O_11
REMARK    8  A    between atoms: O_11  and  C_12
REMARK    9  A    between atoms: C_12  and  C_13
REMARK   10  A    between atoms: C_17  and  C_18
REMARK                            x       y       z     vdW  Elec       q    Type
REMARK                         _______ _______ _______ _____ _____    ______ ____
ROOT
ATOM      1  C   UNK A   0      45.150   4.174   9.583  0.00  0.00    +0.000 A 
ATOM      2  C   UNK A   0      44.911   3.321  10.671  0.00  0.00    +0.000 A 
ATOM      3  C   UNK A   0      45.192   3.728  11.978  0.00  0.00    +0.000 A 
ATOM      4  C   UNK A   0      45.740   4.988  12.213  0.00  0.00    +0.000 A 
ATOM      5  C   UNK A   0      45.982   5.843  11.136  0.00  0.00    +0.000 A 
ATOM      6  C   UNK A   0      45.697   5.439   9.830  0.00  0.00    +0.000 A 
ENDROOT
BRANCH   1   7
ATOM      7  C   UNK A   0      44.868   3.717   8.171  0.00  0.00    +0.000 C 
BRANCH   7   8
ATOM      8  N   ALA A   1      46.047   3.851   7.309  0.00  0.00    +0.000 NA
ATOM      9  H   ALA A   1      45.833   4.549   6.596  0.00  0.00    +0.000 HD
BRANCH   8  11
ATOM     10  CB  ALA A   1      46.763   1.571   7.701  0.00  0.00    +0.000 C 
ATOM     11  CA  ALA A   1      46.388   2.593   6.621  0.00  0.00    +0.000 C 
BRANCH  11  12
ATOM     12  C   ALA A   1      47.546   2.745   5.607  0.00  0.00    +0.000 C 
BRANCH  12  13
ATOM     13  O   ALA A   1      48.452   1.645   5.677  0.00  0.00    +0.000 OA
ATOM     14  H   ALA A   1      49.351   1.997   5.566  0.00  0.00    +0.000 HD
ENDBRANCH  12  13
ENDBRANCH  11  12
ENDBRANCH   8  11
ENDBRANCH   7   8
ENDBRANCH   1   7
BRANCH   4  15
ATOM     15  O   UNK A   0      46.035   5.502  13.445  0.00  0.00    +0.000 OA
BRANCH  15  16
ATOM     16  C   UNK A   0      47.301   6.158  13.554  0.00  0.00    +0.000 C 
BRANCH  16  17
ATOM     17  C   UNK A   0      47.896   5.869  14.915  0.00  0.00    +0.000 A 
ATOM     18  N   UNK A   0      48.498   6.876  15.577  0.00  0.00    +0.000 NA
ATOM     19  C   UNK A   0      48.994   6.588  16.793  0.00  0.00    +0.000 A 
ATOM     20  C   UNK A   0      48.919   5.338  17.369  0.00  0.00    +0.000 A 
ATOM     21  C   UNK A   0      48.298   4.354  16.623  0.00  0.00    +0.000 A 
ATOM     22  N   UNK A   0      47.786   4.612  15.391  0.00  0.00    +0.000 NA
BRANCH  21  23
ATOM     23  C   UNK A   0      48.178   2.943  17.178  0.00  0.00    +0.000 C 
ATOM     24  F   UNK A   0      46.900   2.617  17.537  0.00  0.00    +0.000 F 
ATOM     25  F   UNK A   0      48.561   1.982  16.291  0.00  0.00    +0.000 F 
ATOM     26  F   UNK A   0      48.929   2.746  18.299  0.00  0.00    +0.000 F 
ENDBRANCH  21  23
ENDBRANCH  16  17
ENDBRANCH  15  16
ENDBRANCH   4  15
TORSDOF 9
ENDMDL
MODEL 2
REMARK VINA RESULT:    -7.064      1.117      1.758
REMARK INTER + INTRA:         -11.224
REMARK INTER:                 -10.518
REMARK INTRA:                  -0.706
REMARK UNBOUND:                -0.650
REMARK  Name = 
REMARK  10 active torsions:
REMARK  status: ('A' for Active; 'I' for Inactive)
REMARK    1  A    between atoms: CB_1  and  CA_2
REMARK    2  A    between atoms: CA_2  and  C_3
REMARK    3  A    between atoms: CA_2  and  N_5
REMARK    4  A    between atoms: C_3  and  O_4
REMARK    5  A    between atoms: N_5  and  C_6
REMARK    6  A    between atoms: C_6  and  C_7
REMARK    7  A    between atoms: C_10  and  O_11
REMARK    8  A    between atoms: O_11  and  C_12
REMARK    9  A    between atoms: C_12  and  C_13
REMARK   10  A    between atoms: C_17  and  C_18
REMARK                            x       y       z     vdW  Elec       q    Type
REMARK                         _______ _______ _______ _____ _____    ______ ____
ROOT
ATOM      1  C   UNK A   0      44.950   3.779  10.271  0.00  0.00    +0.000 A 
ATOM      2  C   UNK A   0      45.278   5.128  10.069  0.00  0.00    +0.000 A 
ATOM      3  C   UNK A   0      45.729   5.923  11.125  0.00  0.00    +0.000 A 
ATOM      4  C   UNK A   0      45.836   5.386  12.406  0.00  0.00    +0.000 A 
ATOM      5  C   UNK A   0      45.511   4.045  12.617  0.00  0.00    +0.000 A 
ATOM      6  C   UNK A   0      45.065   3.247  11.561  0.00  0.00    +0.000 A 
ENDROOT
BRANCH   1   7
ATOM      7  C   UNK A   0      44.438   2.932   9.129  0.00  0.00    +0.000 C 
BRANCH   7   8
ATOM      8  N   ALA A   1      45.318   1.791   8.859  0.00  0.00    +0.000 NA
ATOM      9  H   ALA A   1      45.694   1.471   9.752  0.00  0.00    +0.000 HD
BRANCH   8  11
ATOM     10  CB  ALA A   1      45.935   3.140   6.944  0.00  0.00    +0.000 C 
ATOM     11  CA  ALA A   1      46.455   2.148   7.993  0.00  0.00    +0.000 C 
BRANCH  11  12
ATOM     12  C   ALA A   1      47.101   0.928   7.297  0.00  0.00    +0.000 C 
BRANCH  12  13
ATOM     13  O   ALA A   1      46.748  -0.293   7.946  0.00  0.00    +0.000 OA
ATOM     14  H   ALA A   1      46.559  -0.950   7.254  0.00  0.00    +0.000 HD
ENDBRANCH  12  13
ENDBRANCH  11  12
ENDBRANCH   8  11
ENDBRANCH   7   8
ENDBRANCH   1   7
BRANCH   4  15
ATOM     15  O   UNK A   0      46.285   6.059  13.508  0.00  0.00    +0.000 OA
BRANCH  15  16
ATOM     16  C   UNK A   0      47.705   6.210  13.604  0.00  0.00    +0.000 C 
BRANCH  16  17
ATOM     17  C   UNK A   0      48.139   5.950  15.030  0.00  0.00    +0.000 A 
ATOM     18  N   UNK A   0      48.704   6.959  15.721  0.00  0.00    +0.000 NA
ATOM     19  C   UNK A   0      49.055   6.697  16.992  0.00  0.00    +0.000 A 
ATOM     20  C   UNK A   0      48.870   5.472  17.596  0.00  0.00    +0.000 A 
ATOM     21  C   UNK A   0      48.296   4.484  16.819  0.00  0.00    +0.000 A 
ATOM     22  N   UNK A   0      47.929   4.715  15.531  0.00  0.00    +0.000 NA
BRANCH  21  23
ATOM     23  C   UNK A   0      48.061   3.099  17.403  0.00  0.00    +0.000 C 
ATOM     24  F   UNK A   0      48.625   2.102  16.657  0.00  0.00    +0.000 F 
ATOM     25  F   UNK A   0      48.576   2.950  18.656  0.00  0.00    +0.000 F 
ATOM     26  F   UNK A   0      46.739   2.778  17.495  0.00  0.00    +0.000 F 
ENDBRANCH  21  23
ENDBRANCH  16  17
ENDBRANCH  15  16
ENDBRANCH   4  15
TORSDOF 9
ENDMDL
MODEL 3
REMARK VINA RESULT:    -7.018      4.117      8.280
REMARK INTER + INTRA:         -11.156
REMARK INTER:                 -10.836
REMARK INTRA:                  -0.320
REMARK UNBOUND:                -0.650
REMARK  Name = 
REMARK  10 active torsions:
REMARK  status: ('A' for Active; 'I' for Inactive)
REMARK    1  A    between atoms: CB_1  and  CA_2
REMARK    2  A    between atoms: CA_2  and  C_3
REMARK    3  A    between atoms: CA_2  and  N_5
REMARK    4  A    between atoms: C_3  and  O_4
REMARK    5  A    between atoms: N_5  and  C_6
REMARK    6  A    between atoms: C_6  and  C_7
REMARK    7  A    between atoms: C_10  and  O_11
REMARK    8  A    between atoms: O_11  and  C_12
REMARK    9  A    between atoms: C_12  and  C_13
REMARK   10  A    between atoms: C_17  and  C_18
REMARK                            x       y       z     vdW  Elec       q    Type
REMARK                         _______ _______ _______ _____ _____    ______ ____
ROOT
ATOM      1  C   UNK A   0      46.884   5.411  13.856  0.00  0.00    +0.000 A 
ATOM      2  C   UNK A   0      46.760   4.026  13.671  0.00  0.00    +0.000 A 
ATOM      3  C   UNK A   0      45.732   3.496  12.888  0.00  0.00    +0.000 A 
ATOM      4  C   UNK A   0      44.797   4.344  12.298  0.00  0.00    +0.000 A 
ATOM      5  C   UNK A   0      44.912   5.723  12.477  0.00  0.00    +0.000 A 
ATOM      6  C   UNK A   0      45.943   6.255  13.255  0.00  0.00    +0.000 A 
ENDROOT
BRANCH   1   7
ATOM      7  C   UNK A   0      47.983   5.976  14.726  0.00  0.00    +0.000 C 
BRANCH   7   8
ATOM      8  N   ALA A   1      48.528   4.967  15.640  0.00  0.00    +0.000 NA
ATOM      9  H   ALA A   1      48.613   4.092  15.121  0.00  0.00    +0.000 HD
BRANCH   8  11
ATOM     10  CB  ALA A   1      48.098   5.668  17.917  0.00  0.00    +0.000 C 
ATOM     11  CA  ALA A   1      47.650   4.720  16.797  0.00  0.00    +0.000 C 
BRANCH  11  12
ATOM     12  C   ALA A   1      47.686   3.256  17.293  0.00  0.00    +0.000 C 
BRANCH  12  13
ATOM     13  O   ALA A   1      46.393   2.807  17.696  0.00  0.00    +0.000 OA
ATOM     14  H   ALA A   1      45.845   2.732  16.896  0.00  0.00    +0.000 HD
ENDBRANCH  12  13
ENDBRANCH  11  12
ENDBRANCH   8  11
ENDBRANCH   7   8
ENDBRANCH   1   7
BRANCH   4  15
ATOM     15  O   UNK A   0      43.765   3.943  11.495  0.00  0.00    +0.000 OA
BRANCH  15  16
ATOM     16  C   UNK A   0      43.984   2.732  10.765  0.00  0.00    +0.000 C 
BRANCH  16  17
ATOM     17  C   UNK A   0      44.841   3.028   9.555  0.00  0.00    +0.000 A 
ATOM     18  N   UNK A   0      44.905   4.298   9.111  0.00  0.00    +0.000 NA
ATOM     19  C   UNK A   0      45.696   4.527   8.047  0.00  0.00    +0.000 A 
ATOM     20  C   UNK A   0      46.417   3.541   7.409  0.00  0.00    +0.000 A 
ATOM     21  C   UNK A   0      46.290   2.261   7.915  0.00  0.00    +0.000 A 
ATOM     22  N   UNK A   0      45.499   1.995   8.988  0.00  0.00    +0.000 NA
BRANCH  21  23
ATOM     23  C   UNK A   0      47.044   1.110   7.267  0.00  0.00    +0.000 C 
ATOM     24  F   UNK A   0      48.399   1.286   7.274  0.00  0.00    +0.000 F 
ATOM     25  F   UNK A   0      46.832  -0.087   7.885  0.00  0.00    +0.000 F 
ATOM     26  F   UNK A   0      46.711   0.925   5.958  0.00  0.00    +0.000 F 
ENDBRANCH  21  23
ENDBRANCH  16  17
ENDBRANCH  15  16
ENDBRANCH   4  15
TORSDOF 9
ENDMDL
MODEL 4
REMARK VINA RESULT:    -6.713      1.724      2.474
REMARK INTER + INTRA:         -10.698
REMARK INTER:                 -10.012
REMARK INTRA:                  -0.686
REMARK UNBOUND:                -0.650
REMARK  Name = 
REMARK  10 active torsions:
REMARK  status: ('A' for Active; 'I' for Inactive)
REMARK    1  A    between atoms: CB_1  and  CA_2
REMARK    2  A    between atoms: CA_2  and  C_3
REMARK    3  A    between atoms: CA_2  and  N_5
REMARK    4  A    between atoms: C_3  and  O_4
REMARK    5  A    between atoms: N_5  and  C_6
REMARK    6  A    between atoms: C_6  and  C_7
REMARK    7  A    between atoms: C_10  and  O_11
REMARK    8  A    between atoms: O_11  and  C_12
REMARK    9  A    between atoms: C_12  and  C_13
REMARK   10  A    between atoms: C_17  and  C_18
REMARK                            x       y       z     vdW  Elec       q    Type
REMARK                         _______ _______ _______ _____ _____    ______ ____
ROOT
ATOM      1  C   UNK A   0      44.944   4.037  10.119  0.00  0.00    +0.000 A 
ATOM      2  C   UNK A   0      45.324   5.373  10.320  0.00  0.00    +0.000 A 
ATOM      3  C   UNK A   0      45.690   5.833  11.587  0.00  0.00    +0.000 A 
ATOM      4  C   UNK A   0      45.657   4.968  12.679  0.00  0.00    +0.000 A 
ATOM      5  C   UNK A   0      45.280   3.637  12.489  0.00  0.00    +0.000 A 
ATOM      6  C   UNK A   0      44.919   3.175  11.222  0.00  0.00    +0.000 A 
ENDROOT
BRANCH   1   7
ATOM      7  C   UNK A   0      44.524   3.554   8.751  0.00  0.00    +0.000 C 
BRANCH   7   8
ATOM      8  N   ALA A   1      45.150   2.273   8.410  0.00  0.00    +0.000 NA
ATOM      9  H   ALA A   1      45.238   1.732   9.270  0.00  0.00    +0.000 HD
BRANCH   8  11
ATOM     10  CB  ALA A   1      46.398   3.489   6.728  0.00  0.00    +0.000 C 
ATOM     11  CA  ALA A   1      46.499   2.437   7.840  0.00  0.00    +0.000 C 
BRANCH  11  12
ATOM     12  C   ALA A   1      47.090   1.123   7.277  0.00  0.00    +0.000 C 
BRANCH  12  13
ATOM     13  O   ALA A   1      48.235   1.371   6.462  0.00  0.00    +0.000 OA
ATOM     14  H   ALA A   1      48.752   2.075   6.889  0.00  0.00    +0.000 HD
ENDBRANCH  12  13
ENDBRANCH  11  12
ENDBRANCH   8  11
ENDBRANCH   7   8
ENDBRANCH   1   7
BRANCH   4  15
ATOM     15  O   UNK A   0      46.014   5.297  13.957  0.00  0.00    +0.000 OA
BRANCH  15  16
ATOM     16  C   UNK A   0      47.420   5.395  14.202  0.00  0.00    +0.000 C 
BRANCH  16  17
ATOM     17  C   UNK A   0      47.736   4.784  15.549  0.00  0.00    +0.000 A 
ATOM     18  N   UNK A   0      46.894   3.857  16.044  0.00  0.00    +0.000 NA
ATOM     19  C   UNK A   0      47.219   3.319  17.233  0.00  0.00    +0.000 A 
ATOM     20  C   UNK A   0      48.345   3.674  17.946  0.00  0.00    +0.000 A 
ATOM     21  C   UNK A   0      49.152   4.641  17.378  0.00  0.00    +0.000 A 
ATOM     22  N   UNK A   0      48.852   5.204  16.178  0.00  0.00    +0.000 NA
BRANCH  21  23
ATOM     23  C   UNK A   0      50.411   5.098  18.100  0.00  0.00    +0.000 C 
ATOM     24  F   UNK A   0      50.280   6.331  18.675  0.00  0.00    +0.000 F 
ATOM     25  F   UNK A   0      50.783   4.264  19.112  0.00  0.00    +0.000 F 
ATOM     26  F   UNK A   0      51.491   5.198  17.274  0.00  0.00    +0.000 F 
ENDBRANCH  21  23
ENDBRANCH  16  17
ENDBRANCH  15  16
ENDBRANCH   4  15
TORSDOF 9
ENDMDL
MODEL 5
REMARK VINA RESULT:    -6.533      2.114      2.915
REMARK INTER + INTRA:         -10.430
REMARK INTER:                  -9.914
REMARK INTRA:                  -0.516
REMARK UNBOUND:                -0.650
REMARK  Name = 
REMARK  10 active torsions:
REMARK  status: ('A' for Active; 'I' for Inactive)
REMARK    1  A    between atoms: CB_1  and  CA_2
REMARK    2  A    between atoms: CA_2  and  C_3
REMARK    3  A    between atoms: CA_2  and  N_5
REMARK    4  A    between atoms: C_3  and  O_4
REMARK    5  A    between atoms: N_5  and  C_6
REMARK    6  A    between atoms: C_6  and  C_7
REMARK    7  A    between atoms: C_10  and  O_11
REMARK    8  A    between atoms: O_11  and  C_12
REMARK    9  A    between atoms: C_12  and  C_13
REMARK   10  A    between atoms: C_17  and  C_18
REMARK                            x       y       z     vdW  Elec       q    Type
REMARK                         _______ _______ _______ _____ _____    ______ ____
ROOT
ATOM      1  C   UNK A   0      45.289   4.787  11.228  0.00  0.00    +0.000 A 
ATOM      2  C   UNK A   0      46.002   5.973  11.458  0.00  0.00    +0.000 A 
ATOM      3  C   UNK A   0      46.777   6.134  12.609  0.00  0.00    +0.000 A 
ATOM      4  C   UNK A   0      46.831   5.117  13.560  0.00  0.00    +0.000 A 
ATOM      5  C   UNK A   0      46.124   3.933  13.340  0.00  0.00    +0.000 A 
ATOM      6  C   UNK A   0      45.353   3.770  12.188  0.00  0.00    +0.000 A 
ENDROOT
BRANCH   1   7
ATOM      7  C   UNK A   0      44.431   4.632   9.994  0.00  0.00    +0.000 C 
BRANCH   7   8
ATOM      8  N   ALA A   1      45.196   4.864   8.765  0.00  0.00    +0.000 NA
ATOM      9  H   ALA A   1      44.733   5.612   8.248  0.00  0.00    +0.000 HD
BRANCH   8  11
ATOM     10  CB  ALA A   1      44.770   2.480   8.734  0.00  0.00    +0.000 C 
ATOM     11  CA  ALA A   1      45.240   3.676   7.895  0.00  0.00    +0.000 C 
BRANCH  11  12
ATOM     12  C   ALA A   1      46.645   3.396   7.312  0.00  0.00    +0.000 C 
BRANCH  12  13
ATOM     13  O   ALA A   1      46.850   4.092   6.082  0.00  0.00    +0.000 OA
ATOM     14  H   ALA A   1      47.525   3.605   5.579  0.00  0.00    +0.000 HD
ENDBRANCH  12  13
ENDBRANCH  11  12
ENDBRANCH   8  11
ENDBRANCH   7   8
ENDBRANCH   1   7
BRANCH   4  15
ATOM     15  O   UNK A   0      47.571   5.150  14.709  0.00  0.00    +0.000 OA
BRANCH  15  16
ATOM     16  C   UNK A   0      47.209   4.190  15.705  0.00  0.00    +0.000 C 
BRANCH  16  17
ATOM     17  C   UNK A   0      48.059   4.406  16.938  0.00  0.00    +0.000 A 
ATOM     18  N   UNK A   0      47.479   4.942  18.029  0.00  0.00    +0.000 NA
ATOM     19  C   UNK A   0      48.259   5.098  19.113  0.00  0.00    +0.000 A 
ATOM     20  C   UNK A   0      49.592   4.747  19.149  0.00  0.00    +0.000 A 
ATOM     21  C   UNK A   0      50.118   4.214  17.987  0.00  0.00    +0.000 A 
ATOM     22  N   UNK A   0      49.357   4.044  16.873  0.00  0.00    +0.000 NA
BRANCH  21  23
ATOM     23  C   UNK A   0      51.582   3.806  17.934  0.00  0.00    +0.000 C 
ATOM     24  F   UNK A   0      52.352   4.665  17.201  0.00  0.00    +0.000 F 
ATOM     25  F   UNK A   0      52.170   3.752  19.163  0.00  0.00    +0.000 F 
ATOM     26  F   UNK A   0      51.772   2.580  17.368  0.00  0.00    +0.000 F 
ENDBRANCH  21  23
ENDBRANCH  16  17
ENDBRANCH  15  16
ENDBRANCH   4  15
TORSDOF 9
ENDMDL
MODEL 6
REMARK VINA RESULT:    -6.486      4.144      8.543
REMARK INTER + INTRA:         -10.359
REMARK INTER:                  -9.727
REMARK INTRA:                  -0.631
REMARK UNBOUND:                -0.650
REMARK  Name = 
REMARK  10 active torsions:
REMARK  status: ('A' for Active; 'I' for Inactive)
REMARK    1  A    between atoms: CB_1  and  CA_2
REMARK    2  A    between atoms: CA_2  and  C_3
REMARK    3  A    between atoms: CA_2  and  N_5
REMARK    4  A    between atoms: C_3  and  O_4
REMARK    5  A    between atoms: N_5  and  C_6
REMARK    6  A    between atoms: C_6  and  C_7
REMARK    7  A    between atoms: C_10  and  O_11
REMARK    8  A    between atoms: O_11  and  C_12
REMARK    9  A    between atoms: C_12  and  C_13
REMARK   10  A    between atoms: C_17  and  C_18
REMARK                            x       y       z     vdW  Elec       q    Type
REMARK                         _______ _______ _______ _____ _____    ______ ____
ROOT
ATOM      1  C   UNK A   0      47.877   5.650  15.201  0.00  0.00    +0.000 A 
ATOM      2  C   UNK A   0      46.906   4.776  14.690  0.00  0.00    +0.000 A 
ATOM      3  C   UNK A   0      46.396   4.944  13.401  0.00  0.00    +0.000 A 
ATOM      4  C   UNK A   0      46.833   6.006  12.611  0.00  0.00    +0.000 A 
ATOM      5  C   UNK A   0      47.799   6.882  13.112  0.00  0.00    +0.000 A 
ATOM      6  C   UNK A   0      48.313   6.712  14.399  0.00  0.00    +0.000 A 
ENDROOT
BRANCH   1   7
ATOM      7  C   UNK A   0      48.405   5.478  16.607  0.00  0.00    +0.000 C 
BRANCH   7   8
ATOM      8  N   ALA A   1      49.687   4.767  16.625  0.00  0.00    +0.000 NA
ATOM      9  H   ALA A   1      49.809   4.324  15.713  0.00  0.00    +0.000 HD
BRANCH   8  11
ATOM     10  CB  ALA A   1      49.126   2.444  17.022  0.00  0.00    +0.000 C 
ATOM     11  CA  ALA A   1      49.730   3.708  17.649  0.00  0.00    +0.000 C 
BRANCH  11  12
ATOM     12  C   ALA A   1      48.968   4.076  18.943  0.00  0.00    +0.000 C 
BRANCH  12  13
ATOM     13  O   ALA A   1      48.340   2.934  19.524  0.00  0.00    +0.000 OA
ATOM     14  H   ALA A   1      47.453   3.205  19.818  0.00  0.00    +0.000 HD
ENDBRANCH  12  13
ENDBRANCH  11  12
ENDBRANCH   8  11
ENDBRANCH   7   8
ENDBRANCH   1   7
BRANCH   4  15
ATOM     15  O   UNK A   0      46.424   6.258  11.331  0.00  0.00    +0.000 OA
BRANCH  15  16
ATOM     16  C   UNK A   0      45.057   5.946  11.047  0.00  0.00    +0.000 C 
BRANCH  16  17
ATOM     17  C   UNK A   0      44.990   4.637  10.292  0.00  0.00    +0.000 A 
ATOM     18  N   UNK A   0      44.183   3.668  10.763  0.00  0.00    +0.000 NA
ATOM     19  C   UNK A   0      44.132   2.527  10.053  0.00  0.00    +0.000 A 
ATOM     20  C   UNK A   0      44.856   2.314   8.900  0.00  0.00    +0.000 A 
ATOM     21  C   UNK A   0      45.672   3.351   8.487  0.00  0.00    +0.000 A 
ATOM     22  N   UNK A   0      45.747   4.517   9.182  0.00  0.00    +0.000 NA
BRANCH  21  23
ATOM     23  C   UNK A   0      46.513   3.200   7.230  0.00  0.00    +0.000 C 
ATOM     24  F   UNK A   0      47.462   2.222   7.334  0.00  0.00    +0.000 F 
ATOM     25  F   UNK A   0      45.779   2.877   6.127  0.00  0.00    +0.000 F 
ATOM     26  F   UNK A   0      47.199   4.335   6.909  0.00  0.00    +0.000 F 
ENDBRANCH  21  23
ENDBRANCH  16  17
ENDBRANCH  15  16
ENDBRANCH   4  15
TORSDOF 9
ENDMDL
MODEL 7
REMARK VINA RESULT:    -6.472      1.787      2.426
REMARK INTER + INTRA:         -10.337
REMARK INTER:                  -9.846
REMARK INTRA:                  -0.491
REMARK UNBOUND:                -0.650
REMARK  Name = 
REMARK  10 active torsions:
REMARK  status: ('A' for Active; 'I' for Inactive)
REMARK    1  A    between atoms: CB_1  and  CA_2
REMARK    2  A    between atoms: CA_2  and  C_3
REMARK    3  A    between atoms: CA_2  and  N_5
REMARK    4  A    between atoms: C_3  and  O_4
REMARK    5  A    between atoms: N_5  and  C_6
REMARK    6  A    between atoms: C_6  and  C_7
REMARK    7  A    between atoms: C_10  and  O_11
REMARK    8  A    between atoms: O_11  and  C_12
REMARK    9  A    between atoms: C_12  and  C_13
REMARK   10  A    between atoms: C_17  and  C_18
REMARK                            x       y       z     vdW  Elec       q    Type
REMARK                         _______ _______ _______ _____ _____    ______ ____
ROOT
ATOM      1  C   UNK A   0      44.865   5.264  11.557  0.00  0.00    +0.000 A 
ATOM      2  C   UNK A   0      45.213   4.417  12.620  0.00  0.00    +0.000 A 
ATOM      3  C   UNK A   0      46.410   4.595  13.318  0.00  0.00    +0.000 A 
ATOM      4  C   UNK A   0      47.289   5.610  12.946  0.00  0.00    +0.000 A 
ATOM      5  C   UNK A   0      46.951   6.457  11.889  0.00  0.00    +0.000 A 
ATOM      6  C   UNK A   0      45.753   6.283  11.194  0.00  0.00    +0.000 A 
ENDROOT
BRANCH   1   7
ATOM      7  C   UNK A   0      43.581   5.048  10.790  0.00  0.00    +0.000 C 
BRANCH   7   8
ATOM      8  N   ALA A   1      43.835   4.642   9.404  0.00  0.00    +0.000 NA
ATOM      9  H   ALA A   1      42.984   4.208   9.047  0.00  0.00    +0.000 HD
BRANCH   8  11
ATOM     10  CB  ALA A   1      45.641   3.912   7.966  0.00  0.00    +0.000 C 
ATOM     11  CA  ALA A   1      44.923   3.654   9.297  0.00  0.00    +0.000 C 
BRANCH  11  12
ATOM     12  C   ALA A   1      44.429   2.190   9.359  0.00  0.00    +0.000 C 
BRANCH  12  13
ATOM     13  O   ALA A   1      45.449   1.275   8.959  0.00  0.00    +0.000 OA
ATOM     14  H   ALA A   1      45.468   0.553   9.611  0.00  0.00    +0.000 HD
ENDBRANCH  12  13
ENDBRANCH  11  12
ENDBRANCH   8  11
ENDBRANCH   7   8
ENDBRANCH   1   7
BRANCH   4  15
ATOM     15  O   UNK A   0      48.474   5.894  13.566  0.00  0.00    +0.000 OA
BRANCH  15  16
ATOM     16  C   UNK A   0      48.445   6.992  14.482  0.00  0.00    +0.000 C 
BRANCH  16  17
ATOM     17  C   UNK A   0      48.654   6.475  15.888  0.00  0.00    +0.000 A 
ATOM     18  N   UNK A   0      48.879   7.368  16.871  0.00  0.00    +0.000 NA
ATOM     19  C   UNK A   0      49.037   6.873  18.111  0.00  0.00    +0.000 A 
ATOM     20  C   UNK A   0      48.986   5.527  18.406  0.00  0.00    +0.000 A 
ATOM     21  C   UNK A   0      48.764   4.673  17.342  0.00  0.00    +0.000 A 
ATOM     22  N   UNK A   0      48.600   5.140  16.077  0.00  0.00    +0.000 NA
BRANCH  21  23
ATOM     23  C   UNK A   0      48.700   3.171  17.575  0.00  0.00    +0.000 C 
ATOM     24  F   UNK A   0      49.714   2.491  16.960  0.00  0.00    +0.000 F 
ATOM     25  F   UNK A   0      48.780   2.827  18.892  0.00  0.00    +0.000 F 
ATOM     26  F   UNK A   0      47.551   2.608  17.104  0.00  0.00    +0.000 F 
ENDBRANCH  21  23
ENDBRANCH  16  17
ENDBRANCH  15  16
ENDBRANCH   4  15
TORSDOF 9
ENDMDL
MODEL 8
REMARK VINA RESULT:    -6.200      3.305      4.014
REMARK INTER + INTRA:          -9.930
REMARK INTER:                  -9.085
REMARK INTRA:                  -0.845
REMARK UNBOUND:                -0.650
REMARK  Name = 
REMARK  10 active torsions:
REMARK  status: ('A' for Active; 'I' for Inactive)
REMARK    1  A    between atoms: CB_1  and  CA_2
REMARK    2  A    between atoms: CA_2  and  C_3
REMARK    3  A    between atoms: CA_2  and  N_5
REMARK    4  A    between atoms: C_3  and  O_4
REMARK    5  A    between atoms: N_5  and  C_6
REMARK    6  A    between atoms: C_6  and  C_7
REMARK    7  A    between atoms: C_10  and  O_11
REMARK    8  A    between atoms: O_11  and  C_12
REMARK    9  A    between atoms: C_12  and  C_13
REMARK   10  A    between atoms: C_17  and  C_18
REMARK                            x       y       z     vdW  Elec       q    Type
REMARK                         _______ _______ _______ _____ _____    ______ ____
ROOT
ATOM      1  C   UNK A   0      45.717   6.953  12.170  0.00  0.00    +0.000 A 
ATOM      2  C   UNK A   0      46.707   5.960  12.202  0.00  0.00    +0.000 A 
ATOM      3  C   UNK A   0      47.875   6.134  12.948  0.00  0.00    +0.000 A 
ATOM      4  C   UNK A   0      48.081   7.317  13.655  0.00  0.00    +0.000 A 
ATOM      5  C   UNK A   0      47.101   8.312  13.628  0.00  0.00    +0.000 A 
ATOM      6  C   UNK A   0      45.931   8.137  12.887  0.00  0.00    +0.000 A 
ENDROOT
BRANCH   1   7
ATOM      7  C   UNK A   0      44.468   6.769  11.340  0.00  0.00    +0.000 C 
BRANCH   7   8
ATOM      8  N   ALA A   1      44.450   5.468  10.664  0.00  0.00    +0.000 NA
ATOM      9  H   ALA A   1      44.372   5.640   9.662  0.00  0.00    +0.000 HD
BRANCH   8  11
ATOM     10  CB  ALA A   1      42.325   5.549  11.824  0.00  0.00    +0.000 C 
ATOM     11  CA  ALA A   1      43.302   4.637  11.070  0.00  0.00    +0.000 C 
BRANCH  11  12
ATOM     12  C   ALA A   1      43.700   3.434  11.956  0.00  0.00    +0.000 C 
BRANCH  12  13
ATOM     13  O   ALA A   1      42.936   2.272  11.636  0.00  0.00    +0.000 OA
ATOM     14  H   ALA A   1      43.536   1.507  11.673  0.00  0.00    +0.000 HD
ENDBRANCH  12  13
ENDBRANCH  11  12
ENDBRANCH   8  11
ENDBRANCH   7   8
ENDBRANCH   1   7
BRANCH   4  15
ATOM     15  O   UNK A   0      49.170   7.591  14.434  0.00  0.00    +0.000 OA
BRANCH  15  16
ATOM     16  C   UNK A   0      48.921   7.662  15.841  0.00  0.00    +0.000 C 
BRANCH  16  17
ATOM     17  C   UNK A   0      49.390   6.381  16.496  0.00  0.00    +0.000 A 
ATOM     18  N   UNK A   0      50.492   6.423  17.269  0.00  0.00    +0.000 NA
ATOM     19  C   UNK A   0      50.864   5.271  17.853  0.00  0.00    +0.000 A 
ATOM     20  C   UNK A   0      50.186   4.081  17.691  0.00  0.00    +0.000 A 
ATOM     21  C   UNK A   0      49.073   4.115  16.873  0.00  0.00    +0.000 A 
ATOM     22  N   UNK A   0      48.669   5.264  16.268  0.00  0.00    +0.000 NA
BRANCH  21  23
ATOM     23  C   UNK A   0      48.269   2.847  16.632  0.00  0.00    +0.000 C 
ATOM     24  F   UNK A   0      47.589   2.861  15.446  0.00  0.00    +0.000 F 
ATOM     25  F   UNK A   0      49.037   1.722  16.595  0.00  0.00    +0.000 F 
ATOM     26  F   UNK A   0      47.321   2.628  17.587  0.00  0.00    +0.000 F 
ENDBRANCH  21  23
ENDBRANCH  16  17
ENDBRANCH  15  16
ENDBRANCH   4  15
TORSDOF 9
ENDMDL
MODEL 9
REMARK VINA RESULT:    -6.197      2.139      2.702
REMARK INTER + INTRA:          -9.926
REMARK INTER:                  -9.253
REMARK INTRA:                  -0.673
REMARK UNBOUND:                -0.650
REMARK  Name = 
REMARK  10 active torsions:
REMARK  status: ('A' for Active; 'I' for Inactive)
REMARK    1  A    between atoms: CB_1  and  CA_2
REMARK    2  A    between atoms: CA_2  and  C_3
REMARK    3  A    between atoms: CA_2  and  N_5
REMARK    4  A    between atoms: C_3  and  O_4
REMARK    5  A    between atoms: N_5  and  C_6
REMARK    6  A    between atoms: C_6  and  C_7
REMARK    7  A    between atoms: C_10  and  O_11
REMARK    8  A    between atoms: O_11  and  C_12
REMARK    9  A    between atoms: C_12  and  C_13
REMARK   10  A    between atoms: C_17  and  C_18
REMARK                            x       y       z     vdW  Elec       q    Type
REMARK                         _______ _______ _______ _____ _____    ______ ____
ROOT
ATOM      1  C   UNK A   0      45.022   3.985   9.712  0.00  0.00    +0.000 A 
ATOM      2  C   UNK A   0      44.666   3.475  10.969  0.00  0.00    +0.000 A 
ATOM      3  C   UNK A   0      44.878   4.218  12.132  0.00  0.00    +0.000 A 
ATOM      4  C   UNK A   0      45.472   5.477  12.057  0.00  0.00    +0.000 A 
ATOM      5  C   UNK A   0      45.830   5.993  10.810  0.00  0.00    +0.000 A 
ATOM      6  C   UNK A   0      45.614   5.252   9.646  0.00  0.00    +0.000 A 
ENDROOT
BRANCH   1   7
ATOM      7  C   UNK A   0      44.814   3.164   8.461  0.00  0.00    +0.000 C 
BRANCH   7   8
ATOM      8  N   ALA A   1      45.824   2.109   8.327  0.00  0.00    +0.000 NA
ATOM      9  H   ALA A   1      46.198   1.918   9.257  0.00  0.00    +0.000 HD
BRANCH   8  11
ATOM     10  CB  ALA A   1      46.374   3.405   6.356  0.00  0.00    +0.000 C 
ATOM     11  CA  ALA A   1      46.948   2.511   7.463  0.00  0.00    +0.000 C 
BRANCH  11  12
ATOM     12  C   ALA A   1      47.702   1.312   6.842  0.00  0.00    +0.000 C 
BRANCH  12  13
ATOM     13  O   ALA A   1      48.561   1.726   5.780  0.00  0.00    +0.000 OA
ATOM     14  H   ALA A   1      48.627   2.696   5.817  0.00  0.00    +0.000 HD
ENDBRANCH  12  13
ENDBRANCH  11  12
ENDBRANCH   8  11
ENDBRANCH   7   8
ENDBRANCH   1   7
BRANCH   4  15
ATOM     15  O   UNK A   0      45.708   6.303  13.120  0.00  0.00    +0.000 OA
BRANCH  15  16
ATOM     16  C   UNK A   0      46.257   7.584  12.798  0.00  0.00    +0.000 C 
BRANCH  16  17
ATOM     17  C   UNK A   0      47.703   7.632  13.241  0.00  0.00    +0.000 A 
ATOM     18  N   UNK A   0      48.608   8.190  12.414  0.00  0.00    +0.000 NA
ATOM     19  C   UNK A   0      49.878   8.236  12.851  0.00  0.00    +0.000 A 
ATOM     20  C   UNK A   0      50.280   7.743  14.074  0.00  0.00    +0.000 A 
ATOM     21  C   UNK A   0      49.297   7.174  14.861  0.00  0.00    +0.000 A 
ATOM     22  N   UNK A   0      48.003   7.112  14.449  0.00  0.00    +0.000 NA
BRANCH  21  23
ATOM     23  C   UNK A   0      49.653   6.598  16.223  0.00  0.00    +0.000 C 
ATOM     24  F   UNK A   0      49.623   7.530  17.223  0.00  0.00    +0.000 F 
ATOM     25  F   UNK A   0      48.807   5.608  16.626  0.00  0.00    +0.000 F 
ATOM     26  F   UNK A   0      50.908   6.066  16.264  0.00  0.00    +0.000 F 
ENDBRANCH  21  23
ENDBRANCH  16  17
ENDBRANCH  15  16
ENDBRANCH   4  15
TORSDOF 9
ENDMDL
