MODEL 1
REMARK VINA RESULT:    -8.656      0.000      0.000
REMARK INTER + INTRA:         -12.596
REMARK INTER:                 -11.693
REMARK INTRA:                  -0.903
REMARK UNBOUND:                -0.903
REMARK  Name = 
REMARK  9 active torsions:
REMARK  status: ('A' for Active; 'I' for Inactive)
REMARK    1  A    between atoms: C_1  and  C_2
REMARK    2  A    between atoms: C_5  and  N_6
REMARK    3  A    between atoms: N_6  and  C_7
REMARK    4  A    between atoms: C_9  and  C_10
REMARK    5  A    between atoms: C_10  and  C_11
REMARK    6  A    between atoms: C_10  and  C_12
REMARK    7  A    between atoms: C_10  and  C_13
REMARK    8  A    between atoms: C_13  and  N_14
REMARK    9  A    between atoms: C_18  and  C_19
REMARK                            x       y       z     vdW  Elec       q    Type
REMARK                         _______ _______ _______ _____ _____    ______ ____
ROOT
ATOM      1  C   UNL     1      43.897   4.524  12.090  0.00  0.00    +0.000 C 
ATOM      2  C   UNL     1      43.679   3.219  12.893  0.00  0.00    +0.000 C 
ATOM      3  C   UNL     1      42.803   5.547  12.502  0.00  0.00    +0.000 C 
ENDROOT
BRANCH   1   6
ATOM      4  C   UNL     1      47.124   5.250  14.085  0.00  0.00    +0.000 A 
ATOM      5  C   UNL     1      45.927   4.692  13.626  0.00  0.00    +0.000 A 
ATOM      6  C   UNL     1      45.290   5.115  12.436  0.00  0.00    +0.000 A 
ATOM      7  C   UNL     1      45.959   6.082  11.653  0.00  0.00    +0.000 A 
ATOM      8  C   UNL     1      47.196   6.597  12.056  0.00  0.00    +0.000 A 
ATOM      9  C   UNL     1      47.763   6.186  13.260  0.00  0.00    +0.000 A 
ATOM     10  F   UNL     1      48.927   6.728  13.646  0.00  0.00    +0.000 F 
BRANCH   4  11
ATOM     11  N   UNL     1      47.668   4.913  15.351  0.00  0.00    +0.000 N 
ATOM     12  H   UNL     1      48.432   5.527  15.623  0.00  0.00    +0.000 HD
BRANCH  11  17
ATOM     13  C   UNL     1      49.059   2.433  16.630  0.00  0.00    +0.000 C 
ATOM     14  C   UNL     1      47.655   2.925  16.960  0.00  0.00    +0.000 C 
ATOM     15  N   UNL     1      47.579   3.478  18.329  0.00  0.00    +0.000 NA
ATOM     16  C   UNL     1      47.178   4.800  17.825  0.00  0.00    +0.000 C 
ATOM     17  C   UNL     1      46.980   4.218  16.411  0.00  0.00    +0.000 C 
ATOM     18  H   UNL     1      48.455   3.484  18.851  0.00  0.00    +0.000 HD
ENDBRANCH  11  17
ENDBRANCH   4  11
ENDBRANCH   1   6
BRANCH   1  19
ATOM     19  C   UNL     1      43.743   4.210  10.575  0.00  0.00    +0.000 C 
BRANCH  19  20
ATOM     20  N   UNL     1      44.110   2.819  10.242  0.00  0.00    +0.000 N 
ATOM     21  C   UNL     1      45.019   2.728   9.186  0.00  0.00    +0.000 A 
ATOM     22  C   UNL     1      45.451   1.476   8.739  0.00  0.00    +0.000 A 
ATOM     23  N   UNL     1      46.301   1.292   7.692  0.00  0.00    +0.000 NA
ATOM     24  C   UNL     1      46.717   2.451   7.109  0.00  0.00    +0.000 A 
ATOM     25  C   UNL     1      46.306   3.700   7.552  0.00  0.00    +0.000 A 
ATOM     26  N   UNL     1      45.446   3.867   8.587  0.00  0.00    +0.000 NA
ATOM     27  H   UNL     1      43.299   2.263   9.978  0.00  0.00    +0.000 HD
BRANCH  24  28
ATOM     28  C   UNL     1      47.641   2.350   5.953  0.00  0.00    +0.000 C 
ATOM     29  N   UNL     1      47.512   3.278   4.967  0.00  0.00    +0.000 N 
ATOM     30  O   UNL     1      48.491   1.478   5.908  0.00  0.00    +0.000 OA
ATOM     31  H   UNL     1      46.803   3.999   5.010  0.00  0.00    +0.000 HD
ATOM     32  H   UNL     1      48.136   3.225   4.170  0.00  0.00    +0.000 HD
ENDBRANCH  24  28
ENDBRANCH  19  20
ENDBRANCH   1  19
TORSDOF 6
ENDMDL
MODEL 2
REMARK VINA RESULT:    -8.255      2.337      3.071
REMARK INTER + INTRA:         -12.053
REMARK INTER:                 -11.210
REMARK INTRA:                  -0.843
REMARK UNBOUND:                -0.903
REMARK  Name = 
REMARK  9 active torsions:
REMARK  status: ('A' for Active; 'I' for Inactive)
REMARK    1  A    between atoms: C_1  and  C_2
REMARK    2  A    between atoms: C_5  and  N_6
REMARK    3  A    between atoms: N_6  and  C_7
REMARK    4  A    between atoms: C_9  and  C_10
REMARK    5  A    between atoms: C_10  and  C_11
REMARK    6  A    between atoms: C_10  and  C_12
REMARK    7  A    between atoms: C_10  and  C_13
REMARK    8  A    between atoms: C_13  and  N_14
REMARK    9  A    between atoms: C_18  and  C_19
REMARK                            x       y       z     vdW  Elec       q    Type
REMARK                         _______ _______ _______ _____ _____    ______ ____
ROOT
ATOM      1  C   UNL     1      44.114   5.197  12.026  0.00  0.00    +0.000 C 
ATOM      2  C   UNL     1      45.249   4.265  12.517  0.00  0.00    +0.000 C 
ATOM      3  C   UNL     1      42.918   5.081  13.012  0.00  0.00    +0.000 C 
ENDROOT
BRANCH   1   6
ATOM      4  C   UNL     1      46.076   8.350  13.087  0.00  0.00    +0.000 A 
ATOM      5  C   UNL     1      45.637   7.032  12.931  0.00  0.00    +0.000 A 
ATOM      6  C   UNL     1      44.619   6.665  12.022  0.00  0.00    +0.000 A 
ATOM      7  C   UNL     1      44.101   7.680  11.187  0.00  0.00    +0.000 A 
ATOM      8  C   UNL     1      44.581   8.992  11.273  0.00  0.00    +0.000 A 
ATOM      9  C   UNL     1      45.553   9.316  12.217  0.00  0.00    +0.000 A 
ATOM     10  F   UNL     1      45.964  10.589  12.311  0.00  0.00    +0.000 F 
BRANCH   4  11
ATOM     11  N   UNL     1      46.994   8.717  14.105  0.00  0.00    +0.000 N 
ATOM     12  H   UNL     1      46.574   8.709  15.030  0.00  0.00    +0.000 HD
BRANCH  11  17
ATOM     13  C   UNL     1      48.292   6.119  15.239  0.00  0.00    +0.000 C 
ATOM     14  C   UNL     1      49.054   7.324  14.703  0.00  0.00    +0.000 C 
ATOM     15  N   UNL     1      49.747   7.011  13.436  0.00  0.00    +0.000 NA
ATOM     16  C   UNL     1      48.986   8.038  12.709  0.00  0.00    +0.000 C 
ATOM     17  C   UNL     1      48.429   8.587  14.038  0.00  0.00    +0.000 C 
ATOM     18  H   UNL     1      49.608   6.066  13.079  0.00  0.00    +0.000 HD
ENDBRANCH  11  17
ENDBRANCH   4  11
ENDBRANCH   1   6
BRANCH   1  19
ATOM     19  C   UNL     1      43.650   4.722  10.620  0.00  0.00    +0.000 C 
BRANCH  19  20
ATOM     20  N   UNL     1      43.933   3.293  10.381  0.00  0.00    +0.000 N 
ATOM     21  C   UNL     1      44.872   3.081   9.369  0.00  0.00    +0.000 A 
ATOM     22  C   UNL     1      45.233   1.779   9.011  0.00  0.00    +0.000 A 
ATOM     23  N   UNL     1      46.106   1.478   8.010  0.00  0.00    +0.000 NA
ATOM     24  C   UNL     1      46.621   2.571   7.381  0.00  0.00    +0.000 A 
ATOM     25  C   UNL     1      46.281   3.867   7.736  0.00  0.00    +0.000 A 
ATOM     26  N   UNL     1      45.397   4.152   8.725  0.00  0.00    +0.000 NA
ATOM     27  H   UNL     1      43.096   2.778  10.116  0.00  0.00    +0.000 HD
BRANCH  24  28
ATOM     28  C   UNL     1      47.577   2.341   6.271  0.00  0.00    +0.000 C 
ATOM     29  N   UNL     1      47.451   3.124   5.166  0.00  0.00    +0.000 N 
ATOM     30  O   UNL     1      48.450   1.495   6.363  0.00  0.00    +0.000 OA
ATOM     31  H   UNL     1      46.724   3.824   5.094  0.00  0.00    +0.000 HD
ATOM     32  H   UNL     1      48.098   2.982   4.398  0.00  0.00    +0.000 HD
ENDBRANCH  24  28
ENDBRANCH  19  20
ENDBRANCH   1  19
TORSDOF 6
ENDMDL
MODEL 3
REMARK VINA RESULT:    -8.128      3.375      8.345
REMARK INTER + INTRA:         -11.882
REMARK INTER:                 -11.071
REMARK INTRA:                  -0.811
REMARK UNBOUND:                -0.903
REMARK  Name = 
REMARK  9 active torsions:
REMARK  status: ('A' for Active; 'I' for Inactive)
REMARK    1  A    between atoms: C_1  and  C_2
REMARK    2  A    between atoms: C_5  and  N_6
REMARK    3  A    between atoms: N_6  and  C_7
REMARK    4  A    between atoms: C_9  and  C_10
REMARK    5  A    between atoms: C_10  and  C_11
REMARK    6  A    between atoms: C_10  and  C_12
REMARK    7  A    between atoms: C_10  and  C_13
REMARK    8  A    between atoms: C_13  and  N_14
REMARK    9  A    between atoms: C_18  and  C_19
REMARK                            x       y       z     vdW  Elec       q    Type
REMARK                         _______ _______ _______ _____ _____    ______ ____
ROOT
ATOM      1  C   UNL     1      45.517   6.092  11.641  0.00  0.00    +0.000 C 
ATOM      2  C   UNL     1      46.886   6.615  11.143  0.00  0.00    +0.000 C 
ATOM      3  C   UNL     1      44.436   7.167  11.336  0.00  0.00    +0.000 C 
ENDROOT
BRANCH   1   6
ATOM      4  C   UNL     1      45.329   3.512   8.772  0.00  0.00    +0.000 A 
ATOM      5  C   UNL     1      45.688   4.593   9.584  0.00  0.00    +0.000 A 
ATOM      6  C   UNL     1      45.155   4.789  10.879  0.00  0.00    +0.000 A 
ATOM      7  C   UNL     1      44.293   3.789  11.382  0.00  0.00    +0.000 A 
ATOM      8  C   UNL     1      43.982   2.660  10.614  0.00  0.00    +0.000 A 
ATOM      9  C   UNL     1      44.493   2.533   9.325  0.00  0.00    +0.000 A 
ATOM     10  F   UNL     1      44.144   1.465   8.593  0.00  0.00    +0.000 F 
BRANCH   4  11
ATOM     11  N   UNL     1      45.764   3.414   7.425  0.00  0.00    +0.000 N 
ATOM     12  H   UNL     1      45.120   3.856   6.774  0.00  0.00    +0.000 HD
BRANCH  11  17
ATOM     13  C   UNL     1      46.987   0.546   7.459  0.00  0.00    +0.000 C 
ATOM     14  C   UNL     1      47.741   1.823   7.108  0.00  0.00    +0.000 C 
ATOM     15  N   UNL     1      48.104   1.866   5.676  0.00  0.00    +0.000 NA
ATOM     16  C   UNL     1      47.319   3.091   5.462  0.00  0.00    +0.000 C 
ATOM     17  C   UNL     1      47.127   3.250   6.984  0.00  0.00    +0.000 C 
ATOM     18  H   UNL     1      47.789   1.072   5.117  0.00  0.00    +0.000 HD
ENDBRANCH  11  17
ENDBRANCH   4  11
ENDBRANCH   1   6
BRANCH   1  19
ATOM     19  C   UNL     1      45.591   5.882  13.179  0.00  0.00    +0.000 C 
BRANCH  19  20
ATOM     20  N   UNL     1      46.827   6.435  13.769  0.00  0.00    +0.000 N 
ATOM     21  C   UNL     1      47.367   5.627  14.772  0.00  0.00    +0.000 A 
ATOM     22  C   UNL     1      48.528   6.022  15.442  0.00  0.00    +0.000 A 
ATOM     23  N   UNL     1      49.099   5.320  16.458  0.00  0.00    +0.000 NA
ATOM     24  C   UNL     1      48.441   4.168  16.769  0.00  0.00    +0.000 A 
ATOM     25  C   UNL     1      47.297   3.757  16.103  0.00  0.00    +0.000 A 
ATOM     26  N   UNL     1      46.730   4.476  15.102  0.00  0.00    +0.000 NA
ATOM     27  H   UNL     1      46.674   7.352  14.184  0.00  0.00    +0.000 HD
BRANCH  24  28
ATOM     28  C   UNL     1      48.987   3.338  17.871  0.00  0.00    +0.000 C 
ATOM     29  N   UNL     1      50.285   2.943  17.772  0.00  0.00    +0.000 N 
ATOM     30  O   UNL     1      48.297   3.043  18.832  0.00  0.00    +0.000 OA
ATOM     31  H   UNL     1      50.852   3.190  16.972  0.00  0.00    +0.000 HD
ATOM     32  H   UNL     1      50.675   2.377  18.517  0.00  0.00    +0.000 HD
ENDBRANCH  24  28
ENDBRANCH  19  20
ENDBRANCH   1  19
TORSDOF 6
ENDMDL
MODEL 4
REMARK VINA RESULT:    -7.540      3.593      8.745
REMARK INTER + INTRA:         -11.087
REMARK INTER:                 -10.328
REMARK INTRA:                  -0.760
REMARK UNBOUND:                -0.903
REMARK  Name = 
REMARK  9 active torsions:
REMARK  status: ('A' for Active; 'I' for Inactive)
REMARK    1  A    between atoms: C_1  and  C_2
REMARK    2  A    between atoms: C_5  and  N_6
REMARK    3  A    between atoms: N_6  and  C_7
REMARK    4  A    between atoms: C_9  and  C_10
REMARK    5  A    between atoms: C_10  and  C_11
REMARK    6  A    between atoms: C_10  and  C_12
REMARK    7  A    between atoms: C_10  and  C_13
REMARK    8  A    between atoms: C_13  and  N_14
REMARK    9  A    between atoms: C_18  and  C_19
REMARK                            x       y       z     vdW  Elec       q    Type
REMARK                         _______ _______ _______ _____ _____    ______ ____
ROOT
ATOM      1  C   UNL     1      47.228   7.061  12.685  0.00  0.00    +0.000 C 
ATOM      2  C   UNL     1      48.035   7.356  11.398  0.00  0.00    +0.000 C 
ATOM      3  C   UNL     1      46.734   8.410  13.279  0.00  0.00    +0.000 C 
ENDROOT
BRANCH   1   6
ATOM      4  C   UNL     1      44.706   5.058  10.551  0.00  0.00    +0.000 A 
ATOM      5  C   UNL     1      45.839   5.746  10.997  0.00  0.00    +0.000 A 
ATOM      6  C   UNL     1      45.993   6.189  12.331  0.00  0.00    +0.000 A 
ATOM      7  C   UNL     1      44.983   5.831  13.252  0.00  0.00    +0.000 A 
ATOM      8  C   UNL     1      43.878   5.075  12.843  0.00  0.00    +0.000 A 
ATOM      9  C   UNL     1      43.746   4.702  11.508  0.00  0.00    +0.000 A 
ATOM     10  F   UNL     1      42.655   4.018  11.132  0.00  0.00    +0.000 F 
BRANCH   4  11
ATOM     11  N   UNL     1      44.509   4.752   9.181  0.00  0.00    +0.000 N 
ATOM     12  H   UNL     1      44.755   5.525   8.569  0.00  0.00    +0.000 HD
BRANCH  11  17
ATOM     13  C   UNL     1      46.849   3.993   7.265  0.00  0.00    +0.000 C 
ATOM     14  C   UNL     1      45.639   3.119   7.568  0.00  0.00    +0.000 C 
ATOM     15  N   UNL     1      46.013   1.925   8.355  0.00  0.00    +0.000 NA
ATOM     16  C   UNL     1      45.139   2.323   9.468  0.00  0.00    +0.000 C 
ATOM     17  C   UNL     1      44.512   3.432   8.598  0.00  0.00    +0.000 C 
ATOM     18  H   UNL     1      46.998   1.855   8.609  0.00  0.00    +0.000 HD
ENDBRANCH  11  17
ENDBRANCH   4  11
ENDBRANCH   1   6
BRANCH   1  19
ATOM     19  C   UNL     1      48.165   6.375  13.718  0.00  0.00    +0.000 C 
BRANCH  19  20
ATOM     20  N   UNL     1      48.405   7.211  14.911  0.00  0.00    +0.000 N 
ATOM     21  C   UNL     1      48.544   6.467  16.085  0.00  0.00    +0.000 A 
ATOM     22  C   UNL     1      48.758   7.115  17.305  0.00  0.00    +0.000 A 
ATOM     23  N   UNL     1      48.863   6.474  18.501  0.00  0.00    +0.000 NA
ATOM     24  C   UNL     1      48.754   5.118  18.411  0.00  0.00    +0.000 A 
ATOM     25  C   UNL     1      48.556   4.463  17.206  0.00  0.00    +0.000 A 
ATOM     26  N   UNL     1      48.437   5.117  16.023  0.00  0.00    +0.000 NA
ATOM     27  H   UNL     1      47.647   7.872  15.073  0.00  0.00    +0.000 HD
BRANCH  24  28
ATOM     28  C   UNL     1      48.849   4.334  19.666  0.00  0.00    +0.000 C 
ATOM     29  N   UNL     1      48.347   3.070  19.652  0.00  0.00    +0.000 N 
ATOM     30  O   UNL     1      49.375   4.806  20.659  0.00  0.00    +0.000 OA
ATOM     31  H   UNL     1      47.911   2.684  18.825  0.00  0.00    +0.000 HD
ATOM     32  H   UNL     1      48.405   2.518  20.501  0.00  0.00    +0.000 HD
ENDBRANCH  24  28
ENDBRANCH  19  20
ENDBRANCH   1  19
TORSDOF 6
ENDMDL
MODEL 5
REMARK VINA RESULT:    -7.099      3.598      7.806
REMARK INTER + INTRA:         -10.493
REMARK INTER:                  -9.340
REMARK INTRA:                  -1.153
REMARK UNBOUND:                -0.903
REMARK  Name = 
REMARK  9 active torsions:
REMARK  status: ('A' for Active; 'I' for Inactive)
REMARK    1  A    between atoms: C_1  and  C_2
REMARK    2  A    between atoms: C_5  and  N_6
REMARK    3  A    between atoms: N_6  and  C_7
REMARK    4  A    between atoms: C_9  and  C_10
REMARK    5  A    between atoms: C_10  and  C_11
REMARK    6  A    between atoms: C_10  and  C_12
REMARK    7  A    between atoms: C_10  and  C_13
REMARK    8  A    between atoms: C_13  and  N_14
REMARK    9  A    between atoms: C_18  and  C_19
REMARK                            x       y       z     vdW  Elec       q    Type
REMARK                         _______ _______ _______ _____ _____    ______ ____
ROOT
ATOM      1  C   UNL     1      48.617   8.924  12.711  0.00  0.00    +0.000 C 
ATOM      2  C   UNL     1      49.399   9.454  11.485  0.00  0.00    +0.000 C 
ATOM      3  C   UNL     1      48.653  10.006  13.826  0.00  0.00    +0.000 C 
ENDROOT
BRANCH   1   6
ATOM      4  C   UNL     1      45.462   7.023  11.548  0.00  0.00    +0.000 A 
ATOM      5  C   UNL     1      46.735   7.342  12.031  0.00  0.00    +0.000 A 
ATOM      6  C   UNL     1      47.140   8.668  12.309  0.00  0.00    +0.000 A 
ATOM      7  C   UNL     1      46.169   9.684  12.167  0.00  0.00    +0.000 A 
ATOM      8  C   UNL     1      44.866   9.376  11.760  0.00  0.00    +0.000 A 
ATOM      9  C   UNL     1      44.525   8.061  11.451  0.00  0.00    +0.000 A 
ATOM     10  F   UNL     1      43.283   7.798  11.018  0.00  0.00    +0.000 F 
BRANCH   4  11
ATOM     11  N   UNL     1      45.126   5.707  11.139  0.00  0.00    +0.000 N 
ATOM     12  H   UNL     1      45.725   5.366  10.392  0.00  0.00    +0.000 HD
BRANCH  11  17
ATOM     13  C   UNL     1      44.610   2.899   9.885  0.00  0.00    +0.000 C 
ATOM     14  C   UNL     1      44.125   3.356  11.255  0.00  0.00    +0.000 C 
ATOM     15  N   UNL     1      44.822   2.643  12.346  0.00  0.00    +0.000 NA
ATOM     16  C   UNL     1      45.367   3.898  12.885  0.00  0.00    +0.000 C 
ATOM     17  C   UNL     1      44.457   4.714  11.944  0.00  0.00    +0.000 C 
ATOM     18  H   UNL     1      45.536   1.977  12.052  0.00  0.00    +0.000 HD
ENDBRANCH  11  17
ENDBRANCH   4  11
ENDBRANCH   1   6
BRANCH   1  19
ATOM     19  C   UNL     1      49.322   7.642  13.237  0.00  0.00    +0.000 C 
BRANCH  19  20
ATOM     20  N   UNL     1      49.636   7.717  14.678  0.00  0.00    +0.000 N 
ATOM     21  C   UNL     1      49.094   6.661  15.415  0.00  0.00    +0.000 A 
ATOM     22  C   UNL     1      49.288   6.600  16.797  0.00  0.00    +0.000 A 
ATOM     23  N   UNL     1      48.762   5.633  17.599  0.00  0.00    +0.000 NA
ATOM     24  C   UNL     1      48.025   4.702  16.929  0.00  0.00    +0.000 A 
ATOM     25  C   UNL     1      47.837   4.745  15.556  0.00  0.00    +0.000 A 
ATOM     26  N   UNL     1      48.355   5.724  14.772  0.00  0.00    +0.000 NA
ATOM     27  H   UNL     1      49.290   8.576  15.100  0.00  0.00    +0.000 HD
BRANCH  24  28
ATOM     28  C   UNL     1      47.406   3.612  17.721  0.00  0.00    +0.000 C 
ATOM     29  N   UNL     1      47.989   3.293  18.908  0.00  0.00    +0.000 N 
ATOM     30  O   UNL     1      46.402   3.045  17.326  0.00  0.00    +0.000 OA
ATOM     31  H   UNL     1      48.823   3.767  19.230  0.00  0.00    +0.000 HD
ATOM     32  H   UNL     1      47.578   2.551  19.463  0.00  0.00    +0.000 HD
ENDBRANCH  24  28
ENDBRANCH  19  20
ENDBRANCH   1  19
TORSDOF 6
ENDMDL
MODEL 6
REMARK VINA RESULT:    -6.857      2.566      4.249
REMARK INTER + INTRA:         -10.165
REMARK INTER:                  -9.497
REMARK INTRA:                  -0.668
REMARK UNBOUND:                -0.903
REMARK  Name = 
REMARK  9 active torsions:
REMARK  status: ('A' for Active; 'I' for Inactive)
REMARK    1  A    between atoms: C_1  and  C_2
REMARK    2  A    between atoms: C_5  and  N_6
REMARK    3  A    between atoms: N_6  and  C_7
REMARK    4  A    between atoms: C_9  and  C_10
REMARK    5  A    between atoms: C_10  and  C_11
REMARK    6  A    between atoms: C_10  and  C_12
REMARK    7  A    between atoms: C_10  and  C_13
REMARK    8  A    between atoms: C_13  and  N_14
REMARK    9  A    between atoms: C_18  and  C_19
REMARK                            x       y       z     vdW  Elec       q    Type
REMARK                         _______ _______ _______ _____ _____    ______ ____
ROOT
ATOM      1  C   UNL     1      43.711   6.008  11.663  0.00  0.00    +0.000 C 
ATOM      2  C   UNL     1      42.864   5.065  12.551  0.00  0.00    +0.000 C 
ATOM      3  C   UNL     1      43.000   7.388  11.589  0.00  0.00    +0.000 C 
ENDROOT
BRANCH   1   6
ATOM      4  C   UNL     1      47.001   7.739  12.716  0.00  0.00    +0.000 A 
ATOM      5  C   UNL     1      45.699   7.488  12.272  0.00  0.00    +0.000 A 
ATOM      6  C   UNL     1      45.111   6.201  12.305  0.00  0.00    +0.000 A 
ATOM      7  C   UNL     1      45.863   5.162  12.897  0.00  0.00    +0.000 A 
ATOM      8  C   UNL     1      47.139   5.410  13.418  0.00  0.00    +0.000 A 
ATOM      9  C   UNL     1      47.696   6.683  13.321  0.00  0.00    +0.000 A 
ATOM     10  F   UNL     1      48.938   6.883  13.786  0.00  0.00    +0.000 F 
BRANCH   4  11
ATOM     11  N   UNL     1      47.619   9.003  12.539  0.00  0.00    +0.000 N 
ATOM     12  H   UNL     1      47.227   9.717  13.148  0.00  0.00    +0.000 HD
BRANCH  11  17
ATOM     13  C   UNL     1      48.112  11.516  10.761  0.00  0.00    +0.000 C 
ATOM     14  C   UNL     1      49.144  10.439  11.072  0.00  0.00    +0.000 C 
ATOM     15  N   UNL     1      50.223  10.953  11.942  0.00  0.00    +0.000 NA
ATOM     16  C   UNL     1      49.903   9.979  12.996  0.00  0.00    +0.000 C 
ATOM     17  C   UNL     1      48.952   9.232  12.038  0.00  0.00    +0.000 C 
ATOM     18  H   UNL     1      50.126  11.925  12.237  0.00  0.00    +0.000 HD
ENDBRANCH  11  17
ENDBRANCH   4  11
ENDBRANCH   1   6
BRANCH   1  19
ATOM     19  C   UNL     1      43.791   5.410  10.231  0.00  0.00    +0.000 C 
BRANCH  19  20
ATOM     20  N   UNL     1      44.006   3.949  10.237  0.00  0.00    +0.000 N 
ATOM     21  C   UNL     1      44.940   3.527   9.287  0.00  0.00    +0.000 A 
ATOM     22  C   UNL     1      45.240   2.169   9.156  0.00  0.00    +0.000 A 
ATOM     23  N   UNL     1      46.104   1.665   8.232  0.00  0.00    +0.000 NA
ATOM     24  C   UNL     1      46.674   2.612   7.436  0.00  0.00    +0.000 A 
ATOM     25  C   UNL     1      46.395   3.964   7.566  0.00  0.00    +0.000 A 
ATOM     26  N   UNL     1      45.520   4.450   8.481  0.00  0.00    +0.000 NA
ATOM     27  H   UNL     1      43.147   3.436  10.049  0.00  0.00    +0.000 HD
BRANCH  24  28
ATOM     28  C   UNL     1      47.625   2.157   6.393  0.00  0.00    +0.000 C 
ATOM     29  N   UNL     1      47.814   2.972   5.321  0.00  0.00    +0.000 N 
ATOM     30  O   UNL     1      48.223   1.101   6.511  0.00  0.00    +0.000 OA
ATOM     31  H   UNL     1      47.315   3.847   5.228  0.00  0.00    +0.000 HD
ATOM     32  H   UNL     1      48.462   2.677   4.599  0.00  0.00    +0.000 HD
ENDBRANCH  24  28
ENDBRANCH  19  20
ENDBRANCH   1  19
TORSDOF 6
ENDMDL
MODEL 7
REMARK VINA RESULT:    -6.842      3.111      5.057
REMARK INTER + INTRA:         -10.144
REMARK INTER:                  -9.158
REMARK INTRA:                  -0.987
REMARK UNBOUND:                -0.903
REMARK  Name = 
REMARK  9 active torsions:
REMARK  status: ('A' for Active; 'I' for Inactive)
REMARK    1  A    between atoms: C_1  and  C_2
REMARK    2  A    between atoms: C_5  and  N_6
REMARK    3  A    between atoms: N_6  and  C_7
REMARK    4  A    between atoms: C_9  and  C_10
REMARK    5  A    between atoms: C_10  and  C_11
REMARK    6  A    between atoms: C_10  and  C_12
REMARK    7  A    between atoms: C_10  and  C_13
REMARK    8  A    between atoms: C_13  and  N_14
REMARK    9  A    between atoms: C_18  and  C_19
REMARK                            x       y       z     vdW  Elec       q    Type
REMARK                         _______ _______ _______ _____ _____    ______ ____
ROOT
ATOM      1  C   UNL     1      48.424   8.301  13.062  0.00  0.00    +0.000 C 
ATOM      2  C   UNL     1      48.761   9.745  12.617  0.00  0.00    +0.000 C 
ATOM      3  C   UNL     1      49.410   7.325  12.362  0.00  0.00    +0.000 C 
ENDROOT
BRANCH   1   6
ATOM      4  C   UNL     1      49.240   6.729  16.495  0.00  0.00    +0.000 A 
ATOM      5  C   UNL     1      49.146   6.982  15.123  0.00  0.00    +0.000 A 
ATOM      6  C   UNL     1      48.606   8.180  14.599  0.00  0.00    +0.000 A 
ATOM      7  C   UNL     1      48.235   9.181  15.524  0.00  0.00    +0.000 A 
ATOM      8  C   UNL     1      48.394   8.977  16.900  0.00  0.00    +0.000 A 
ATOM      9  C   UNL     1      48.886   7.763  17.372  0.00  0.00    +0.000 A 
ATOM     10  F   UNL     1      48.985   7.576  18.696  0.00  0.00    +0.000 F 
BRANCH   4  11
ATOM     11  N   UNL     1      49.649   5.466  16.995  0.00  0.00    +0.000 N 
ATOM     12  H   UNL     1      50.391   5.542  17.686  0.00  0.00    +0.000 HD
BRANCH  11  17
ATOM     13  C   UNL     1      48.709   4.396  19.768  0.00  0.00    +0.000 C 
ATOM     14  C   UNL     1      48.479   3.703  18.431  0.00  0.00    +0.000 C 
ATOM     15  N   UNL     1      47.051   3.713  18.050  0.00  0.00    +0.000 NA
ATOM     16  C   UNL     1      47.333   4.475  16.824  0.00  0.00    +0.000 C 
ATOM     17  C   UNL     1      48.848   4.267  17.026  0.00  0.00    +0.000 C 
ATOM     18  H   UNL     1      46.425   4.193  18.698  0.00  0.00    +0.000 HD
ENDBRANCH  11  17
ENDBRANCH   4  11
ENDBRANCH   1   6
BRANCH   1  19
ATOM     19  C   UNL     1      46.977   7.962  12.606  0.00  0.00    +0.000 C 
BRANCH  19  20
ATOM     20  N   UNL     1      46.301   7.016  13.516  0.00  0.00    +0.000 N 
ATOM     21  C   UNL     1      45.741   5.921  12.854  0.00  0.00    +0.000 A 
ATOM     22  C   UNL     1      45.050   4.945  13.576  0.00  0.00    +0.000 A 
ATOM     23  N   UNL     1      44.438   3.868  13.010  0.00  0.00    +0.000 NA
ATOM     24  C   UNL     1      44.567   3.811  11.655  0.00  0.00    +0.000 A 
ATOM     25  C   UNL     1      45.262   4.766  10.929  0.00  0.00    +0.000 A 
ATOM     26  N   UNL     1      45.853   5.842  11.505  0.00  0.00    +0.000 NA
ATOM     27  H   UNL     1      45.547   7.460  14.036  0.00  0.00    +0.000 HD
BRANCH  24  28
ATOM     28  C   UNL     1      43.926   2.675  10.948  0.00  0.00    +0.000 C 
ATOM     29  N   UNL     1      44.517   2.237   9.804  0.00  0.00    +0.000 N 
ATOM     30  O   UNL     1      42.921   2.149  11.394  0.00  0.00    +0.000 OA
ATOM     31  H   UNL     1      45.351   2.679   9.439  0.00  0.00    +0.000 HD
ATOM     32  H   UNL     1      44.093   1.460   9.309  0.00  0.00    +0.000 HD
ENDBRANCH  24  28
ENDBRANCH  19  20
ENDBRANCH   1  19
TORSDOF 6
ENDMDL
MODEL 8
REMARK VINA RESULT:    -6.587      3.440      5.411
REMARK INTER + INTRA:          -9.800
REMARK INTER:                  -8.787
REMARK INTRA:                  -1.013
REMARK UNBOUND:                -0.903
REMARK  Name = 
REMARK  9 active torsions:
REMARK  status: ('A' for Active; 'I' for Inactive)
REMARK    1  A    between atoms: C_1  and  C_2
REMARK    2  A    between atoms: C_5  and  N_6
REMARK    3  A    between atoms: N_6  and  C_7
REMARK    4  A    between atoms: C_9  and  C_10
REMARK    5  A    between atoms: C_10  and  C_11
REMARK    6  A    between atoms: C_10  and  C_12
REMARK    7  A    between atoms: C_10  and  C_13
REMARK    8  A    between atoms: C_13  and  N_14
REMARK    9  A    between atoms: C_18  and  C_19
REMARK                            x       y       z     vdW  Elec       q    Type
REMARK                         _______ _______ _______ _____ _____    ______ ____
ROOT
ATOM      1  C   UNL     1      48.902   8.687  13.070  0.00  0.00    +0.000 C 
ATOM      2  C   UNL     1      49.249  10.191  12.958  0.00  0.00    +0.000 C 
ATOM      3  C   UNL     1      49.191   8.009  11.702  0.00  0.00    +0.000 C 
ENDROOT
BRANCH   1   6
ATOM      4  C   UNL     1      49.940   6.415  16.017  0.00  0.00    +0.000 A 
ATOM      5  C   UNL     1      49.256   6.989  14.941  0.00  0.00    +0.000 A 
ATOM      6  C   UNL     1      49.799   8.030  14.154  0.00  0.00    +0.000 A 
ATOM      7  C   UNL     1      51.125   8.429  14.435  0.00  0.00    +0.000 A 
ATOM      8  C   UNL     1      51.855   7.813  15.458  0.00  0.00    +0.000 A 
ATOM      9  C   UNL     1      51.262   6.824  16.238  0.00  0.00    +0.000 A 
ATOM     10  F   UNL     1      51.967   6.282  17.242  0.00  0.00    +0.000 F 
BRANCH   4  11
ATOM     11  N   UNL     1      49.321   5.475  16.880  0.00  0.00    +0.000 N 
ATOM     12  H   UNL     1      49.758   5.441  17.797  0.00  0.00    +0.000 HD
BRANCH  11  17
ATOM     13  C   UNL     1      48.826   2.400  16.731  0.00  0.00    +0.000 C 
ATOM     14  C   UNL     1      47.751   3.473  16.614  0.00  0.00    +0.000 C 
ATOM     15  N   UNL     1      46.850   3.472  17.785  0.00  0.00    +0.000 NA
ATOM     16  C   UNL     1      47.217   4.854  18.131  0.00  0.00    +0.000 C 
ATOM     17  C   UNL     1      47.959   5.008  16.788  0.00  0.00    +0.000 C 
ATOM     18  H   UNL     1      47.073   2.793  18.513  0.00  0.00    +0.000 HD
ENDBRANCH  11  17
ENDBRANCH   4  11
ENDBRANCH   1   6
BRANCH   1  19
ATOM     19  C   UNL     1      47.386   8.546  13.387  0.00  0.00    +0.000 C 
BRANCH  19  20
ATOM     20  N   UNL     1      46.574   8.298  12.179  0.00  0.00    +0.000 N 
ATOM     21  C   UNL     1      45.983   7.033  12.164  0.00  0.00    +0.000 A 
ATOM     22  C   UNL     1      45.197   6.640  11.077  0.00  0.00    +0.000 A 
ATOM     23  N   UNL     1      44.619   5.413  10.958  0.00  0.00    +0.000 NA
ATOM     24  C   UNL     1      44.861   4.585  12.013  0.00  0.00    +0.000 A 
ATOM     25  C   UNL     1      45.628   4.968  13.103  0.00  0.00    +0.000 A 
ATOM     26  N   UNL     1      46.211   6.189  13.200  0.00  0.00    +0.000 NA
ATOM     27  H   UNL     1      47.126   8.373  11.326  0.00  0.00    +0.000 HD
BRANCH  24  28
ATOM     28  C   UNL     1      44.277   3.223  11.970  0.00  0.00    +0.000 C 
ATOM     29  N   UNL     1      44.513   2.477  10.857  0.00  0.00    +0.000 N 
ATOM     30  O   UNL     1      43.628   2.791  12.908  0.00  0.00    +0.000 OA
ATOM     31  H   UNL     1      45.050   2.842  10.081  0.00  0.00    +0.000 HD
ATOM     32  H   UNL     1      44.122   1.542  10.811  0.00  0.00    +0.000 HD
ENDBRANCH  24  28
ENDBRANCH  19  20
ENDBRANCH   1  19
TORSDOF 6
ENDMDL
MODEL 9
REMARK VINA RESULT:    -6.577      3.921      6.463
REMARK INTER + INTRA:          -9.787
REMARK INTER:                  -8.955
REMARK INTRA:                  -0.832
REMARK UNBOUND:                -0.903
REMARK  Name = 
REMARK  9 active torsions:
REMARK  status: ('A' for Active; 'I' for Inactive)
REMARK    1  A    between atoms: C_1  and  C_2
REMARK    2  A    between atoms: C_5  and  N_6
REMARK    3  A    between atoms: N_6  and  C_7
REMARK    4  A    between atoms: C_9  and  C_10
REMARK    5  A    between atoms: C_10  and  C_11
REMARK    6  A    between atoms: C_10  and  C_12
REMARK    7  A    between atoms: C_10  and  C_13
REMARK    8  A    between atoms: C_13  and  N_14
REMARK    9  A    between atoms: C_18  and  C_19
REMARK                            x       y       z     vdW  Elec       q    Type
REMARK                         _______ _______ _______ _____ _____    ______ ____
ROOT
ATOM      1  C   UNL     1      48.179   4.869  16.872  0.00  0.00    +0.000 C 
ATOM      2  C   UNL     1      47.305   5.008  18.142  0.00  0.00    +0.000 C 
ATOM      3  C   UNL     1      48.758   6.266  16.514  0.00  0.00    +0.000 C 
ENDROOT
BRANCH   1   6
ATOM      4  C   UNL     1      51.705   3.662  17.889  0.00  0.00    +0.000 A 
ATOM      5  C   UNL     1      50.551   4.429  17.704  0.00  0.00    +0.000 A 
ATOM      6  C   UNL     1      49.357   3.899  17.161  0.00  0.00    +0.000 A 
ATOM      7  C   UNL     1      49.331   2.515  16.883  0.00  0.00    +0.000 A 
ATOM      8  C   UNL     1      50.452   1.714  17.135  0.00  0.00    +0.000 A 
ATOM      9  C   UNL     1      51.621   2.288  17.626  0.00  0.00    +0.000 A 
ATOM     10  F   UNL     1      52.696   1.508  17.815  0.00  0.00    +0.000 F 
BRANCH   4  11
ATOM     11  N   UNL     1      52.931   4.246  18.299  0.00  0.00    +0.000 N 
ATOM     12  H   UNL     1      53.141   4.067  19.278  0.00  0.00    +0.000 HD
BRANCH  11  17
ATOM     13  C   UNL     1      53.060   7.102  17.056  0.00  0.00    +0.000 C 
ATOM     14  C   UNL     1      54.029   5.966  16.756  0.00  0.00    +0.000 C 
ATOM     15  N   UNL     1      55.375   6.239  17.302  0.00  0.00    +0.000 NA
ATOM     16  C   UNL     1      55.322   5.046  18.161  0.00  0.00    +0.000 C 
ATOM     17  C   UNL     1      54.046   4.566  17.441  0.00  0.00    +0.000 C 
ATOM     18  H   UNL     1      55.473   7.114  17.818  0.00  0.00    +0.000 HD
ENDBRANCH  11  17
ENDBRANCH   4  11
ENDBRANCH   1   6
BRANCH   1  19
ATOM     19  C   UNL     1      47.283   4.384  15.699  0.00  0.00    +0.000 C 
BRANCH  19  20
ATOM     20  N   UNL     1      47.106   5.414  14.656  0.00  0.00    +0.000 N 
ATOM     21  C   UNL     1      46.359   4.967  13.563  0.00  0.00    +0.000 A 
ATOM     22  C   UNL     1      46.120   5.820  12.482  0.00  0.00    +0.000 A 
ATOM     23  N   UNL     1      45.440   5.456  11.360  0.00  0.00    +0.000 NA
ATOM     24  C   UNL     1      44.990   4.170  11.381  0.00  0.00    +0.000 A 
ATOM     25  C   UNL     1      45.209   3.319  12.453  0.00  0.00    +0.000 A 
ATOM     26  N   UNL     1      45.903   3.690  13.558  0.00  0.00    +0.000 NA
ATOM     27  H   UNL     1      47.997   5.739  14.286  0.00  0.00    +0.000 HD
BRANCH  24  28
ATOM     28  C   UNL     1      44.243   3.682  10.196  0.00  0.00    +0.000 C 
ATOM     29  N   UNL     1      44.104   4.538   9.149  0.00  0.00    +0.000 N 
ATOM     30  O   UNL     1      43.793   2.549  10.165  0.00  0.00    +0.000 OA
ATOM     31  H   UNL     1      44.479   5.477   9.181  0.00  0.00    +0.000 HD
ATOM     32  H   UNL     1      43.597   4.220   8.330  0.00  0.00    +0.000 HD
ENDBRANCH  24  28
ENDBRANCH  19  20
ENDBRANCH   1  19
TORSDOF 6
ENDMDL
