MODEL 1
REMARK VINA RESULT:    -8.109      0.000      0.000
REMARK INTER + INTRA:         -11.682
REMARK INTER:                 -10.716
REMARK INTRA:                  -0.966
REMARK UNBOUND:                -0.966
REMARK  Name = 
REMARK  7 active torsions:
REMARK  status: ('A' for Active; 'I' for Inactive)
REMARK    1  A    between atoms: C_1  and  C_2
REMARK    2  A    between atoms: C_2  and  C_3
REMARK    3  A    between atoms: C_7  and  C_8
REMARK    4  A    between atoms: C_8  and  C_9
REMARK    5  A    between atoms: C_9  and  N_10
REMARK    6  A    between atoms: C_14  and  C_15
REMARK    7  A    between atoms: C_23  and  O_24
REMARK                            x       y       z     vdW  Elec       q    Type
REMARK                         _______ _______ _______ _____ _____    ______ ____
ROOT
ATOM      1  C   UNL     1      46.956   6.295  13.002  0.00  0.00    +0.000 A 
ATOM      2  C   UNL     1      47.507   5.135  13.566  0.00  0.00    +0.000 A 
ATOM      3  C   UNL     1      46.755   3.959  13.677  0.00  0.00    +0.000 A 
ATOM      4  C   UNL     1      45.428   3.920  13.244  0.00  0.00    +0.000 A 
ATOM      5  C   UNL     1      44.844   5.052  12.669  0.00  0.00    +0.000 A 
ATOM      6  C   UNL     1      45.640   6.205  12.530  0.00  0.00    +0.000 A 
ENDROOT
BRANCH   1   8
ATOM      7  C   UNL     1      46.644   8.756  12.973  0.00  0.00    +0.000 C 
ATOM      8  C   UNL     1      47.719   7.642  13.001  0.00  0.00    +0.000 C 
ATOM      9  C   UNL     1      48.601   7.758  14.271  0.00  0.00    +0.000 C 
ATOM     10  C   UNL     1      49.490   9.008  14.298  0.00  0.00    +0.000 C 
ATOM     11  C   UNL     1      50.348   9.164  13.047  0.00  0.00    +0.000 C 
ATOM     12  C   UNL     1      49.516   9.070  11.772  0.00  0.00    +0.000 C 
ATOM     13  C   UNL     1      48.640   7.818  11.750  0.00  0.00    +0.000 C 
BRANCH  11  14
ATOM     14  O   UNL     1      51.380   8.182  13.031  0.00  0.00    +0.000 OA
ATOM     15  H   UNL     1      51.015   7.340  12.710  0.00  0.00    +0.000 HD
ENDBRANCH  11  14
ENDBRANCH   1   8
BRANCH   5  16
ATOM     16  C   UNL     1      43.372   5.042  12.275  0.00  0.00    +0.000 C 
BRANCH  16  17
ATOM     17  C   UNL     1      43.118   4.426  10.890  0.00  0.00    +0.000 C 
BRANCH  17  18
ATOM     18  N   UNL     1      43.937   4.997   9.817  0.00  0.00    +0.000 N 
ATOM     19  C   UNL     1      44.721   3.986   9.206  0.00  0.00    +0.000 A 
ATOM     20  C   UNL     1      45.600   4.307   8.165  0.00  0.00    +0.000 A 
ATOM     21  N   UNL     1      46.390   3.405   7.520  0.00  0.00    +0.000 NA
ATOM     22  C   UNL     1      46.256   2.122   7.962  0.00  0.00    +0.000 A 
ATOM     23  C   UNL     1      45.385   1.778   8.981  0.00  0.00    +0.000 A 
ATOM     24  N   UNL     1      44.611   2.693   9.611  0.00  0.00    +0.000 NA
ATOM     25  H   UNL     1      44.561   5.721  10.165  0.00  0.00    +0.000 HD
BRANCH  22  26
ATOM     26  C   UNL     1      47.081   1.065   7.318  0.00  0.00    +0.000 C 
ATOM     27  N   UNL     1      46.775  -0.223   7.664  0.00  0.00    +0.000 N 
ATOM     28  O   UNL     1      47.977   1.323   6.525  0.00  0.00    +0.000 OA
ATOM     29  H   UNL     1      46.035  -0.408   8.332  0.00  0.00    +0.000 HD
ATOM     30  H   UNL     1      47.307  -0.983   7.265  0.00  0.00    +0.000 HD
ENDBRANCH  22  26
ENDBRANCH  17  18
ENDBRANCH  16  17
ENDBRANCH   5  16
TORSDOF 6
ENDMDL
MODEL 2
REMARK VINA RESULT:    -7.368      4.511      7.673
REMARK INTER + INTRA:         -10.704
REMARK INTER:                  -9.497
REMARK INTRA:                  -1.207
REMARK UNBOUND:                -0.966
REMARK  Name = 
REMARK  7 active torsions:
REMARK  status: ('A' for Active; 'I' for Inactive)
REMARK    1  A    between atoms: C_1  and  C_2
REMARK    2  A    between atoms: C_2  and  C_3
REMARK    3  A    between atoms: C_7  and  C_8
REMARK    4  A    between atoms: C_8  and  C_9
REMARK    5  A    between atoms: C_9  and  N_10
REMARK    6  A    between atoms: C_14  and  C_15
REMARK    7  A    between atoms: C_23  and  O_24
REMARK                            x       y       z     vdW  Elec       q    Type
REMARK                         _______ _______ _______ _____ _____    ______ ____
ROOT
ATOM      1  C   UNL     1      45.478   7.185  11.554  0.00  0.00    +0.000 A 
ATOM      2  C   UNL     1      44.578   8.247  11.377  0.00  0.00    +0.000 A 
ATOM      3  C   UNL     1      44.928   9.556  11.728  0.00  0.00    +0.000 A 
ATOM      4  C   UNL     1      46.180   9.833  12.281  0.00  0.00    +0.000 A 
ATOM      5  C   UNL     1      47.109   8.806  12.466  0.00  0.00    +0.000 A 
ATOM      6  C   UNL     1      46.744   7.508  12.062  0.00  0.00    +0.000 A 
ENDROOT
BRANCH   1   8
ATOM      7  C   UNL     1      45.507   5.367   9.867  0.00  0.00    +0.000 C 
ATOM      8  C   UNL     1      45.062   5.714  11.309  0.00  0.00    +0.000 C 
ATOM      9  C   UNL     1      45.755   4.784  12.339  0.00  0.00    +0.000 C 
ATOM     10  C   UNL     1      45.308   3.319  12.251  0.00  0.00    +0.000 C 
ATOM     11  C   UNL     1      43.795   3.146  12.322  0.00  0.00    +0.000 C 
ATOM     12  C   UNL     1      43.074   4.034  11.314  0.00  0.00    +0.000 C 
ATOM     13  C   UNL     1      43.519   5.493  11.413  0.00  0.00    +0.000 C 
BRANCH  11  14
ATOM     14  O   UNL     1      43.328   3.422  13.639  0.00  0.00    +0.000 OA
ATOM     15  H   UNL     1      43.760   2.816  14.265  0.00  0.00    +0.000 HD
ENDBRANCH  11  14
ENDBRANCH   1   8
BRANCH   5  16
ATOM     16  C   UNL     1      48.442   9.087  13.149  0.00  0.00    +0.000 C 
BRANCH  16  17
ATOM     17  C   UNL     1      49.251   7.816  13.447  0.00  0.00    +0.000 C 
BRANCH  17  18
ATOM     18  N   UNL     1      49.812   7.762  14.800  0.00  0.00    +0.000 N 
ATOM     19  C   UNL     1      49.234   6.692  15.530  0.00  0.00    +0.000 A 
ATOM     20  C   UNL     1      49.606   6.463  16.859  0.00  0.00    +0.000 A 
ATOM     21  N   UNL     1      49.106   5.462  17.637  0.00  0.00    +0.000 NA
ATOM     22  C   UNL     1      48.196   4.664  17.008  0.00  0.00    +0.000 A 
ATOM     23  C   UNL     1      47.822   4.863  15.692  0.00  0.00    +0.000 A 
ATOM     24  N   UNL     1      48.330   5.867  14.938  0.00  0.00    +0.000 NA
ATOM     25  H   UNL     1      49.645   8.626  15.311  0.00  0.00    +0.000 HD
BRANCH  22  26
ATOM     26  C   UNL     1      47.593   3.543  17.778  0.00  0.00    +0.000 C 
ATOM     27  N   UNL     1      48.237   3.200  18.936  0.00  0.00    +0.000 N 
ATOM     28  O   UNL     1      46.583   2.959  17.408  0.00  0.00    +0.000 OA
ATOM     29  H   UNL     1      49.079   3.693  19.214  0.00  0.00    +0.000 HD
ATOM     30  H   UNL     1      47.879   2.441  19.497  0.00  0.00    +0.000 HD
ENDBRANCH  22  26
ENDBRANCH  17  18
ENDBRANCH  16  17
ENDBRANCH   5  16
TORSDOF 6
ENDMDL
MODEL 3
REMARK VINA RESULT:    -7.266      1.550      2.533
REMARK INTER + INTRA:         -10.568
REMARK INTER:                  -9.767
REMARK INTRA:                  -0.801
REMARK UNBOUND:                -0.966
REMARK  Name = 
REMARK  7 active torsions:
REMARK  status: ('A' for Active; 'I' for Inactive)
REMARK    1  A    between atoms: C_1  and  C_2
REMARK    2  A    between atoms: C_2  and  C_3
REMARK    3  A    between atoms: C_7  and  C_8
REMARK    4  A    between atoms: C_8  and  C_9
REMARK    5  A    between atoms: C_9  and  N_10
REMARK    6  A    between atoms: C_14  and  C_15
REMARK    7  A    between atoms: C_23  and  O_24
REMARK                            x       y       z     vdW  Elec       q    Type
REMARK                         _______ _______ _______ _____ _____    ______ ____
ROOT
ATOM      1  C   UNL     1      46.358   8.678  12.144  0.00  0.00    +0.000 A 
ATOM      2  C   UNL     1      45.483   9.590  11.535  0.00  0.00    +0.000 A 
ATOM      3  C   UNL     1      44.205   9.199  11.122  0.00  0.00    +0.000 A 
ATOM      4  C   UNL     1      43.776   7.881  11.290  0.00  0.00    +0.000 A 
ATOM      5  C   UNL     1      44.612   6.943  11.900  0.00  0.00    +0.000 A 
ATOM      6  C   UNL     1      45.875   7.378  12.346  0.00  0.00    +0.000 A 
ENDROOT
BRANCH   1   8
ATOM      7  C   UNL     1      48.057  10.468  11.901  0.00  0.00    +0.000 C 
ATOM      8  C   UNL     1      47.823   9.051  12.478  0.00  0.00    +0.000 C 
ATOM      9  C   UNL     1      48.041   9.037  14.014  0.00  0.00    +0.000 C 
ATOM     10  C   UNL     1      49.496   9.276  14.435  0.00  0.00    +0.000 C 
ATOM     11  C   UNL     1      50.483   8.332  13.756  0.00  0.00    +0.000 C 
ATOM     12  C   UNL     1      50.311   8.325  12.241  0.00  0.00    +0.000 C 
ATOM     13  C   UNL     1      48.861   8.079  11.830  0.00  0.00    +0.000 C 
BRANCH  11  14
ATOM     14  O   UNL     1      50.337   7.012  14.271  0.00  0.00    +0.000 OA
ATOM     15  H   UNL     1      49.832   6.475  13.636  0.00  0.00    +0.000 HD
ENDBRANCH  11  14
ENDBRANCH   1   8
BRANCH   5  16
ATOM     16  C   UNL     1      44.184   5.484  12.008  0.00  0.00    +0.000 C 
BRANCH  16  17
ATOM     17  C   UNL     1      43.595   4.926  10.702  0.00  0.00    +0.000 C 
BRANCH  17  18
ATOM     18  N   UNL     1      43.774   3.482  10.529  0.00  0.00    +0.000 N 
ATOM     19  C   UNL     1      44.701   3.223   9.488  0.00  0.00    +0.000 A 
ATOM     20  C   UNL     1      45.011   1.906   9.132  0.00  0.00    +0.000 A 
ATOM     21  N   UNL     1      45.888   1.561   8.148  0.00  0.00    +0.000 NA
ATOM     22  C   UNL     1      46.472   2.621   7.519  0.00  0.00    +0.000 A 
ATOM     23  C   UNL     1      46.191   3.931   7.862  0.00  0.00    +0.000 A 
ATOM     24  N   UNL     1      45.312   4.251   8.842  0.00  0.00    +0.000 NA
ATOM     25  H   UNL     1      42.897   3.019  10.300  0.00  0.00    +0.000 HD
BRANCH  22  26
ATOM     26  C   UNL     1      47.444   2.343   6.428  0.00  0.00    +0.000 C 
ATOM     27  N   UNL     1      47.349   3.148   5.326  0.00  0.00    +0.000 N 
ATOM     28  O   UNL     1      48.283   1.454   6.504  0.00  0.00    +0.000 OA
ATOM     29  H   UNL     1      46.638   3.870   5.284  0.00  0.00    +0.000 HD
ATOM     30  H   UNL     1      47.977   3.002   4.548  0.00  0.00    +0.000 HD
ENDBRANCH  22  26
ENDBRANCH  17  18
ENDBRANCH  16  17
ENDBRANCH   5  16
TORSDOF 6
ENDMDL
MODEL 4
REMARK VINA RESULT:    -7.068      3.748      7.629
REMARK INTER + INTRA:         -10.308
REMARK INTER:                  -9.525
REMARK INTRA:                  -0.782
REMARK UNBOUND:                -0.966
REMARK  Name = 
REMARK  7 active torsions:
REMARK  status: ('A' for Active; 'I' for Inactive)
REMARK    1  A    between atoms: C_1  and  C_2
REMARK    2  A    between atoms: C_2  and  C_3
REMARK    3  A    between atoms: C_7  and  C_8
REMARK    4  A    between atoms: C_8  and  C_9
REMARK    5  A    between atoms: C_9  and  N_10
REMARK    6  A    between atoms: C_14  and  C_15
REMARK    7  A    between atoms: C_23  and  O_24
REMARK                            x       y       z     vdW  Elec       q    Type
REMARK                         _______ _______ _______ _____ _____    ______ ____
ROOT
ATOM      1  C   UNL     1      45.146   4.082   9.466  0.00  0.00    +0.000 A 
ATOM      2  C   UNL     1      44.196   3.588  10.372  0.00  0.00    +0.000 A 
ATOM      3  C   UNL     1      43.997   4.200  11.615  0.00  0.00    +0.000 A 
ATOM      4  C   UNL     1      44.755   5.310  11.990  0.00  0.00    +0.000 A 
ATOM      5  C   UNL     1      45.706   5.840  11.114  0.00  0.00    +0.000 A 
ATOM      6  C   UNL     1      45.852   5.229   9.854  0.00  0.00    +0.000 A 
ENDROOT
BRANCH   1   8
ATOM      7  C   UNL     1      44.136   3.091   7.429  0.00  0.00    +0.000 C 
ATOM      8  C   UNL     1      45.483   3.338   8.151  0.00  0.00    +0.000 C 
ATOM      9  C   UNL     1      46.428   4.203   7.275  0.00  0.00    +0.000 C 
ATOM     10  C   UNL     1      46.915   3.496   6.004  0.00  0.00    +0.000 C 
ATOM     11  C   UNL     1      47.549   2.136   6.276  0.00  0.00    +0.000 C 
ATOM     12  C   UNL     1      46.646   1.247   7.125  0.00  0.00    +0.000 C 
ATOM     13  C   UNL     1      46.172   1.956   8.393  0.00  0.00    +0.000 C 
BRANCH  11  14
ATOM     14  O   UNL     1      48.813   2.299   6.914  0.00  0.00    +0.000 OA
ATOM     15  H   UNL     1      49.383   1.544   6.692  0.00  0.00    +0.000 HD
ENDBRANCH  11  14
ENDBRANCH   1   8
BRANCH   5  16
ATOM     16  C   UNL     1      46.597   6.996  11.551  0.00  0.00    +0.000 C 
BRANCH  16  17
ATOM     17  C   UNL     1      48.023   6.557  11.922  0.00  0.00    +0.000 C 
BRANCH  17  18
ATOM     18  N   UNL     1      48.522   7.129  13.175  0.00  0.00    +0.000 N 
ATOM     19  C   UNL     1      48.212   6.273  14.264  0.00  0.00    +0.000 A 
ATOM     20  C   UNL     1      48.576   6.631  15.567  0.00  0.00    +0.000 A 
ATOM     21  N   UNL     1      48.321   5.874  16.671  0.00  0.00    +0.000 NA
ATOM     22  C   UNL     1      47.676   4.701  16.412  0.00  0.00    +0.000 A 
ATOM     23  C   UNL     1      47.317   4.321  15.131  0.00  0.00    +0.000 A 
ATOM     24  N   UNL     1      47.578   5.091  14.047  0.00  0.00    +0.000 NA
ATOM     25  H   UNL     1      48.116   8.043  13.360  0.00  0.00    +0.000 HD
BRANCH  22  26
ATOM     26  C   UNL     1      47.353   3.808  17.557  0.00  0.00    +0.000 C 
ATOM     27  N   UNL     1      47.934   4.137  18.751  0.00  0.00    +0.000 N 
ATOM     28  O   UNL     1      46.613   2.839  17.447  0.00  0.00    +0.000 OA
ATOM     29  H   UNL     1      48.551   4.938  18.813  0.00  0.00    +0.000 HD
ATOM     30  H   UNL     1      47.758   3.562  19.563  0.00  0.00    +0.000 HD
ENDBRANCH  22  26
ENDBRANCH  17  18
ENDBRANCH  16  17
ENDBRANCH   5  16
TORSDOF 6
ENDMDL
MODEL 5
REMARK VINA RESULT:    -6.847      3.550      5.871
REMARK INTER + INTRA:         -10.015
REMARK INTER:                  -9.083
REMARK INTRA:                  -0.932
REMARK UNBOUND:                -0.966
REMARK  Name = 
REMARK  7 active torsions:
REMARK  status: ('A' for Active; 'I' for Inactive)
REMARK    1  A    between atoms: C_1  and  C_2
REMARK    2  A    between atoms: C_2  and  C_3
REMARK    3  A    between atoms: C_7  and  C_8
REMARK    4  A    between atoms: C_8  and  C_9
REMARK    5  A    between atoms: C_9  and  N_10
REMARK    6  A    between atoms: C_14  and  C_15
REMARK    7  A    between atoms: C_23  and  O_24
REMARK                            x       y       z     vdW  Elec       q    Type
REMARK                         _______ _______ _______ _____ _____    ______ ____
ROOT
ATOM      1  C   UNL     1      48.701   6.682  16.932  0.00  0.00    +0.000 A 
ATOM      2  C   UNL     1      48.675   7.853  17.704  0.00  0.00    +0.000 A 
ATOM      3  C   UNL     1      48.630   9.115  17.099  0.00  0.00    +0.000 A 
ATOM      4  C   UNL     1      48.628   9.237  15.708  0.00  0.00    +0.000 A 
ATOM      5  C   UNL     1      48.645   8.095  14.903  0.00  0.00    +0.000 A 
ATOM      6  C   UNL     1      48.644   6.840  15.541  0.00  0.00    +0.000 A 
ENDROOT
BRANCH   1   8
ATOM      7  C   UNL     1      48.865   5.502  19.108  0.00  0.00    +0.000 C 
ATOM      8  C   UNL     1      48.895   5.287  17.575  0.00  0.00    +0.000 C 
ATOM      9  C   UNL     1      47.757   4.331  17.130  0.00  0.00    +0.000 C 
ATOM     10  C   UNL     1      47.932   2.888  17.621  0.00  0.00    +0.000 C 
ATOM     11  C   UNL     1      49.289   2.291  17.264  0.00  0.00    +0.000 C 
ATOM     12  C   UNL     1      50.439   3.195  17.697  0.00  0.00    +0.000 C 
ATOM     13  C   UNL     1      50.261   4.628  17.198  0.00  0.00    +0.000 C 
BRANCH  11  14
ATOM     14  O   UNL     1      49.365   2.040  15.863  0.00  0.00    +0.000 OA
ATOM     15  H   UNL     1      49.998   1.319  15.702  0.00  0.00    +0.000 HD
ENDBRANCH  11  14
ENDBRANCH   1   8
BRANCH   5  16
ATOM     16  C   UNL     1      48.731   8.222  13.387  0.00  0.00    +0.000 C 
BRANCH  16  17
ATOM     17  C   UNL     1      47.398   8.618  12.734  0.00  0.00    +0.000 C 
BRANCH  17  18
ATOM     18  N   UNL     1      46.219   8.001  13.349  0.00  0.00    +0.000 N 
ATOM     19  C   UNL     1      45.690   6.996  12.499  0.00  0.00    +0.000 A 
ATOM     20  C   UNL     1      44.545   6.285  12.876  0.00  0.00    +0.000 A 
ATOM     21  N   UNL     1      43.967   5.305  12.126  0.00  0.00    +0.000 NA
ATOM     22  C   UNL     1      44.607   5.046  10.950  0.00  0.00    +0.000 A 
ATOM     23  C   UNL     1      45.747   5.726  10.563  0.00  0.00    +0.000 A 
ATOM     24  N   UNL     1      46.303   6.701  11.322  0.00  0.00    +0.000 NA
ATOM     25  H   UNL     1      45.488   8.685  13.531  0.00  0.00    +0.000 HD
BRANCH  22  26
ATOM     26  C   UNL     1      44.048   3.991  10.063  0.00  0.00    +0.000 C 
ATOM     27  N   UNL     1      44.118   4.244   8.720  0.00  0.00    +0.000 N 
ATOM     28  O   UNL     1      43.557   2.957  10.498  0.00  0.00    +0.000 OA
ATOM     29  H   UNL     1      44.520   5.113   8.386  0.00  0.00    +0.000 HD
ATOM     30  H   UNL     1      43.747   3.567   8.068  0.00  0.00    +0.000 HD
ENDBRANCH  22  26
ENDBRANCH  17  18
ENDBRANCH  16  17
ENDBRANCH   5  16
TORSDOF 6
ENDMDL
MODEL 6
REMARK VINA RESULT:    -6.748      5.089      7.829
REMARK INTER + INTRA:          -9.884
REMARK INTER:                  -9.995
REMARK INTRA:                   0.112
REMARK UNBOUND:                -0.966
REMARK  Name = 
REMARK  7 active torsions:
REMARK  status: ('A' for Active; 'I' for Inactive)
REMARK    1  A    between atoms: C_1  and  C_2
REMARK    2  A    between atoms: C_2  and  C_3
REMARK    3  A    between atoms: C_7  and  C_8
REMARK    4  A    between atoms: C_8  and  C_9
REMARK    5  A    between atoms: C_9  and  N_10
REMARK    6  A    between atoms: C_14  and  C_15
REMARK    7  A    between atoms: C_23  and  O_24
REMARK                            x       y       z     vdW  Elec       q    Type
REMARK                         _______ _______ _______ _____ _____    ______ ____
ROOT
ATOM      1  C   UNL     1      46.951   6.130  12.573  0.00  0.00    +0.000 A 
ATOM      2  C   UNL     1      47.462   7.037  11.634  0.00  0.00    +0.000 A 
ATOM      3  C   UNL     1      48.575   7.833  11.931  0.00  0.00    +0.000 A 
ATOM      4  C   UNL     1      49.192   7.754  13.180  0.00  0.00    +0.000 A 
ATOM      5  C   UNL     1      48.719   6.857  14.142  0.00  0.00    +0.000 A 
ATOM      6  C   UNL     1      47.627   6.039  13.797  0.00  0.00    +0.000 A 
ENDROOT
BRANCH   1   8
ATOM      7  C   UNL     1      45.917   3.881  12.735  0.00  0.00    +0.000 C 
ATOM      8  C   UNL     1      45.639   5.347  12.320  0.00  0.00    +0.000 C 
ATOM      9  C   UNL     1      44.486   5.950  13.163  0.00  0.00    +0.000 C 
ATOM     10  C   UNL     1      43.117   5.315  12.886  0.00  0.00    +0.000 C 
ATOM     11  C   UNL     1      42.742   5.313  11.408  0.00  0.00    +0.000 C 
ATOM     12  C   UNL     1      43.847   4.714  10.542  0.00  0.00    +0.000 C 
ATOM     13  C   UNL     1      45.204   5.358  10.819  0.00  0.00    +0.000 C 
BRANCH  11  14
ATOM     14  O   UNL     1      42.444   6.637  10.973  0.00  0.00    +0.000 OA
ATOM     15  H   UNL     1      41.863   6.593  10.194  0.00  0.00    +0.000 HD
ENDBRANCH  11  14
ENDBRANCH   1   8
BRANCH   5  16
ATOM     16  C   UNL     1      49.333   6.829  15.536  0.00  0.00    +0.000 C 
BRANCH  16  17
ATOM     17  C   UNL     1      48.336   6.414  16.630  0.00  0.00    +0.000 C 
BRANCH  17  18
ATOM     18  N   UNL     1      47.874   5.027  16.529  0.00  0.00    +0.000 N 
ATOM     19  C   UNL     1      48.934   4.133  16.824  0.00  0.00    +0.000 A 
ATOM     20  C   UNL     1      48.726   2.750  16.768  0.00  0.00    +0.000 A 
ATOM     21  N   UNL     1      49.683   1.817  17.034  0.00  0.00    +0.000 NA
ATOM     22  C   UNL     1      50.894   2.338  17.382  0.00  0.00    +0.000 A 
ATOM     23  C   UNL     1      51.120   3.700  17.456  0.00  0.00    +0.000 A 
ATOM     24  N   UNL     1      50.155   4.611  17.183  0.00  0.00    +0.000 NA
ATOM     25  H   UNL     1      47.523   4.814  15.598  0.00  0.00    +0.000 HD
BRANCH  22  26
ATOM     26  C   UNL     1      52.003   1.395  17.690  0.00  0.00    +0.000 C 
ATOM     27  N   UNL     1      51.627   0.154  18.123  0.00  0.00    +0.000 N 
ATOM     28  O   UNL     1      53.182   1.703  17.563  0.00  0.00    +0.000 OA
ATOM     29  H   UNL     1      50.644  -0.072  18.229  0.00  0.00    +0.000 HD
ATOM     30  H   UNL     1      52.336  -0.527  18.356  0.00  0.00    +0.000 HD
ENDBRANCH  22  26
ENDBRANCH  17  18
ENDBRANCH  16  17
ENDBRANCH   5  16
TORSDOF 6
ENDMDL
MODEL 7
REMARK VINA RESULT:    -6.517      4.216      6.729
REMARK INTER + INTRA:          -9.579
REMARK INTER:                  -8.334
REMARK INTRA:                  -1.245
REMARK UNBOUND:                -0.966
REMARK  Name = 
REMARK  7 active torsions:
REMARK  status: ('A' for Active; 'I' for Inactive)
REMARK    1  A    between atoms: C_1  and  C_2
REMARK    2  A    between atoms: C_2  and  C_3
REMARK    3  A    between atoms: C_7  and  C_8
REMARK    4  A    between atoms: C_8  and  C_9
REMARK    5  A    between atoms: C_9  and  N_10
REMARK    6  A    between atoms: C_14  and  C_15
REMARK    7  A    between atoms: C_23  and  O_24
REMARK                            x       y       z     vdW  Elec       q    Type
REMARK                         _______ _______ _______ _____ _____    ______ ____
ROOT
ATOM      1  C   UNL     1      48.121   6.705  18.328  0.00  0.00    +0.000 A 
ATOM      2  C   UNL     1      47.692   7.387  19.476  0.00  0.00    +0.000 A 
ATOM      3  C   UNL     1      47.575   8.782  19.484  0.00  0.00    +0.000 A 
ATOM      4  C   UNL     1      47.900   9.530  18.351  0.00  0.00    +0.000 A 
ATOM      5  C   UNL     1      48.323   8.888  17.184  0.00  0.00    +0.000 A 
ATOM      6  C   UNL     1      48.388   7.482  17.193  0.00  0.00    +0.000 A 
ENDROOT
BRANCH   1   8
ATOM      7  C   UNL     1      48.725   4.807  19.806  0.00  0.00    +0.000 C 
ATOM      8  C   UNL     1      48.395   5.181  18.340  0.00  0.00    +0.000 C 
ATOM      9  C   UNL     1      47.145   4.410  17.841  0.00  0.00    +0.000 C 
ATOM     10  C   UNL     1      47.364   2.898  17.703  0.00  0.00    +0.000 C 
ATOM     11  C   UNL     1      48.577   2.540  16.851  0.00  0.00    +0.000 C 
ATOM     12  C   UNL     1      49.834   3.268  17.317  0.00  0.00    +0.000 C 
ATOM     13  C   UNL     1      49.609   4.774  17.444  0.00  0.00    +0.000 C 
BRANCH  11  14
ATOM     14  O   UNL     1      48.321   2.834  15.481  0.00  0.00    +0.000 OA
ATOM     15  H   UNL     1      48.993   3.457  15.157  0.00  0.00    +0.000 HD
ENDBRANCH  11  14
ENDBRANCH   1   8
BRANCH   5  16
ATOM     16  C   UNL     1      48.763   9.703  15.974  0.00  0.00    +0.000 C 
BRANCH  16  17
ATOM     17  C   UNL     1      48.657   8.929  14.650  0.00  0.00    +0.000 C 
BRANCH  17  18
ATOM     18  N   UNL     1      47.366   9.071  13.972  0.00  0.00    +0.000 N 
ATOM     19  C   UNL     1      46.893   7.803  13.545  0.00  0.00    +0.000 A 
ATOM     20  C   UNL     1      45.682   7.700  12.852  0.00  0.00    +0.000 A 
ATOM     21  N   UNL     1      45.150   6.528  12.404  0.00  0.00    +0.000 NA
ATOM     22  C   UNL     1      45.895   5.424  12.697  0.00  0.00    +0.000 A 
ATOM     23  C   UNL     1      47.089   5.501  13.391  0.00  0.00    +0.000 A 
ATOM     24  N   UNL     1      47.602   6.678  13.824  0.00  0.00    +0.000 NA
ATOM     25  H   UNL     1      47.433   9.679  13.158  0.00  0.00    +0.000 HD
BRANCH  22  26
ATOM     26  C   UNL     1      45.395   4.098  12.247  0.00  0.00    +0.000 C 
ATOM     27  N   UNL     1      44.631   4.103  11.112  0.00  0.00    +0.000 N 
ATOM     28  O   UNL     1      45.649   3.061  12.847  0.00  0.00    +0.000 OA
ATOM     29  H   UNL     1      44.427   4.977  10.640  0.00  0.00    +0.000 HD
ATOM     30  H   UNL     1      44.256   3.232  10.763  0.00  0.00    +0.000 HD
ENDBRANCH  22  26
ENDBRANCH  17  18
ENDBRANCH  16  17
ENDBRANCH   5  16
TORSDOF 6
ENDMDL
MODEL 8
REMARK VINA RESULT:    -5.989      5.114      6.527
REMARK INTER + INTRA:          -8.881
REMARK INTER:                  -8.069
REMARK INTRA:                  -0.812
REMARK UNBOUND:                -0.966
REMARK  Name = 
REMARK  7 active torsions:
REMARK  status: ('A' for Active; 'I' for Inactive)
REMARK    1  A    between atoms: C_1  and  C_2
REMARK    2  A    between atoms: C_2  and  C_3
REMARK    3  A    between atoms: C_7  and  C_8
REMARK    4  A    between atoms: C_8  and  C_9
REMARK    5  A    between atoms: C_9  and  N_10
REMARK    6  A    between atoms: C_14  and  C_15
REMARK    7  A    between atoms: C_23  and  O_24
REMARK                            x       y       z     vdW  Elec       q    Type
REMARK                         _______ _______ _______ _____ _____    ______ ____
ROOT
ATOM      1  C   UNL     1      50.060   5.519  19.012  0.00  0.00    +0.000 A 
ATOM      2  C   UNL     1      49.359   6.522  19.699  0.00  0.00    +0.000 A 
ATOM      3  C   UNL     1      47.962   6.587  19.651  0.00  0.00    +0.000 A 
ATOM      4  C   UNL     1      47.232   5.662  18.901  0.00  0.00    +0.000 A 
ATOM      5  C   UNL     1      47.891   4.643  18.210  0.00  0.00    +0.000 A 
ATOM      6  C   UNL     1      49.293   4.577  18.314  0.00  0.00    +0.000 A 
ENDROOT
BRANCH   1   8
ATOM      7  C   UNL     1      52.075   6.912  19.405  0.00  0.00    +0.000 C 
ATOM      8  C   UNL     1      51.606   5.513  18.934  0.00  0.00    +0.000 C 
ATOM      9  C   UNL     1      52.183   4.401  19.848  0.00  0.00    +0.000 C 
ATOM     10  C   UNL     1      53.705   4.239  19.742  0.00  0.00    +0.000 C 
ATOM     11  C   UNL     1      54.193   4.047  18.310  0.00  0.00    +0.000 C 
ATOM     12  C   UNL     1      53.658   5.130  17.378  0.00  0.00    +0.000 C 
ATOM     13  C   UNL     1      52.141   5.279  17.484  0.00  0.00    +0.000 C 
BRANCH  11  14
ATOM     14  O   UNL     1      53.817   2.759  17.829  0.00  0.00    +0.000 OA
ATOM     15  H   UNL     1      54.202   2.078  18.406  0.00  0.00    +0.000 HD
ENDBRANCH  11  14
ENDBRANCH   1   8
BRANCH   5  16
ATOM     16  C   UNL     1      47.108   3.685  17.321  0.00  0.00    +0.000 C 
BRANCH  16  17
ATOM     17  C   UNL     1      47.494   3.781  15.836  0.00  0.00    +0.000 C 
BRANCH  17  18
ATOM     18  N   UNL     1      47.064   5.020  15.182  0.00  0.00    +0.000 N 
ATOM     19  C   UNL     1      46.390   4.727  13.968  0.00  0.00    +0.000 A 
ATOM     20  C   UNL     1      45.909   5.764  13.162  0.00  0.00    +0.000 A 
ATOM     21  N   UNL     1      45.251   5.578  11.983  0.00  0.00    +0.000 NA
ATOM     22  C   UNL     1      45.077   4.271  11.636  0.00  0.00    +0.000 A 
ATOM     23  C   UNL     1      45.533   3.230  12.423  0.00  0.00    +0.000 A 
ATOM     24  N   UNL     1      46.189   3.437  13.591  0.00  0.00    +0.000 NA
ATOM     25  H   UNL     1      47.853   5.628  14.972  0.00  0.00    +0.000 HD
BRANCH  22  26
ATOM     26  C   UNL     1      44.370   3.970  10.362  0.00  0.00    +0.000 C 
ATOM     27  N   UNL     1      44.621   4.824   9.324  0.00  0.00    +0.000 N 
ATOM     28  O   UNL     1      43.610   3.016  10.241  0.00  0.00    +0.000 OA
ATOM     29  H   UNL     1      45.246   5.612   9.454  0.00  0.00    +0.000 HD
ATOM     30  H   UNL     1      44.163   4.675   8.436  0.00  0.00    +0.000 HD
ENDBRANCH  22  26
ENDBRANCH  17  18
ENDBRANCH  16  17
ENDBRANCH   5  16
TORSDOF 6
ENDMDL
MODEL 9
REMARK VINA RESULT:    -5.762      3.532      5.955
REMARK INTER + INTRA:          -8.581
REMARK INTER:                  -7.842
REMARK INTRA:                  -0.739
REMARK UNBOUND:                -0.966
REMARK  Name = 
REMARK  7 active torsions:
REMARK  status: ('A' for Active; 'I' for Inactive)
REMARK    1  A    between atoms: C_1  and  C_2
REMARK    2  A    between atoms: C_2  and  C_3
REMARK    3  A    between atoms: C_7  and  C_8
REMARK    4  A    between atoms: C_8  and  C_9
REMARK    5  A    between atoms: C_9  and  N_10
REMARK    6  A    between atoms: C_14  and  C_15
REMARK    7  A    between atoms: C_23  and  O_24
REMARK                            x       y       z     vdW  Elec       q    Type
REMARK                         _______ _______ _______ _____ _____    ______ ____
ROOT
ATOM      1  C   UNL     1      51.270   9.295  10.989  0.00  0.00    +0.000 A 
ATOM      2  C   UNL     1      50.665  10.478  10.539  0.00  0.00    +0.000 A 
ATOM      3  C   UNL     1      49.538  11.002  11.181  0.00  0.00    +0.000 A 
ATOM      4  C   UNL     1      48.975  10.347  12.278  0.00  0.00    +0.000 A 
ATOM      5  C   UNL     1      49.552   9.170  12.764  0.00  0.00    +0.000 A 
ATOM      6  C   UNL     1      50.711   8.692  12.125  0.00  0.00    +0.000 A 
ENDROOT
BRANCH   1   8
ATOM      7  C   UNL     1      53.692   8.770  11.090  0.00  0.00    +0.000 C 
ATOM      8  C   UNL     1      52.426   8.622  10.210  0.00  0.00    +0.000 C 
ATOM      9  C   UNL     1      52.101   7.127   9.957  0.00  0.00    +0.000 C 
ATOM     10  C   UNL     1      53.136   6.406   9.084  0.00  0.00    +0.000 C 
ATOM     11  C   UNL     1      53.408   7.116   7.762  0.00  0.00    +0.000 C 
ATOM     12  C   UNL     1      53.745   8.589   7.966  0.00  0.00    +0.000 C 
ATOM     13  C   UNL     1      52.705   9.300   8.830  0.00  0.00    +0.000 C 
BRANCH  11  14
ATOM     14  O   UNL     1      52.285   6.987   6.893  0.00  0.00    +0.000 OA
ATOM     15  H   UNL     1      51.522   7.443   7.288  0.00  0.00    +0.000 HD
ENDBRANCH  11  14
ENDBRANCH   1   8
BRANCH   5  16
ATOM     16  C   UNL     1      48.893   8.404  13.905  0.00  0.00    +0.000 C 
BRANCH  16  17
ATOM     17  C   UNL     1      47.622   7.653  13.477  0.00  0.00    +0.000 C 
BRANCH  17  18
ATOM     18  N   UNL     1      47.499   6.306  14.041  0.00  0.00    +0.000 N 
ATOM     19  C   UNL     1      46.625   5.519  13.248  0.00  0.00    +0.000 A 
ATOM     20  C   UNL     1      46.342   4.198  13.612  0.00  0.00    +0.000 A 
ATOM     21  N   UNL     1      45.516   3.369  12.913  0.00  0.00    +0.000 NA
ATOM     22  C   UNL     1      44.976   3.926  11.792  0.00  0.00    +0.000 A 
ATOM     23  C   UNL     1      45.251   5.226  11.407  0.00  0.00    +0.000 A 
ATOM     24  N   UNL     1      46.072   6.035  12.119  0.00  0.00    +0.000 NA
ATOM     25  H   UNL     1      47.138   6.328  14.992  0.00  0.00    +0.000 HD
BRANCH  22  26
ATOM     26  C   UNL     1      44.060   3.097  10.965  0.00  0.00    +0.000 C 
ATOM     27  N   UNL     1      44.419   2.940   9.654  0.00  0.00    +0.000 N 
ATOM     28  O   UNL     1      43.047   2.581  11.421  0.00  0.00    +0.000 OA
ATOM     29  H   UNL     1      45.257   3.387   9.299  0.00  0.00    +0.000 HD
ATOM     30  H   UNL     1      43.831   2.394   9.041  0.00  0.00    +0.000 HD
ENDBRANCH  22  26
ENDBRANCH  17  18
ENDBRANCH  16  17
ENDBRANCH   5  16
TORSDOF 6
ENDMDL
