MODEL 1
REMARK VINA RESULT:    -8.538      0.000      0.000
REMARK INTER + INTRA:         -11.275
REMARK INTER:                 -10.784
REMARK INTRA:                  -0.491
REMARK UNBOUND:                -0.491
REMARK  Name = 
REMARK  5 active torsions:
REMARK  status: ('A' for Active; 'I' for Inactive)
REMARK    1  A    between atoms: N_1  and  C_2
REMARK    2  A    between atoms: C_2  and  C_3
REMARK    3  A    between atoms: C_6  and  C_7
REMARK    4  A    between atoms: C_7  and  N_8
REMARK    5  A    between atoms: C_13  and  C_14
REMARK                            x       y       z     vdW  Elec       q    Type
REMARK                         _______ _______ _______ _____ _____    ______ ____
ROOT
ATOM      1  N   UNL     1      44.529   5.167  11.065  0.00  0.00    +0.000 N 
ATOM      2  N   UNL     1      44.488   6.518  11.005  0.00  0.00    +0.000 NA
ATOM      3  C   UNL     1      45.173   6.905  12.082  0.00  0.00    +0.000 A 
ATOM      4  C   UNL     1      45.697   5.819  12.813  0.00  0.00    +0.000 A 
ATOM      5  C   UNL     1      46.468   5.671  13.969  0.00  0.00    +0.000 A 
ATOM      6  C   UNL     1      46.769   4.365  14.331  0.00  0.00    +0.000 A 
ATOM      7  N   UNL     1      46.376   3.252  13.642  0.00  0.00    +0.000 NA
ATOM      8  C   UNL     1      45.622   3.406  12.526  0.00  0.00    +0.000 A 
ATOM      9  C   UNL     1      45.280   4.689  12.115  0.00  0.00    +0.000 A 
ENDROOT
BRANCH   6  10
ATOM     10  C   UNL     1      47.575   4.129  15.572  0.00  0.00    +0.000 C 
ATOM     11  N   UNL     1      47.538   5.132  16.502  0.00  0.00    +0.000 N 
ATOM     12  O   UNL     1      48.230   3.108  15.754  0.00  0.00    +0.000 OA
ATOM     13  H   UNL     1      46.997   5.968  16.315  0.00  0.00    +0.000 HD
ATOM     14  H   UNL     1      48.078   5.044  17.350  0.00  0.00    +0.000 HD
ENDBRANCH   6  10
BRANCH   1  15
ATOM     15  C   UNL     1      43.830   4.392  10.042  0.00  0.00    +0.000 C 
BRANCH  15  19
ATOM     16  C   UNL     1      46.645   2.284   7.500  0.00  0.00    +0.000 A 
ATOM     17  C   UNL     1      45.811   1.581   8.379  0.00  0.00    +0.000 A 
ATOM     18  C   UNL     1      44.890   2.258   9.183  0.00  0.00    +0.000 A 
ATOM     19  C   UNL     1      44.790   3.656   9.138  0.00  0.00    +0.000 A 
ATOM     20  C   UNL     1      45.595   4.356   8.227  0.00  0.00    +0.000 A 
ATOM     21  C   UNL     1      46.514   3.676   7.420  0.00  0.00    +0.000 A 
BRANCH  16  22
ATOM     22  C   UNL     1      47.696   1.561   6.696  0.00  0.00    +0.000 C 
BRANCH  22  23
ATOM     23  N   UNL     1      48.638   2.479   6.070  0.00  0.00    +0.000 NA
ATOM     24  H   UNL     1      49.289   1.949   5.494  0.00  0.00    +0.000 HD
ATOM     25  H   UNL     1      49.193   2.927   6.797  0.00  0.00    +0.000 HD
ENDBRANCH  22  23
ENDBRANCH  16  22
ENDBRANCH  15  19
ENDBRANCH   1  15
TORSDOF 5
ENDMDL
MODEL 2
REMARK VINA RESULT:    -8.205      2.305      3.135
REMARK INTER + INTRA:         -10.854
REMARK INTER:                 -10.443
REMARK INTRA:                  -0.411
REMARK UNBOUND:                -0.491
REMARK  Name = 
REMARK  5 active torsions:
REMARK  status: ('A' for Active; 'I' for Inactive)
REMARK    1  A    between atoms: N_1  and  C_2
REMARK    2  A    between atoms: C_2  and  C_3
REMARK    3  A    between atoms: C_6  and  C_7
REMARK    4  A    between atoms: C_7  and  N_8
REMARK    5  A    between atoms: C_13  and  C_14
REMARK                            x       y       z     vdW  Elec       q    Type
REMARK                         _______ _______ _______ _____ _____    ______ ____
ROOT
ATOM      1  N   UNL     1      44.962   3.584  11.560  0.00  0.00    +0.000 N 
ATOM      2  N   UNL     1      45.648   2.859  12.472  0.00  0.00    +0.000 NA
ATOM      3  C   UNL     1      46.233   3.782  13.237  0.00  0.00    +0.000 A 
ATOM      4  C   UNL     1      45.894   5.097  12.858  0.00  0.00    +0.000 A 
ATOM      5  C   UNL     1      46.208   6.381  13.312  0.00  0.00    +0.000 A 
ATOM      6  C   UNL     1      45.618   7.428  12.618  0.00  0.00    +0.000 A 
ATOM      7  N   UNL     1      44.768   7.283  11.558  0.00  0.00    +0.000 NA
ATOM      8  C   UNL     1      44.475   6.035  11.120  0.00  0.00    +0.000 A 
ATOM      9  C   UNL     1      45.041   4.943  11.768  0.00  0.00    +0.000 A 
ENDROOT
BRANCH   6  10
ATOM     10  C   UNL     1      45.927   8.834  13.036  0.00  0.00    +0.000 C 
ATOM     11  N   UNL     1      46.731   8.961  14.135  0.00  0.00    +0.000 N 
ATOM     12  O   UNL     1      45.491   9.813  12.441  0.00  0.00    +0.000 OA
ATOM     13  H   UNL     1      47.064   8.132  14.611  0.00  0.00    +0.000 HD
ATOM     14  H   UNL     1      46.958   9.883  14.481  0.00  0.00    +0.000 HD
ENDBRANCH   6  10
BRANCH   1  15
ATOM     15  C   UNL     1      44.218   2.885  10.514  0.00  0.00    +0.000 C 
BRANCH  15  19
ATOM     16  C   UNL     1      46.522   2.689   6.842  0.00  0.00    +0.000 A 
ATOM     17  C   UNL     1      46.352   1.551   7.640  0.00  0.00    +0.000 A 
ATOM     18  C   UNL     1      45.593   1.608   8.811  0.00  0.00    +0.000 A 
ATOM     19  C   UNL     1      44.997   2.810   9.222  0.00  0.00    +0.000 A 
ATOM     20  C   UNL     1      45.133   3.939   8.401  0.00  0.00    +0.000 A 
ATOM     21  C   UNL     1      45.889   3.878   7.226  0.00  0.00    +0.000 A 
BRANCH  16  22
ATOM     22  C   UNL     1      47.411   2.647   5.625  0.00  0.00    +0.000 C 
BRANCH  22  23
ATOM     23  N   UNL     1      48.518   1.712   5.784  0.00  0.00    +0.000 NA
ATOM     24  H   UNL     1      48.174   0.763   5.656  0.00  0.00    +0.000 HD
ATOM     25  H   UNL     1      48.860   1.770   6.741  0.00  0.00    +0.000 HD
ENDBRANCH  22  23
ENDBRANCH  16  22
ENDBRANCH  15  19
ENDBRANCH   1  15
TORSDOF 5
ENDMDL
MODEL 3
REMARK VINA RESULT:    -7.952      1.698      2.355
REMARK INTER + INTRA:         -10.535
REMARK INTER:                 -10.000
REMARK INTRA:                  -0.535
REMARK UNBOUND:                -0.491
REMARK  Name = 
REMARK  5 active torsions:
REMARK  status: ('A' for Active; 'I' for Inactive)
REMARK    1  A    between atoms: N_1  and  C_2
REMARK    2  A    between atoms: C_2  and  C_3
REMARK    3  A    between atoms: C_6  and  C_7
REMARK    4  A    between atoms: C_7  and  N_8
REMARK    5  A    between atoms: C_13  and  C_14
REMARK                            x       y       z     vdW  Elec       q    Type
REMARK                         _______ _______ _______ _____ _____    ______ ____
ROOT
ATOM      1  N   UNL     1      44.302   4.492  11.162  0.00  0.00    +0.000 N 
ATOM      2  N   UNL     1      43.597   3.807  12.091  0.00  0.00    +0.000 NA
ATOM      3  C   UNL     1      44.229   4.080  13.234  0.00  0.00    +0.000 A 
ATOM      4  C   UNL     1      45.307   4.973  13.060  0.00  0.00    +0.000 A 
ATOM      5  C   UNL     1      46.254   5.571  13.895  0.00  0.00    +0.000 A 
ATOM      6  C   UNL     1      47.157   6.422  13.272  0.00  0.00    +0.000 A 
ATOM      7  N   UNL     1      47.168   6.707  11.936  0.00  0.00    +0.000 NA
ATOM      8  C   UNL     1      46.251   6.116  11.133  0.00  0.00    +0.000 A 
ATOM      9  C   UNL     1      45.323   5.246  11.695  0.00  0.00    +0.000 A 
ENDROOT
BRANCH   6  10
ATOM     10  C   UNL     1      48.215   7.083  14.103  0.00  0.00    +0.000 C 
ATOM     11  N   UNL     1      47.811   8.181  14.812  0.00  0.00    +0.000 N 
ATOM     12  O   UNL     1      49.371   6.677  14.150  0.00  0.00    +0.000 OA
ATOM     13  H   UNL     1      46.852   8.498  14.741  0.00  0.00    +0.000 HD
ATOM     14  H   UNL     1      48.482   8.685  15.373  0.00  0.00    +0.000 HD
ENDBRANCH   6  10
BRANCH   1  15
ATOM     15  C   UNL     1      43.910   4.389   9.758  0.00  0.00    +0.000 C 
BRANCH  15  19
ATOM     16  C   UNL     1      46.673   2.014   7.401  0.00  0.00    +0.000 A 
ATOM     17  C   UNL     1      46.598   3.403   7.229  0.00  0.00    +0.000 A 
ATOM     18  C   UNL     1      45.723   4.170   8.002  0.00  0.00    +0.000 A 
ATOM     19  C   UNL     1      44.892   3.566   8.957  0.00  0.00    +0.000 A 
ATOM     20  C   UNL     1      44.998   2.183   9.158  0.00  0.00    +0.000 A 
ATOM     21  C   UNL     1      45.878   1.416   8.386  0.00  0.00    +0.000 A 
BRANCH  16  22
ATOM     22  C   UNL     1      47.555   1.178   6.508  0.00  0.00    +0.000 C 
BRANCH  22  23
ATOM     23  N   UNL     1      48.496   1.990   5.748  0.00  0.00    +0.000 NA
ATOM     24  H   UNL     1      48.688   2.848   6.262  0.00  0.00    +0.000 HD
ATOM     25  H   UNL     1      48.057   2.269   4.872  0.00  0.00    +0.000 HD
ENDBRANCH  22  23
ENDBRANCH  16  22
ENDBRANCH  15  19
ENDBRANCH   1  15
TORSDOF 5
ENDMDL
MODEL 4
REMARK VINA RESULT:    -7.743      2.704      6.774
REMARK INTER + INTRA:         -10.270
REMARK INTER:                  -9.863
REMARK INTRA:                  -0.407
REMARK UNBOUND:                -0.491
REMARK  Name = 
REMARK  5 active torsions:
REMARK  status: ('A' for Active; 'I' for Inactive)
REMARK    1  A    between atoms: N_1  and  C_2
REMARK    2  A    between atoms: C_2  and  C_3
REMARK    3  A    between atoms: C_6  and  C_7
REMARK    4  A    between atoms: C_7  and  N_8
REMARK    5  A    between atoms: C_13  and  C_14
REMARK                            x       y       z     vdW  Elec       q    Type
REMARK                         _______ _______ _______ _____ _____    ______ ____
ROOT
ATOM      1  N   UNL     1      43.936   4.297  10.490  0.00  0.00    +0.000 N 
ATOM      2  N   UNL     1      43.438   3.177  11.063  0.00  0.00    +0.000 NA
ATOM      3  C   UNL     1      44.011   2.187  10.377  0.00  0.00    +0.000 A 
ATOM      4  C   UNL     1      44.911   2.654   9.397  0.00  0.00    +0.000 A 
ATOM      5  C   UNL     1      45.750   2.064   8.448  0.00  0.00    +0.000 A 
ATOM      6  C   UNL     1      46.493   2.941   7.670  0.00  0.00    +0.000 A 
ATOM      7  N   UNL     1      46.462   4.303   7.780  0.00  0.00    +0.000 NA
ATOM      8  C   UNL     1      45.640   4.866   8.698  0.00  0.00    +0.000 A 
ATOM      9  C   UNL     1      44.862   4.042   9.503  0.00  0.00    +0.000 A 
ENDROOT
BRANCH   6  10
ATOM     10  C   UNL     1      47.399   2.379   6.617  0.00  0.00    +0.000 C 
ATOM     11  N   UNL     1      47.378   3.026   5.411  0.00  0.00    +0.000 N 
ATOM     12  O   UNL     1      48.116   1.403   6.810  0.00  0.00    +0.000 OA
ATOM     13  H   UNL     1      46.765   3.822   5.280  0.00  0.00    +0.000 HD
ATOM     14  H   UNL     1      47.949   2.683   4.652  0.00  0.00    +0.000 HD
ENDBRANCH   6  10
BRANCH   1  15
ATOM     15  C   UNL     1      43.485   5.601  10.972  0.00  0.00    +0.000 C 
BRANCH  15  19
ATOM     16  C   UNL     1      46.636   7.664  13.127  0.00  0.00    +0.000 A 
ATOM     17  C   UNL     1      45.716   8.379  12.349  0.00  0.00    +0.000 A 
ATOM     18  C   UNL     1      44.689   7.717  11.672  0.00  0.00    +0.000 A 
ATOM     19  C   UNL     1      44.565   6.321  11.744  0.00  0.00    +0.000 A 
ATOM     20  C   UNL     1      45.460   5.611  12.556  0.00  0.00    +0.000 A 
ATOM     21  C   UNL     1      46.485   6.276  13.238  0.00  0.00    +0.000 A 
BRANCH  16  22
ATOM     22  C   UNL     1      47.793   8.369  13.788  0.00  0.00    +0.000 C 
BRANCH  22  23
ATOM     23  N   UNL     1      47.396   9.046  15.016  0.00  0.00    +0.000 NA
ATOM     24  H   UNL     1      47.313   8.359  15.763  0.00  0.00    +0.000 HD
ATOM     25  H   UNL     1      46.469   9.446  14.885  0.00  0.00    +0.000 HD
ENDBRANCH  22  23
ENDBRANCH  16  22
ENDBRANCH  15  19
ENDBRANCH   1  15
TORSDOF 5
ENDMDL
MODEL 5
REMARK VINA RESULT:    -6.442      1.938      2.452
REMARK INTER + INTRA:          -8.627
REMARK INTER:                  -8.274
REMARK INTRA:                  -0.353
REMARK UNBOUND:                -0.491
REMARK  Name = 
REMARK  5 active torsions:
REMARK  status: ('A' for Active; 'I' for Inactive)
REMARK    1  A    between atoms: N_1  and  C_2
REMARK    2  A    between atoms: C_2  and  C_3
REMARK    3  A    between atoms: C_6  and  C_7
REMARK    4  A    between atoms: C_7  and  N_8
REMARK    5  A    between atoms: C_13  and  C_14
REMARK                            x       y       z     vdW  Elec       q    Type
REMARK                         _______ _______ _______ _____ _____    ______ ____
ROOT
ATOM      1  N   UNL     1      44.994   6.168  12.055  0.00  0.00    +0.000 N 
ATOM      2  N   UNL     1      44.628   7.399  11.628  0.00  0.00    +0.000 NA
ATOM      3  C   UNL     1      45.495   8.215  12.229  0.00  0.00    +0.000 A 
ATOM      4  C   UNL     1      46.448   7.522  13.003  0.00  0.00    +0.000 A 
ATOM      5  C   UNL     1      47.542   7.878  13.797  0.00  0.00    +0.000 A 
ATOM      6  C   UNL     1      48.228   6.825  14.387  0.00  0.00    +0.000 A 
ATOM      7  N   UNL     1      47.914   5.503  14.235  0.00  0.00    +0.000 NA
ATOM      8  C   UNL     1      46.847   5.169  13.469  0.00  0.00    +0.000 A 
ATOM      9  C   UNL     1      46.113   6.178  12.857  0.00  0.00    +0.000 A 
ENDROOT
BRANCH   6  10
ATOM     10  C   UNL     1      49.399   7.133  15.270  0.00  0.00    +0.000 C 
ATOM     11  N   UNL     1      49.645   8.462  15.485  0.00  0.00    +0.000 N 
ATOM     12  O   UNL     1      50.100   6.260  15.770  0.00  0.00    +0.000 OA
ATOM     13  H   UNL     1      49.054   9.158  15.046  0.00  0.00    +0.000 HD
ATOM     14  H   UNL     1      50.434   8.736  16.053  0.00  0.00    +0.000 HD
ENDBRANCH   6  10
BRANCH   1  15
ATOM     15  C   UNL     1      44.220   5.008  11.619  0.00  0.00    +0.000 C 
BRANCH  15  19
ATOM     16  C   UNL     1      45.756   3.283   7.946  0.00  0.00    +0.000 A 
ATOM     17  C   UNL     1      46.018   4.620   8.271  0.00  0.00    +0.000 A 
ATOM     18  C   UNL     1      45.541   5.170   9.464  0.00  0.00    +0.000 A 
ATOM     19  C   UNL     1      44.778   4.400  10.354  0.00  0.00    +0.000 A 
ATOM     20  C   UNL     1      44.552   3.051  10.048  0.00  0.00    +0.000 A 
ATOM     21  C   UNL     1      45.034   2.500   8.856  0.00  0.00    +0.000 A 
BRANCH  16  22
ATOM     22  C   UNL     1      46.198   2.715   6.621  0.00  0.00    +0.000 C 
BRANCH  22  23
ATOM     23  N   UNL     1      47.131   3.596   5.929  0.00  0.00    +0.000 NA
ATOM     24  H   UNL     1      47.014   4.545   6.277  0.00  0.00    +0.000 HD
ATOM     25  H   UNL     1      46.889   3.618   4.940  0.00  0.00    +0.000 HD
ENDBRANCH  22  23
ENDBRANCH  16  22
ENDBRANCH  15  19
ENDBRANCH   1  15
TORSDOF 5
ENDMDL
MODEL 6
REMARK VINA RESULT:    -6.099      3.269      7.486
REMARK INTER + INTRA:          -8.195
REMARK INTER:                  -7.925
REMARK INTRA:                  -0.270
REMARK UNBOUND:                -0.491
REMARK  Name = 
REMARK  5 active torsions:
REMARK  status: ('A' for Active; 'I' for Inactive)
REMARK    1  A    between atoms: N_1  and  C_2
REMARK    2  A    between atoms: C_2  and  C_3
REMARK    3  A    between atoms: C_6  and  C_7
REMARK    4  A    between atoms: C_7  and  N_8
REMARK    5  A    between atoms: C_13  and  C_14
REMARK                            x       y       z     vdW  Elec       q    Type
REMARK                         _______ _______ _______ _____ _____    ______ ____
ROOT
ATOM      1  N   UNL     1      47.385   5.109  15.146  0.00  0.00    +0.000 N 
ATOM      2  N   UNL     1      48.325   6.067  14.973  0.00  0.00    +0.000 NA
ATOM      3  C   UNL     1      48.134   6.477  13.719  0.00  0.00    +0.000 A 
ATOM      4  C   UNL     1      47.050   5.828  13.093  0.00  0.00    +0.000 A 
ATOM      5  C   UNL     1      46.437   5.889  11.838  0.00  0.00    +0.000 A 
ATOM      6  C   UNL     1      45.351   5.044  11.655  0.00  0.00    +0.000 A 
ATOM      7  N   UNL     1      44.855   4.191  12.601  0.00  0.00    +0.000 NA
ATOM      8  C   UNL     1      45.460   4.134  13.812  0.00  0.00    +0.000 A 
ATOM      9  C   UNL     1      46.559   4.950  14.056  0.00  0.00    +0.000 A 
ENDROOT
BRANCH   6  10
ATOM     10  C   UNL     1      44.658   5.039  10.326  0.00  0.00    +0.000 C 
ATOM     11  N   UNL     1      45.476   5.104   9.232  0.00  0.00    +0.000 N 
ATOM     12  O   UNL     1      43.438   4.984  10.215  0.00  0.00    +0.000 OA
ATOM     13  H   UNL     1      46.480   5.162   9.359  0.00  0.00    +0.000 HD
ATOM     14  H   UNL     1      45.070   5.128   8.308  0.00  0.00    +0.000 HD
ENDBRANCH   6  10
BRANCH   1  15
ATOM     15  C   UNL     1      47.326   4.396  16.420  0.00  0.00    +0.000 C 
BRANCH  15  19
ATOM     16  C   UNL     1      51.034   2.366  17.399  0.00  0.00    +0.000 A 
ATOM     17  C   UNL     1      50.021   1.703  16.693  0.00  0.00    +0.000 A 
ATOM     18  C   UNL     1      48.836   2.363  16.360  0.00  0.00    +0.000 A 
ATOM     19  C   UNL     1      48.627   3.698  16.737  0.00  0.00    +0.000 A 
ATOM     20  C   UNL     1      49.658   4.373  17.406  0.00  0.00    +0.000 A 
ATOM     21  C   UNL     1      50.846   3.712  17.736  0.00  0.00    +0.000 A 
BRANCH  16  22
ATOM     22  C   UNL     1      52.275   1.628  17.832  0.00  0.00    +0.000 C 
BRANCH  22  23
ATOM     23  N   UNL     1      51.997   0.241  18.183  0.00  0.00    +0.000 NA
ATOM     24  H   UNL     1      51.615   0.206  19.126  0.00  0.00    +0.000 HD
ATOM     25  H   UNL     1      52.876  -0.274  18.207  0.00  0.00    +0.000 HD
ENDBRANCH  22  23
ENDBRANCH  16  22
ENDBRANCH  15  19
ENDBRANCH   1  15
TORSDOF 5
ENDMDL
MODEL 7
REMARK VINA RESULT:    -5.834      4.225      6.412
REMARK INTER + INTRA:          -7.859
REMARK INTER:                  -7.337
REMARK INTRA:                  -0.523
REMARK UNBOUND:                -0.491
REMARK  Name = 
REMARK  5 active torsions:
REMARK  status: ('A' for Active; 'I' for Inactive)
REMARK    1  A    between atoms: N_1  and  C_2
REMARK    2  A    between atoms: C_2  and  C_3
REMARK    3  A    between atoms: C_6  and  C_7
REMARK    4  A    between atoms: C_7  and  N_8
REMARK    5  A    between atoms: C_13  and  C_14
REMARK                            x       y       z     vdW  Elec       q    Type
REMARK                         _______ _______ _______ _____ _____    ______ ____
ROOT
ATOM      1  N   UNL     1      47.259   6.546  13.446  0.00  0.00    +0.000 N 
ATOM      2  N   UNL     1      47.789   5.867  14.489  0.00  0.00    +0.000 NA
ATOM      3  C   UNL     1      47.229   4.660  14.401  0.00  0.00    +0.000 A 
ATOM      4  C   UNL     1      46.377   4.536  13.283  0.00  0.00    +0.000 A 
ATOM      5  C   UNL     1      45.584   3.523  12.739  0.00  0.00    +0.000 A 
ATOM      6  C   UNL     1      44.896   3.852  11.579  0.00  0.00    +0.000 A 
ATOM      7  N   UNL     1      44.954   5.065  10.953  0.00  0.00    +0.000 NA
ATOM      8  C   UNL     1      45.721   6.043  11.492  0.00  0.00    +0.000 A 
ATOM      9  C   UNL     1      46.429   5.779  12.659  0.00  0.00    +0.000 A 
ENDROOT
BRANCH   6  10
ATOM     10  C   UNL     1      44.007   2.821  10.951  0.00  0.00    +0.000 C 
ATOM     11  N   UNL     1      44.439   2.317   9.754  0.00  0.00    +0.000 N 
ATOM     12  O   UNL     1      42.959   2.448  11.465  0.00  0.00    +0.000 OA
ATOM     13  H   UNL     1      45.303   2.657   9.350  0.00  0.00    +0.000 HD
ATOM     14  H   UNL     1      43.874   1.636   9.269  0.00  0.00    +0.000 HD
ENDBRANCH   6  10
BRANCH   1  15
ATOM     15  C   UNL     1      47.625   7.948  13.253  0.00  0.00    +0.000 C 
BRANCH  15  19
ATOM     16  C   UNL     1      51.758   8.310  11.981  0.00  0.00    +0.000 A 
ATOM     17  C   UNL     1      50.786   7.793  11.113  0.00  0.00    +0.000 A 
ATOM     18  C   UNL     1      49.451   7.696  11.516  0.00  0.00    +0.000 A 
ATOM     19  C   UNL     1      49.058   8.099  12.800  0.00  0.00    +0.000 A 
ATOM     20  C   UNL     1      50.023   8.655  13.652  0.00  0.00    +0.000 A 
ATOM     21  C   UNL     1      51.358   8.756  13.246  0.00  0.00    +0.000 A 
BRANCH  16  22
ATOM     22  C   UNL     1      53.210   8.335  11.577  0.00  0.00    +0.000 C 
BRANCH  22  23
ATOM     23  N   UNL     1      53.688   7.024  11.159  0.00  0.00    +0.000 NA
ATOM     24  H   UNL     1      53.664   6.968  10.143  0.00  0.00    +0.000 HD
ATOM     25  H   UNL     1      53.043   6.314  11.503  0.00  0.00    +0.000 HD
ENDBRANCH  22  23
ENDBRANCH  16  22
ENDBRANCH  15  19
ENDBRANCH   1  15
TORSDOF 5
ENDMDL
MODEL 8
REMARK VINA RESULT:    -5.794      3.884      8.043
REMARK INTER + INTRA:          -7.809
REMARK INTER:                  -7.270
REMARK INTRA:                  -0.539
REMARK UNBOUND:                -0.491
REMARK  Name = 
REMARK  5 active torsions:
REMARK  status: ('A' for Active; 'I' for Inactive)
REMARK    1  A    between atoms: N_1  and  C_2
REMARK    2  A    between atoms: C_2  and  C_3
REMARK    3  A    between atoms: C_6  and  C_7
REMARK    4  A    between atoms: C_7  and  N_8
REMARK    5  A    between atoms: C_13  and  C_14
REMARK                            x       y       z     vdW  Elec       q    Type
REMARK                         _______ _______ _______ _____ _____    ______ ____
ROOT
ATOM      1  N   UNL     1      47.751   6.767  13.991  0.00  0.00    +0.000 N 
ATOM      2  N   UNL     1      47.400   8.002  13.565  0.00  0.00    +0.000 NA
ATOM      3  C   UNL     1      46.303   7.788  12.837  0.00  0.00    +0.000 A 
ATOM      4  C   UNL     1      45.913   6.432  12.827  0.00  0.00    +0.000 A 
ATOM      5  C   UNL     1      44.874   5.695  12.253  0.00  0.00    +0.000 A 
ATOM      6  C   UNL     1      44.877   4.334  12.525  0.00  0.00    +0.000 A 
ATOM      7  N   UNL     1      45.800   3.694  13.304  0.00  0.00    +0.000 NA
ATOM      8  C   UNL     1      46.808   4.416  13.850  0.00  0.00    +0.000 A 
ATOM      9  C   UNL     1      46.867   5.784  13.608  0.00  0.00    +0.000 A 
ENDROOT
BRANCH   6  10
ATOM     10  C   UNL     1      43.804   3.477  11.925  0.00  0.00    +0.000 C 
ATOM     11  N   UNL     1      43.704   2.210  12.434  0.00  0.00    +0.000 N 
ATOM     12  O   UNL     1      43.060   3.872  11.034  0.00  0.00    +0.000 OA
ATOM     13  H   UNL     1      44.343   1.910  13.160  0.00  0.00    +0.000 HD
ATOM     14  H   UNL     1      43.016   1.576  12.056  0.00  0.00    +0.000 HD
ENDBRANCH   6  10
BRANCH   1  15
ATOM     15  C   UNL     1      48.960   6.613  14.798  0.00  0.00    +0.000 C 
BRANCH  15  19
ATOM     16  C   UNL     1      48.017   6.744  19.032  0.00  0.00    +0.000 A 
ATOM     17  C   UNL     1      48.049   5.524  18.345  0.00  0.00    +0.000 A 
ATOM     18  C   UNL     1      48.373   5.479  16.986  0.00  0.00    +0.000 A 
ATOM     19  C   UNL     1      48.658   6.656  16.278  0.00  0.00    +0.000 A 
ATOM     20  C   UNL     1      48.668   7.871  16.976  0.00  0.00    +0.000 A 
ATOM     21  C   UNL     1      48.348   7.914  18.337  0.00  0.00    +0.000 A 
BRANCH  16  22
ATOM     22  C   UNL     1      47.585   6.800  20.475  0.00  0.00    +0.000 C 
BRANCH  22  23
ATOM     23  N   UNL     1      47.161   5.498  20.973  0.00  0.00    +0.000 NA
ATOM     24  H   UNL     1      46.152   5.412  20.863  0.00  0.00    +0.000 HD
ATOM     25  H   UNL     1      47.348   5.452  21.973  0.00  0.00    +0.000 HD
ENDBRANCH  22  23
ENDBRANCH  16  22
ENDBRANCH  15  19
ENDBRANCH   1  15
TORSDOF 5
ENDMDL
MODEL 9
REMARK VINA RESULT:    -5.686      4.095      6.051
REMARK INTER + INTRA:          -7.673
REMARK INTER:                  -7.146
REMARK INTRA:                  -0.527
REMARK UNBOUND:                -0.491
REMARK  Name = 
REMARK  5 active torsions:
REMARK  status: ('A' for Active; 'I' for Inactive)
REMARK    1  A    between atoms: N_1  and  C_2
REMARK    2  A    between atoms: C_2  and  C_3
REMARK    3  A    between atoms: C_6  and  C_7
REMARK    4  A    between atoms: C_7  and  N_8
REMARK    5  A    between atoms: C_13  and  C_14
REMARK                            x       y       z     vdW  Elec       q    Type
REMARK                         _______ _______ _______ _____ _____    ______ ____
ROOT
ATOM      1  N   UNL     1      46.075   7.710  12.634  0.00  0.00    +0.000 N 
ATOM      2  N   UNL     1      45.287   8.620  12.018  0.00  0.00    +0.000 NA
ATOM      3  C   UNL     1      44.419   7.876  11.331  0.00  0.00    +0.000 A 
ATOM      4  C   UNL     1      44.607   6.494  11.534  0.00  0.00    +0.000 A 
ATOM      5  C   UNL     1      43.991   5.324  11.082  0.00  0.00    +0.000 A 
ATOM      6  C   UNL     1      44.521   4.136  11.567  0.00  0.00    +0.000 A 
ATOM      7  N   UNL     1      45.570   4.045  12.439  0.00  0.00    +0.000 NA
ATOM      8  C   UNL     1      46.165   5.185  12.866  0.00  0.00    +0.000 A 
ATOM      9  C   UNL     1      45.686   6.408  12.411  0.00  0.00    +0.000 A 
ENDROOT
BRANCH   6  10
ATOM     10  C   UNL     1      43.924   2.840  11.108  0.00  0.00    +0.000 C 
ATOM     11  N   UNL     1      44.493   2.288   9.993  0.00  0.00    +0.000 N 
ATOM     12  O   UNL     1      42.985   2.302  11.684  0.00  0.00    +0.000 OA
ATOM     13  H   UNL     1      45.260   2.765   9.533  0.00  0.00    +0.000 HD
ATOM     14  H   UNL     1      44.122   1.426   9.620  0.00  0.00    +0.000 HD
ENDBRANCH   6  10
BRANCH   1  15
ATOM     15  C   UNL     1      47.187   8.178  13.459  0.00  0.00    +0.000 C 
BRANCH  15  19
ATOM     16  C   UNL     1      50.749   9.070  11.147  0.00  0.00    +0.000 A 
ATOM     17  C   UNL     1      50.391   7.744  11.424  0.00  0.00    +0.000 A 
ATOM     18  C   UNL     1      49.233   7.456  12.150  0.00  0.00    +0.000 A 
ATOM     19  C   UNL     1      48.412   8.487  12.631  0.00  0.00    +0.000 A 
ATOM     20  C   UNL     1      48.749   9.812  12.317  0.00  0.00    +0.000 A 
ATOM     21  C   UNL     1      49.906  10.099  11.585  0.00  0.00    +0.000 A 
BRANCH  16  22
ATOM     22  C   UNL     1      52.043   9.382  10.437  0.00  0.00    +0.000 C 
BRANCH  22  23
ATOM     23  N   UNL     1      52.718   8.179   9.970  0.00  0.00    +0.000 NA
ATOM     24  H   UNL     1      52.313   7.368  10.432  0.00  0.00    +0.000 HD
ATOM     25  H   UNL     1      53.695   8.218  10.257  0.00  0.00    +0.000 HD
ENDBRANCH  22  23
ENDBRANCH  16  22
ENDBRANCH  15  19
ENDBRANCH   1  15
TORSDOF 5
ENDMDL
