MODEL 1
REMARK VINA RESULT:    -9.184      0.000      0.000
REMARK INTER + INTRA:         -12.484
REMARK INTER:                 -11.868
REMARK INTRA:                  -0.616
REMARK UNBOUND:                -0.616
REMARK  Name = 
REMARK  5 active torsions:
REMARK  status: ('A' for Active; 'I' for Inactive)
REMARK    1  A    between atoms: C_2  and  C_4
REMARK    2  A    between atoms: C_7  and  C_8
REMARK    3  A    between atoms: C_8  and  S_9
REMARK    4  A    between atoms: S_9  and  C_10
REMARK    5  A    between atoms: C_15  and  C_16
REMARK                            x       y       z     vdW  Elec       q    Type
REMARK                         _______ _______ _______ _____ _____    ______ ____
ROOT
ATOM      1  C   UNL     1      45.132   5.016  12.449  0.00  0.00    +0.000 A 
ATOM      2  C   UNL     1      45.906   5.930  11.734  0.00  0.00    +0.000 A 
ATOM      3  C   UNL     1      47.116   6.368  12.264  0.00  0.00    +0.000 A 
ATOM      4  F   UNL     1      47.866   7.227  11.560  0.00  0.00    +0.000 F 
ATOM      5  C   UNL     1      47.578   5.910  13.494  0.00  0.00    +0.000 A 
ATOM      6  C   UNL     1      46.816   4.998  14.234  0.00  0.00    +0.000 A 
ATOM      7  C   UNL     1      45.593   4.558  13.693  0.00  0.00    +0.000 A 
ENDROOT
BRANCH   6   8
ATOM      8  C   UNL     1      47.310   4.430  15.553  0.00  0.00    +0.000 C 
ATOM      9  C   UNL     1      48.321   5.358  16.248  0.00  0.00    +0.000 C 
ATOM     10  C   UNL     1      48.804   4.751  17.565  0.00  0.00    +0.000 C 
ATOM     11  C   UNL     1      49.312   3.329  17.350  0.00  0.00    +0.000 C 
ATOM     12  C   UNL     1      48.287   2.477  16.604  0.00  0.00    +0.000 C 
ATOM     13  N   UNL     1      47.894   3.098  15.339  0.00  0.00    +0.000 NA
ATOM     14  H   UNL     1      47.205   2.506  14.874  0.00  0.00    +0.000 HD
ENDBRANCH   6   8
BRANCH   1  15
ATOM     15  S   UNL     1      43.650   4.275  11.787  0.00  0.00    +0.000 S 
BRANCH  15  16
ATOM     16  C   UNL     1      43.697   4.805  10.033  0.00  0.00    +0.000 C 
BRANCH  16  20
ATOM     17  C   UNL     1      46.436   2.471   7.717  0.00  0.00    +0.000 A 
ATOM     18  C   UNL     1      45.633   1.829   8.656  0.00  0.00    +0.000 A 
ATOM     19  C   UNL     1      44.745   2.583   9.424  0.00  0.00    +0.000 A 
ATOM     20  C   UNL     1      44.668   3.965   9.227  0.00  0.00    +0.000 A 
ATOM     21  N   UNL     1      45.463   4.606   8.332  0.00  0.00    +0.000 NA
ATOM     22  C   UNL     1      46.329   3.851   7.605  0.00  0.00    +0.000 A 
BRANCH  17  24
ATOM     23  N   UNL     1      48.493   2.454   6.423  0.00  0.00    +0.000 N 
ATOM     24  C   UNL     1      47.403   1.752   6.861  0.00  0.00    +0.000 C 
ATOM     25  O   UNL     1      47.255   0.572   6.578  0.00  0.00    +0.000 OA
ATOM     26  H   UNL     1      49.197   1.923   5.923  0.00  0.00    +0.000 HD
ATOM     27  H   UNL     1      48.778   3.332   6.833  0.00  0.00    +0.000 HD
ENDBRANCH  17  24
ENDBRANCH  16  20
ENDBRANCH  15  16
ENDBRANCH   1  15
TORSDOF 5
ENDMDL
MODEL 2
REMARK VINA RESULT:    -8.655      1.028      1.547
REMARK INTER + INTRA:         -11.801
REMARK INTER:                 -11.183
REMARK INTRA:                  -0.618
REMARK UNBOUND:                -0.616
REMARK  Name = 
REMARK  5 active torsions:
REMARK  status: ('A' for Active; 'I' for Inactive)
REMARK    1  A    between atoms: C_2  and  C_4
REMARK    2  A    between atoms: C_7  and  C_8
REMARK    3  A    between atoms: C_8  and  S_9
REMARK    4  A    between atoms: S_9  and  C_10
REMARK    5  A    between atoms: C_15  and  C_16
REMARK                            x       y       z     vdW  Elec       q    Type
REMARK                         _______ _______ _______ _____ _____    ______ ____
ROOT
ATOM      1  C   UNL     1      45.376   4.996  12.544  0.00  0.00    +0.000 A 
ATOM      2  C   UNL     1      45.977   5.966  11.740  0.00  0.00    +0.000 A 
ATOM      3  C   UNL     1      47.154   6.575  12.163  0.00  0.00    +0.000 A 
ATOM      4  F   UNL     1      47.738   7.487  11.375  0.00  0.00    +0.000 F 
ATOM      5  C   UNL     1      47.755   6.234  13.372  0.00  0.00    +0.000 A 
ATOM      6  C   UNL     1      47.168   5.269  14.199  0.00  0.00    +0.000 A 
ATOM      7  C   UNL     1      45.977   4.656  13.766  0.00  0.00    +0.000 A 
ENDROOT
BRANCH   6   8
ATOM      8  C   UNL     1      47.819   4.827  15.498  0.00  0.00    +0.000 C 
ATOM      9  C   UNL     1      47.084   3.642  16.148  0.00  0.00    +0.000 C 
ATOM     10  C   UNL     1      47.759   3.232  17.456  0.00  0.00    +0.000 C 
ATOM     11  C   UNL     1      47.930   4.437  18.376  0.00  0.00    +0.000 C 
ATOM     12  C   UNL     1      48.610   5.598  17.655  0.00  0.00    +0.000 C 
ATOM     13  N   UNL     1      47.896   5.961  16.431  0.00  0.00    +0.000 NA
ATOM     14  H   UNL     1      48.384   6.732  15.973  0.00  0.00    +0.000 HD
ENDBRANCH   6   8
BRANCH   1  15
ATOM     15  S   UNL     1      43.959   4.047  12.021  0.00  0.00    +0.000 S 
BRANCH  15  16
ATOM     16  C   UNL     1      43.770   4.557  10.271  0.00  0.00    +0.000 C 
BRANCH  16  20
ATOM     17  C   UNL     1      46.414   2.327   7.749  0.00  0.00    +0.000 A 
ATOM     18  C   UNL     1      46.360   3.712   7.610  0.00  0.00    +0.000 A 
ATOM     19  C   UNL     1      45.493   4.446   8.420  0.00  0.00    +0.000 A 
ATOM     20  C   UNL     1      44.706   3.781   9.364  0.00  0.00    +0.000 A 
ATOM     21  N   UNL     1      44.730   2.430   9.492  0.00  0.00    +0.000 NA
ATOM     22  C   UNL     1      45.573   1.735   8.683  0.00  0.00    +0.000 A 
BRANCH  17  24
ATOM     23  N   UNL     1      48.396   2.067   6.367  0.00  0.00    +0.000 N 
ATOM     24  C   UNL     1      47.302   1.471   6.935  0.00  0.00    +0.000 C 
ATOM     25  O   UNL     1      47.089   0.276   6.796  0.00  0.00    +0.000 OA
ATOM     26  H   UNL     1      49.049   1.451   5.898  0.00  0.00    +0.000 HD
ATOM     27  H   UNL     1      48.739   2.970   6.660  0.00  0.00    +0.000 HD
ENDBRANCH  17  24
ENDBRANCH  16  20
ENDBRANCH  15  16
ENDBRANCH   1  15
TORSDOF 5
ENDMDL
MODEL 3
REMARK VINA RESULT:    -8.530      2.222      3.757
REMARK INTER + INTRA:         -11.639
REMARK INTER:                 -10.781
REMARK INTRA:                  -0.858
REMARK UNBOUND:                -0.616
REMARK  Name = 
REMARK  5 active torsions:
REMARK  status: ('A' for Active; 'I' for Inactive)
REMARK    1  A    between atoms: C_2  and  C_4
REMARK    2  A    between atoms: C_7  and  C_8
REMARK    3  A    between atoms: C_8  and  S_9
REMARK    4  A    between atoms: S_9  and  C_10
REMARK    5  A    between atoms: C_15  and  C_16
REMARK                            x       y       z     vdW  Elec       q    Type
REMARK                         _______ _______ _______ _____ _____    ______ ____
ROOT
ATOM      1  C   UNL     1      45.041   4.554  12.452  0.00  0.00    +0.000 A 
ATOM      2  C   UNL     1      45.742   3.632  13.231  0.00  0.00    +0.000 A 
ATOM      3  C   UNL     1      46.898   4.032  13.895  0.00  0.00    +0.000 A 
ATOM      4  F   UNL     1      47.552   3.149  14.660  0.00  0.00    +0.000 F 
ATOM      5  C   UNL     1      47.371   5.338  13.806  0.00  0.00    +0.000 A 
ATOM      6  C   UNL     1      46.689   6.280  13.026  0.00  0.00    +0.000 A 
ATOM      7  C   UNL     1      45.520   5.869  12.357  0.00  0.00    +0.000 A 
ENDROOT
BRANCH   6   8
ATOM      8  C   UNL     1      47.139   7.728  12.948  0.00  0.00    +0.000 C 
ATOM      9  C   UNL     1      46.100   8.627  12.254  0.00  0.00    +0.000 C 
ATOM     10  C   UNL     1      46.590  10.073  12.183  0.00  0.00    +0.000 C 
ATOM     11  C   UNL     1      47.982  10.141  11.565  0.00  0.00    +0.000 C 
ATOM     12  C   UNL     1      48.948   9.184  12.258  0.00  0.00    +0.000 C 
ATOM     13  N   UNL     1      48.436   7.814  12.261  0.00  0.00    +0.000 NA
ATOM     14  H   UNL     1      49.102   7.207  12.739  0.00  0.00    +0.000 HD
ENDBRANCH   6   8
BRANCH   1  15
ATOM     15  S   UNL     1      43.469   4.184  11.694  0.00  0.00    +0.000 S 
BRANCH  15  16
ATOM     16  C   UNL     1      43.692   4.829   9.994  0.00  0.00    +0.000 C 
BRANCH  16  20
ATOM     17  C   UNL     1      46.443   2.466   7.720  0.00  0.00    +0.000 A 
ATOM     18  C   UNL     1      45.620   1.833   8.649  0.00  0.00    +0.000 A 
ATOM     19  C   UNL     1      44.729   2.596   9.403  0.00  0.00    +0.000 A 
ATOM     20  C   UNL     1      44.668   3.979   9.202  0.00  0.00    +0.000 A 
ATOM     21  N   UNL     1      45.481   4.611   8.318  0.00  0.00    +0.000 NA
ATOM     22  C   UNL     1      46.350   3.848   7.606  0.00  0.00    +0.000 A 
BRANCH  17  24
ATOM     23  N   UNL     1      48.510   2.433   6.444  0.00  0.00    +0.000 N 
ATOM     24  C   UNL     1      47.415   1.737   6.880  0.00  0.00    +0.000 C 
ATOM     25  O   UNL     1      47.267   0.555   6.607  0.00  0.00    +0.000 OA
ATOM     26  H   UNL     1      49.217   1.896   5.955  0.00  0.00    +0.000 HD
ATOM     27  H   UNL     1      48.793   3.314   6.848  0.00  0.00    +0.000 HD
ENDBRANCH  17  24
ENDBRANCH  16  20
ENDBRANCH  15  16
ENDBRANCH   1  15
TORSDOF 5
ENDMDL
MODEL 4
REMARK VINA RESULT:    -8.213      2.451      3.040
REMARK INTER + INTRA:         -11.230
REMARK INTER:                 -10.539
REMARK INTRA:                  -0.690
REMARK UNBOUND:                -0.616
REMARK  Name = 
REMARK  5 active torsions:
REMARK  status: ('A' for Active; 'I' for Inactive)
REMARK    1  A    between atoms: C_2  and  C_4
REMARK    2  A    between atoms: C_7  and  C_8
REMARK    3  A    between atoms: C_8  and  S_9
REMARK    4  A    between atoms: S_9  and  C_10
REMARK    5  A    between atoms: C_15  and  C_16
REMARK                            x       y       z     vdW  Elec       q    Type
REMARK                         _______ _______ _______ _____ _____    ______ ____
ROOT
ATOM      1  C   UNL     1      44.993   5.654  12.333  0.00  0.00    +0.000 A 
ATOM      2  C   UNL     1      44.293   6.582  11.561  0.00  0.00    +0.000 A 
ATOM      3  C   UNL     1      44.700   7.912  11.548  0.00  0.00    +0.000 A 
ATOM      4  F   UNL     1      44.038   8.792  10.786  0.00  0.00    +0.000 F 
ATOM      5  C   UNL     1      45.799   8.342  12.286  0.00  0.00    +0.000 A 
ATOM      6  C   UNL     1      46.515   7.432  13.074  0.00  0.00    +0.000 A 
ATOM      7  C   UNL     1      46.098   6.087  13.082  0.00  0.00    +0.000 A 
ENDROOT
BRANCH   6   8
ATOM      8  C   UNL     1      47.753   7.847  13.849  0.00  0.00    +0.000 C 
ATOM      9  C   UNL     1      48.424   6.659  14.560  0.00  0.00    +0.000 C 
ATOM     10  C   UNL     1      49.658   7.115  15.338  0.00  0.00    +0.000 C 
ATOM     11  C   UNL     1      49.314   8.278  16.262  0.00  0.00    +0.000 C 
ATOM     12  C   UNL     1      48.598   9.396  15.509  0.00  0.00    +0.000 C 
ATOM     13  N   UNL     1      47.409   8.900  14.816  0.00  0.00    +0.000 NA
ATOM     14  H   UNL     1      46.964   9.671  14.318  0.00  0.00    +0.000 HD
ENDBRANCH   6   8
BRANCH   1  15
ATOM     15  S   UNL     1      44.650   3.904  12.292  0.00  0.00    +0.000 S 
BRANCH  15  16
ATOM     16  C   UNL     1      43.771   3.715  10.695  0.00  0.00    +0.000 C 
BRANCH  16  20
ATOM     17  C   UNL     1      46.498   2.743   7.544  0.00  0.00    +0.000 A 
ATOM     18  C   UNL     1      46.146   4.076   7.741  0.00  0.00    +0.000 A 
ATOM     19  C   UNL     1      45.249   4.401   8.759  0.00  0.00    +0.000 A 
ATOM     20  C   UNL     1      44.732   3.386   9.569  0.00  0.00    +0.000 A 
ATOM     21  N   UNL     1      45.047   2.081   9.371  0.00  0.00    +0.000 NA
ATOM     22  C   UNL     1      45.913   1.788   8.365  0.00  0.00    +0.000 A 
BRANCH  17  24
ATOM     23  N   UNL     1      47.374   2.954   5.287  0.00  0.00    +0.000 N 
ATOM     24  C   UNL     1      47.441   2.308   6.492  0.00  0.00    +0.000 C 
ATOM     25  O   UNL     1      48.267   1.430   6.694  0.00  0.00    +0.000 OA
ATOM     26  H   UNL     1      48.090   2.716   4.610  0.00  0.00    +0.000 HD
ATOM     27  H   UNL     1      46.894   3.834   5.165  0.00  0.00    +0.000 HD
ENDBRANCH  17  24
ENDBRANCH  16  20
ENDBRANCH  15  16
ENDBRANCH   1  15
TORSDOF 5
ENDMDL
MODEL 5
REMARK VINA RESULT:    -7.857      3.182      7.795
REMARK INTER + INTRA:         -10.770
REMARK INTER:                 -10.241
REMARK INTRA:                  -0.529
REMARK UNBOUND:                -0.616
REMARK  Name = 
REMARK  5 active torsions:
REMARK  status: ('A' for Active; 'I' for Inactive)
REMARK    1  A    between atoms: C_2  and  C_4
REMARK    2  A    between atoms: C_7  and  C_8
REMARK    3  A    between atoms: C_8  and  S_9
REMARK    4  A    between atoms: S_9  and  C_10
REMARK    5  A    between atoms: C_15  and  C_16
REMARK                            x       y       z     vdW  Elec       q    Type
REMARK                         _______ _______ _______ _____ _____    ______ ____
ROOT
ATOM      1  C   UNL     1      44.751   5.225  10.844  0.00  0.00    +0.000 A 
ATOM      2  C   UNL     1      43.961   4.374  11.619  0.00  0.00    +0.000 A 
ATOM      3  C   UNL     1      43.698   3.083  11.172  0.00  0.00    +0.000 A 
ATOM      4  F   UNL     1      42.960   2.265  11.933  0.00  0.00    +0.000 F 
ATOM      5  C   UNL     1      44.211   2.614   9.966  0.00  0.00    +0.000 A 
ATOM      6  C   UNL     1      45.001   3.450   9.167  0.00  0.00    +0.000 A 
ATOM      7  C   UNL     1      45.264   4.755   9.625  0.00  0.00    +0.000 A 
ENDROOT
BRANCH   6   8
ATOM      8  C   UNL     1      45.627   2.960   7.873  0.00  0.00    +0.000 C 
ATOM      9  C   UNL     1      46.425   1.658   8.065  0.00  0.00    +0.000 C 
ATOM     10  C   UNL     1      47.048   1.200   6.747  0.00  0.00    +0.000 C 
ATOM     11  C   UNL     1      47.849   2.331   6.108  0.00  0.00    +0.000 C 
ATOM     12  C   UNL     1      47.020   3.609   6.001  0.00  0.00    +0.000 C 
ATOM     13  N   UNL     1      46.482   4.009   7.300  0.00  0.00    +0.000 NA
ATOM     14  H   UNL     1      45.929   4.860   7.188  0.00  0.00    +0.000 HD
ENDBRANCH   6   8
BRANCH   1  15
ATOM     15  S   UNL     1      45.275   6.836  11.402  0.00  0.00    +0.000 S 
BRANCH  15  16
ATOM     16  C   UNL     1      47.054   6.569  11.752  0.00  0.00    +0.000 C 
BRANCH  16  20
ATOM     17  C   UNL     1      47.707   5.117  15.725  0.00  0.00    +0.000 A 
ATOM     18  C   UNL     1      46.924   4.363  14.854  0.00  0.00    +0.000 A 
ATOM     19  C   UNL     1      46.697   4.834  13.560  0.00  0.00    +0.000 A 
ATOM     20  C   UNL     1      47.269   6.045  13.159  0.00  0.00    +0.000 A 
ATOM     21  N   UNL     1      48.013   6.801  14.006  0.00  0.00    +0.000 NA
ATOM     22  C   UNL     1      48.210   6.327  15.265  0.00  0.00    +0.000 A 
BRANCH  17  24
ATOM     23  N   UNL     1      47.025   4.903  18.047  0.00  0.00    +0.000 N 
ATOM     24  C   UNL     1      48.001   4.695  17.110  0.00  0.00    +0.000 C 
ATOM     25  O   UNL     1      49.057   4.155  17.406  0.00  0.00    +0.000 OA
ATOM     26  H   UNL     1      47.198   4.518  18.969  0.00  0.00    +0.000 HD
ATOM     27  H   UNL     1      46.066   5.105  17.802  0.00  0.00    +0.000 HD
ENDBRANCH  17  24
ENDBRANCH  16  20
ENDBRANCH  15  16
ENDBRANCH   1  15
TORSDOF 5
ENDMDL
MODEL 6
REMARK VINA RESULT:    -7.850      3.074      7.426
REMARK INTER + INTRA:         -10.761
REMARK INTER:                 -10.005
REMARK INTRA:                  -0.756
REMARK UNBOUND:                -0.616
REMARK  Name = 
REMARK  5 active torsions:
REMARK  status: ('A' for Active; 'I' for Inactive)
REMARK    1  A    between atoms: C_2  and  C_4
REMARK    2  A    between atoms: C_7  and  C_8
REMARK    3  A    between atoms: C_8  and  S_9
REMARK    4  A    between atoms: S_9  and  C_10
REMARK    5  A    between atoms: C_15  and  C_16
REMARK                            x       y       z     vdW  Elec       q    Type
REMARK                         _______ _______ _______ _____ _____    ______ ____
ROOT
ATOM      1  C   UNL     1      45.287   6.644  11.770  0.00  0.00    +0.000 A 
ATOM      2  C   UNL     1      44.194   6.364  12.590  0.00  0.00    +0.000 A 
ATOM      3  C   UNL     1      43.349   5.305  12.271  0.00  0.00    +0.000 A 
ATOM      4  F   UNL     1      42.316   5.027  13.076  0.00  0.00    +0.000 F 
ATOM      5  C   UNL     1      43.572   4.511  11.150  0.00  0.00    +0.000 A 
ATOM      6  C   UNL     1      44.659   4.776  10.308  0.00  0.00    +0.000 A 
ATOM      7  C   UNL     1      45.511   5.848  10.636  0.00  0.00    +0.000 A 
ENDROOT
BRANCH   6   8
ATOM      8  C   UNL     1      44.972   3.900   9.107  0.00  0.00    +0.000 C 
ATOM      9  C   UNL     1      45.369   2.470   9.514  0.00  0.00    +0.000 C 
ATOM     10  C   UNL     1      45.686   1.621   8.284  0.00  0.00    +0.000 C 
ATOM     11  C   UNL     1      46.709   2.320   7.394  0.00  0.00    +0.000 C 
ATOM     12  C   UNL     1      46.286   3.752   7.077  0.00  0.00    +0.000 C 
ATOM     13  N   UNL     1      46.031   4.518   8.297  0.00  0.00    +0.000 NA
ATOM     14  H   UNL     1      45.743   5.465   8.045  0.00  0.00    +0.000 HD
ENDBRANCH   6   8
BRANCH   1  15
ATOM     15  S   UNL     1      46.515   7.873  12.178  0.00  0.00    +0.000 S 
BRANCH  15  16
ATOM     16  C   UNL     1      48.019   6.857  12.426  0.00  0.00    +0.000 C 
BRANCH  16  20
ATOM     17  C   UNL     1      47.672   4.420  15.927  0.00  0.00    +0.000 A 
ATOM     18  C   UNL     1      48.241   5.686  16.043  0.00  0.00    +0.000 A 
ATOM     19  C   UNL     1      48.369   6.483  14.905  0.00  0.00    +0.000 A 
ATOM     20  C   UNL     1      47.911   6.003  13.675  0.00  0.00    +0.000 A 
ATOM     21  N   UNL     1      47.378   4.761  13.544  0.00  0.00    +0.000 NA
ATOM     22  C   UNL     1      47.276   3.999  14.664  0.00  0.00    +0.000 A 
BRANCH  17  24
ATOM     23  N   UNL     1      48.618   3.181  17.791  0.00  0.00    +0.000 N 
ATOM     24  C   UNL     1      47.497   3.510  17.078  0.00  0.00    +0.000 C 
ATOM     25  O   UNL     1      46.395   3.091  17.402  0.00  0.00    +0.000 OA
ATOM     26  H   UNL     1      48.470   2.639  18.635  0.00  0.00    +0.000 HD
ATOM     27  H   UNL     1      49.484   3.695  17.715  0.00  0.00    +0.000 HD
ENDBRANCH  17  24
ENDBRANCH  16  20
ENDBRANCH  15  16
ENDBRANCH   1  15
TORSDOF 5
ENDMDL
MODEL 7
REMARK VINA RESULT:    -7.361      3.328      7.677
REMARK INTER + INTRA:         -10.129
REMARK INTER:                  -9.502
REMARK INTRA:                  -0.627
REMARK UNBOUND:                -0.616
REMARK  Name = 
REMARK  5 active torsions:
REMARK  status: ('A' for Active; 'I' for Inactive)
REMARK    1  A    between atoms: C_2  and  C_4
REMARK    2  A    between atoms: C_7  and  C_8
REMARK    3  A    between atoms: C_8  and  S_9
REMARK    4  A    between atoms: S_9  and  C_10
REMARK    5  A    between atoms: C_15  and  C_16
REMARK                            x       y       z     vdW  Elec       q    Type
REMARK                         _______ _______ _______ _____ _____    ______ ____
ROOT
ATOM      1  C   UNL     1      47.463   7.552  12.142  0.00  0.00    +0.000 A 
ATOM      2  C   UNL     1      46.698   8.662  12.503  0.00  0.00    +0.000 A 
ATOM      3  C   UNL     1      45.348   8.702  12.169  0.00  0.00    +0.000 A 
ATOM      4  F   UNL     1      44.614   9.760  12.540  0.00  0.00    +0.000 F 
ATOM      5  C   UNL     1      44.736   7.655  11.488  0.00  0.00    +0.000 A 
ATOM      6  C   UNL     1      45.484   6.533  11.109  0.00  0.00    +0.000 A 
ATOM      7  C   UNL     1      46.850   6.497  11.449  0.00  0.00    +0.000 A 
ENDROOT
BRANCH   6   8
ATOM      8  C   UNL     1      44.845   5.343  10.415  0.00  0.00    +0.000 C 
ATOM      9  C   UNL     1      44.879   4.072  11.280  0.00  0.00    +0.000 C 
ATOM     10  C   UNL     1      44.238   2.894  10.547  0.00  0.00    +0.000 C 
ATOM     11  C   UNL     1      44.855   2.720   9.163  0.00  0.00    +0.000 C 
ATOM     12  C   UNL     1      44.845   4.030   8.379  0.00  0.00    +0.000 C 
ATOM     13  N   UNL     1      45.503   5.104   9.121  0.00  0.00    +0.000 NA
ATOM     14  H   UNL     1      45.469   5.963   8.571  0.00  0.00    +0.000 HD
ENDBRANCH   6   8
BRANCH   1  15
ATOM     15  S   UNL     1      49.157   7.334  12.660  0.00  0.00    +0.000 S 
BRANCH  15  16
ATOM     16  C   UNL     1      49.104   7.877  14.410  0.00  0.00    +0.000 C 
BRANCH  16  20
ATOM     17  C   UNL     1      48.004   4.639  16.984  0.00  0.00    +0.000 A 
ATOM     18  C   UNL     1      48.689   5.725  17.524  0.00  0.00    +0.000 A 
ATOM     19  C   UNL     1      49.062   6.780  16.691  0.00  0.00    +0.000 A 
ATOM     20  C   UNL     1      48.729   6.734  15.334  0.00  0.00    +0.000 A 
ATOM     21  N   UNL     1      48.084   5.671  14.790  0.00  0.00    +0.000 NA
ATOM     22  C   UNL     1      47.743   4.650  15.619  0.00  0.00    +0.000 A 
BRANCH  17  24
ATOM     23  N   UNL     1      48.331   3.159  18.882  0.00  0.00    +0.000 N 
ATOM     24  C   UNL     1      47.570   3.480  17.791  0.00  0.00    +0.000 C 
ATOM     25  O   UNL     1      46.559   2.851  17.517  0.00  0.00    +0.000 OA
ATOM     26  H   UNL     1      47.968   2.428  19.483  0.00  0.00    +0.000 HD
ATOM     27  H   UNL     1      49.010   3.792  19.280  0.00  0.00    +0.000 HD
ENDBRANCH  17  24
ENDBRANCH  16  20
ENDBRANCH  15  16
ENDBRANCH   1  15
TORSDOF 5
ENDMDL
MODEL 8
REMARK VINA RESULT:    -6.593      4.294      7.931
REMARK INTER + INTRA:          -9.136
REMARK INTER:                  -8.448
REMARK INTRA:                  -0.688
REMARK UNBOUND:                -0.616
REMARK  Name = 
REMARK  5 active torsions:
REMARK  status: ('A' for Active; 'I' for Inactive)
REMARK    1  A    between atoms: C_2  and  C_4
REMARK    2  A    between atoms: C_7  and  C_8
REMARK    3  A    between atoms: C_8  and  S_9
REMARK    4  A    between atoms: S_9  and  C_10
REMARK    5  A    between atoms: C_15  and  C_16
REMARK                            x       y       z     vdW  Elec       q    Type
REMARK                         _______ _______ _______ _____ _____    ______ ____
ROOT
ATOM      1  C   UNL     1      48.999   7.133  14.584  0.00  0.00    +0.000 A 
ATOM      2  C   UNL     1      49.780   7.795  13.635  0.00  0.00    +0.000 A 
ATOM      3  C   UNL     1      49.418   7.747  12.293  0.00  0.00    +0.000 A 
ATOM      4  F   UNL     1      50.159   8.405  11.392  0.00  0.00    +0.000 F 
ATOM      5  C   UNL     1      48.285   7.058  11.870  0.00  0.00    +0.000 A 
ATOM      6  C   UNL     1      47.488   6.381  12.802  0.00  0.00    +0.000 A 
ATOM      7  C   UNL     1      47.860   6.432  14.159  0.00  0.00    +0.000 A 
ENDROOT
BRANCH   6   8
ATOM      8  C   UNL     1      46.214   5.665  12.391  0.00  0.00    +0.000 C 
ATOM      9  C   UNL     1      45.897   5.843  10.896  0.00  0.00    +0.000 C 
ATOM     10  C   UNL     1      44.605   5.119  10.521  0.00  0.00    +0.000 C 
ATOM     11  C   UNL     1      43.467   5.531  11.450  0.00  0.00    +0.000 C 
ATOM     12  C   UNL     1      43.865   5.387  12.917  0.00  0.00    +0.000 C 
ATOM     13  N   UNL     1      45.088   6.130  13.216  0.00  0.00    +0.000 NA
ATOM     14  H   UNL     1      45.327   6.003  14.200  0.00  0.00    +0.000 HD
ENDBRANCH   6   8
BRANCH   1  15
ATOM     15  S   UNL     1      49.288   7.265  16.339  0.00  0.00    +0.000 S 
BRANCH  15  16
ATOM     16  C   UNL     1      48.400   5.802  16.994  0.00  0.00    +0.000 C 
BRANCH  16  20
ATOM     17  C   UNL     1      51.079   2.500  17.480  0.00  0.00    +0.000 A 
ATOM     18  C   UNL     1      49.716   2.246  17.344  0.00  0.00    +0.000 A 
ATOM     19  C   UNL     1      48.834   3.317  17.197  0.00  0.00    +0.000 A 
ATOM     20  C   UNL     1      49.335   4.622  17.174  0.00  0.00    +0.000 A 
ATOM     21  N   UNL     1      50.657   4.884  17.330  0.00  0.00    +0.000 NA
ATOM     22  C   UNL     1      51.495   3.825  17.486  0.00  0.00    +0.000 A 
BRANCH  17  24
ATOM     23  N   UNL     1      51.639   0.218  18.098  0.00  0.00    +0.000 N 
ATOM     24  C   UNL     1      52.084   1.429  17.641  0.00  0.00    +0.000 C 
ATOM     25  O   UNL     1      53.258   1.603  17.350  0.00  0.00    +0.000 OA
ATOM     26  H   UNL     1      52.317  -0.535  18.107  0.00  0.00    +0.000 HD
ATOM     27  H   UNL     1      50.662  -0.038  18.105  0.00  0.00    +0.000 HD
ENDBRANCH  17  24
ENDBRANCH  16  20
ENDBRANCH  15  16
ENDBRANCH   1  15
TORSDOF 5
ENDMDL
MODEL 9
REMARK VINA RESULT:    -6.523      3.305      4.455
REMARK INTER + INTRA:          -9.046
REMARK INTER:                  -8.314
REMARK INTRA:                  -0.732
REMARK UNBOUND:                -0.616
REMARK  Name = 
REMARK  5 active torsions:
REMARK  status: ('A' for Active; 'I' for Inactive)
REMARK    1  A    between atoms: C_2  and  C_4
REMARK    2  A    between atoms: C_7  and  C_8
REMARK    3  A    between atoms: C_8  and  S_9
REMARK    4  A    between atoms: S_9  and  C_10
REMARK    5  A    between atoms: C_15  and  C_16
REMARK                            x       y       z     vdW  Elec       q    Type
REMARK                         _______ _______ _______ _____ _____    ______ ____
ROOT
ATOM      1  C   UNL     1      49.232   7.688  13.632  0.00  0.00    +0.000 A 
ATOM      2  C   UNL     1      50.516   8.222  13.747  0.00  0.00    +0.000 A 
ATOM      3  C   UNL     1      51.269   7.960  14.887  0.00  0.00    +0.000 A 
ATOM      4  F   UNL     1      52.510   8.456  14.980  0.00  0.00    +0.000 F 
ATOM      5  C   UNL     1      50.774   7.167  15.918  0.00  0.00    +0.000 A 
ATOM      6  C   UNL     1      49.486   6.625  15.829  0.00  0.00    +0.000 A 
ATOM      7  C   UNL     1      48.728   6.894  14.673  0.00  0.00    +0.000 A 
ENDROOT
BRANCH   6   8
ATOM      8  C   UNL     1      48.928   5.710  16.905  0.00  0.00    +0.000 C 
ATOM      9  C   UNL     1      49.949   4.652  17.361  0.00  0.00    +0.000 C 
ATOM     10  C   UNL     1      49.352   3.744  18.435  0.00  0.00    +0.000 C 
ATOM     11  C   UNL     1      48.021   3.162  17.970  0.00  0.00    +0.000 C 
ATOM     12  C   UNL     1      47.077   4.255  17.475  0.00  0.00    +0.000 C 
ATOM     13  N   UNL     1      47.697   5.064  16.427  0.00  0.00    +0.000 NA
ATOM     14  H   UNL     1      47.041   5.788  16.128  0.00  0.00    +0.000 HD
ENDBRANCH   6   8
BRANCH   1  15
ATOM     15  S   UNL     1      48.252   7.833  12.148  0.00  0.00    +0.000 S 
BRANCH  15  16
ATOM     16  C   UNL     1      46.541   7.712  12.794  0.00  0.00    +0.000 C 
BRANCH  16  20
ATOM     17  C   UNL     1      44.613   4.141  11.437  0.00  0.00    +0.000 A 
ATOM     18  C   UNL     1      44.867   5.158  10.520  0.00  0.00    +0.000 A 
ATOM     19  C   UNL     1      45.485   6.330  10.956  0.00  0.00    +0.000 A 
ATOM     20  C   UNL     1      45.850   6.456  12.299  0.00  0.00    +0.000 A 
ATOM     21  N   UNL     1      45.586   5.483  13.208  0.00  0.00    +0.000 NA
ATOM     22  C   UNL     1      44.971   4.356  12.762  0.00  0.00    +0.000 A 
BRANCH  17  24
ATOM     23  N   UNL     1      44.526   2.155  10.039  0.00  0.00    +0.000 N 
ATOM     24  C   UNL     1      43.964   2.866  11.064  0.00  0.00    +0.000 C 
ATOM     25  O   UNL     1      42.985   2.446  11.664  0.00  0.00    +0.000 OA
ATOM     26  H   UNL     1      44.133   1.238   9.861  0.00  0.00    +0.000 HD
ATOM     27  H   UNL     1      45.459   2.334   9.697  0.00  0.00    +0.000 HD
ENDBRANCH  17  24
ENDBRANCH  16  20
ENDBRANCH  15  16
ENDBRANCH   1  15
TORSDOF 5
ENDMDL
