MODEL 1
REMARK VINA RESULT:    -8.412      0.000      0.000
REMARK INTER + INTRA:         -12.900
REMARK INTER:                 -12.346
REMARK INTRA:                  -0.554
REMARK UNBOUND:                -0.554
REMARK  Name = 
REMARK  8 active torsions:
REMARK  status: ('A' for Active; 'I' for Inactive)
REMARK    1  A    between atoms: C_2  and  C_3
REMARK    2  A    between atoms: C_3  and  C_4
REMARK    3  A    between atoms: C_4  and  N_5
REMARK    4  A    between atoms: C_4  and  C_18
REMARK    5  A    between atoms: C_6  and  C_8
REMARK    6  A    between atoms: C_21  and  O_22
REMARK    7  A    between atoms: O_22  and  C_23
REMARK    8  A    between atoms: C_23  and  C_24
REMARK                            x       y       z     vdW  Elec       q    Type
REMARK                         _______ _______ _______ _____ _____    ______ ____
ROOT
ATOM      1  C   UNL     1      46.364   7.873  12.910  0.00  0.00    +0.000 C 
ENDROOT
BRANCH   1   2
ATOM      2  C   UNL     1      45.747   6.776  12.061  0.00  0.00    +0.000 A 
ATOM      3  C   UNL     1      46.261   6.499  10.783  0.00  0.00    +0.000 A 
ATOM      4  C   UNL     1      45.675   5.517   9.985  0.00  0.00    +0.000 A 
ATOM      5  C   UNL     1      44.583   4.792  10.460  0.00  0.00    +0.000 A 
ATOM      6  C   UNL     1      44.051   5.084  11.715  0.00  0.00    +0.000 A 
ATOM      7  C   UNL     1      44.630   6.066  12.509  0.00  0.00    +0.000 A 
BRANCH   5   8
ATOM      8  O   UNL     1      44.091   3.827   9.625  0.00  0.00    +0.000 OA
BRANCH   8   9
ATOM      9  C   UNL     1      44.806   2.587   9.686  0.00  0.00    +0.000 C 
BRANCH   9  10
ATOM     10  C   UNL     1      45.595   2.333   8.428  0.00  0.00    +0.000 A 
ATOM     11  C   UNL     1      45.740   3.318   7.456  0.00  0.00    +0.000 A 
ATOM     12  C   UNL     1      46.564   3.065   6.364  0.00  0.00    +0.000 A 
ATOM     13  C   UNL     1      47.225   1.847   6.280  0.00  0.00    +0.000 A 
ATOM     14  C   UNL     1      47.031   0.922   7.291  0.00  0.00    +0.000 A 
ATOM     15  N   UNL     1      46.239   1.138   8.359  0.00  0.00    +0.000 NA
ENDBRANCH   9  10
ENDBRANCH   8   9
ENDBRANCH   5   8
ENDBRANCH   1   2
BRANCH   1  16
ATOM     16  N   UNL     1      46.935   7.256  14.088  0.00  0.00    +0.000 N 
ATOM     17  C   UNL     1      48.176   6.662  14.047  0.00  0.00    +0.000 C 
ATOM     18  O   UNL     1      48.803   6.534  13.002  0.00  0.00    +0.000 OA
ATOM     19  H   UNL     1      46.586   7.503  15.011  0.00  0.00    +0.000 HD
BRANCH  17  20
ATOM     20  C   UNL     1      48.670   6.232  15.360  0.00  0.00    +0.000 A 
ATOM     21  N   UNL     1      49.614   6.966  15.977  0.00  0.00    +0.000 NA
ATOM     22  S   UNL     1      50.041   6.219  17.397  0.00  0.00    +0.000 S 
ATOM     23  C   UNL     1      48.929   4.934  17.266  0.00  0.00    +0.000 A 
ATOM     24  N   UNL     1      48.773   3.958  18.197  0.00  0.00    +0.000 NA
ATOM     25  C   UNL     1      47.857   3.096  17.894  0.00  0.00    +0.000 A 
ATOM     26  N   UNL     1      47.095   3.127  16.751  0.00  0.00    +0.000 N 
ATOM     27  C   UNL     1      47.174   4.142  15.818  0.00  0.00    +0.000 A 
ATOM     28  O   UNL     1      46.362   4.215  14.906  0.00  0.00    +0.000 OA
ATOM     29  C   UNL     1      48.224   5.085  16.090  0.00  0.00    +0.000 A 
ATOM     30  H   UNL     1      46.359   2.452  16.599  0.00  0.00    +0.000 HD
ENDBRANCH  17  20
ENDBRANCH   1  16
BRANCH   1  31
ATOM     31  C   UNL     1      47.382   8.765  12.144  0.00  0.00    +0.000 C 
BRANCH  31  33
ATOM     32  N   UNL     1      46.098  11.208  11.799  0.00  0.00    +0.000 NA
ATOM     33  C   UNL     1      46.681  10.100  11.956  0.00  0.00    +0.000 C 
ENDBRANCH  31  33
ENDBRANCH   1  31
TORSDOF 8
ENDMDL
MODEL 2
REMARK VINA RESULT:    -8.201      2.019      4.709
REMARK INTER + INTRA:         -12.591
REMARK INTER:                 -11.113
REMARK INTRA:                  -1.478
REMARK UNBOUND:                -0.554
REMARK  Name = 
REMARK  8 active torsions:
REMARK  status: ('A' for Active; 'I' for Inactive)
REMARK    1  A    between atoms: C_2  and  C_3
REMARK    2  A    between atoms: C_3  and  C_4
REMARK    3  A    between atoms: C_4  and  N_5
REMARK    4  A    between atoms: C_4  and  C_18
REMARK    5  A    between atoms: C_6  and  C_8
REMARK    6  A    between atoms: C_21  and  O_22
REMARK    7  A    between atoms: O_22  and  C_23
REMARK    8  A    between atoms: C_23  and  C_24
REMARK                            x       y       z     vdW  Elec       q    Type
REMARK                         _______ _______ _______ _____ _____    ______ ____
ROOT
ATOM      1  C   UNL     1      47.566   5.011  14.655  0.00  0.00    +0.000 C 
ENDROOT
BRANCH   1   2
ATOM      2  C   UNL     1      46.716   4.721  13.431  0.00  0.00    +0.000 A 
ATOM      3  C   UNL     1      46.413   5.748  12.523  0.00  0.00    +0.000 A 
ATOM      4  C   UNL     1      45.602   5.495  11.416  0.00  0.00    +0.000 A 
ATOM      5  C   UNL     1      45.100   4.213  11.199  0.00  0.00    +0.000 A 
ATOM      6  C   UNL     1      45.373   3.197  12.114  0.00  0.00    +0.000 A 
ATOM      7  C   UNL     1      46.176   3.449  13.220  0.00  0.00    +0.000 A 
BRANCH   5   8
ATOM      8  O   UNL     1      44.341   4.046  10.074  0.00  0.00    +0.000 OA
BRANCH   8   9
ATOM      9  C   UNL     1      44.360   2.713   9.552  0.00  0.00    +0.000 C 
BRANCH   9  10
ATOM     10  C   UNL     1      45.381   2.555   8.455  0.00  0.00    +0.000 A 
ATOM     11  C   UNL     1      45.726   3.624   7.632  0.00  0.00    +0.000 A 
ATOM     12  C   UNL     1      46.748   3.451   6.705  0.00  0.00    +0.000 A 
ATOM     13  C   UNL     1      47.401   2.228   6.633  0.00  0.00    +0.000 A 
ATOM     14  C   UNL     1      47.001   1.218   7.490  0.00  0.00    +0.000 A 
ATOM     15  N   UNL     1      46.015   1.354   8.397  0.00  0.00    +0.000 NA
ENDBRANCH   9  10
ENDBRANCH   8   9
ENDBRANCH   5   8
ENDBRANCH   1   2
BRANCH   1  16
ATOM     16  N   UNL     1      47.760   6.443  14.734  0.00  0.00    +0.000 N 
ATOM     17  C   UNL     1      48.965   6.975  15.131  0.00  0.00    +0.000 C 
ATOM     18  O   UNL     1      49.887   6.275  15.533  0.00  0.00    +0.000 OA
ATOM     19  H   UNL     1      47.138   7.069  14.227  0.00  0.00    +0.000 HD
BRANCH  17  20
ATOM     20  C   UNL     1      49.040   8.435  15.000  0.00  0.00    +0.000 A 
ATOM     21  N   UNL     1      49.138   9.188  16.110  0.00  0.00    +0.000 NA
ATOM     22  S   UNL     1      49.129  10.792  15.680  0.00  0.00    +0.000 S 
ATOM     23  C   UNL     1      49.069  10.528  13.998  0.00  0.00    +0.000 A 
ATOM     24  N   UNL     1      49.075  11.516  13.066  0.00  0.00    +0.000 NA
ATOM     25  C   UNL     1      49.041  11.080  11.849  0.00  0.00    +0.000 A 
ATOM     26  N   UNL     1      49.000   9.754  11.489  0.00  0.00    +0.000 N 
ATOM     27  C   UNL     1      49.065   8.721  12.404  0.00  0.00    +0.000 A 
ATOM     28  O   UNL     1      49.195   7.563  12.030  0.00  0.00    +0.000 OA
ATOM     29  C   UNL     1      49.042   9.167  13.771  0.00  0.00    +0.000 A 
ATOM     30  H   UNL     1      49.027   9.477  10.519  0.00  0.00    +0.000 HD
ENDBRANCH  17  20
ENDBRANCH   1  16
BRANCH   1  31
ATOM     31  C   UNL     1      47.002   4.406  15.972  0.00  0.00    +0.000 C 
BRANCH  31  33
ATOM     32  N   UNL     1      48.855   2.483  16.747  0.00  0.00    +0.000 NA
ATOM     33  C   UNL     1      48.014   3.355  16.396  0.00  0.00    +0.000 C 
ENDBRANCH  31  33
ENDBRANCH   1  31
TORSDOF 8
ENDMDL
MODEL 3
REMARK VINA RESULT:    -8.164      2.783      4.359
REMARK INTER + INTRA:         -12.536
REMARK INTER:                 -11.179
REMARK INTRA:                  -1.357
REMARK UNBOUND:                -0.554
REMARK  Name = 
REMARK  8 active torsions:
REMARK  status: ('A' for Active; 'I' for Inactive)
REMARK    1  A    between atoms: C_2  and  C_3
REMARK    2  A    between atoms: C_3  and  C_4
REMARK    3  A    between atoms: C_4  and  N_5
REMARK    4  A    between atoms: C_4  and  C_18
REMARK    5  A    between atoms: C_6  and  C_8
REMARK    6  A    between atoms: C_21  and  O_22
REMARK    7  A    between atoms: O_22  and  C_23
REMARK    8  A    between atoms: C_23  and  C_24
REMARK                            x       y       z     vdW  Elec       q    Type
REMARK                         _______ _______ _______ _____ _____    ______ ____
ROOT
ATOM      1  C   UNL     1      47.852   4.744  15.243  0.00  0.00    +0.000 C 
ENDROOT
BRANCH   1   2
ATOM      2  C   UNL     1      46.989   4.732  13.995  0.00  0.00    +0.000 A 
ATOM      3  C   UNL     1      46.836   5.901  13.231  0.00  0.00    +0.000 A 
ATOM      4  C   UNL     1      46.015   5.904  12.103  0.00  0.00    +0.000 A 
ATOM      5  C   UNL     1      45.352   4.739  11.720  0.00  0.00    +0.000 A 
ATOM      6  C   UNL     1      45.476   3.585  12.492  0.00  0.00    +0.000 A 
ATOM      7  C   UNL     1      46.289   3.582  13.619  0.00  0.00    +0.000 A 
BRANCH   5   8
ATOM      8  O   UNL     1      44.594   4.824  10.585  0.00  0.00    +0.000 OA
BRANCH   8   9
ATOM      9  C   UNL     1      44.213   3.553  10.045  0.00  0.00    +0.000 C 
BRANCH   9  10
ATOM     10  C   UNL     1      45.131   3.121   8.931  0.00  0.00    +0.000 A 
ATOM     11  C   UNL     1      45.667   4.045   8.038  0.00  0.00    +0.000 A 
ATOM     12  C   UNL     1      46.589   3.606   7.094  0.00  0.00    +0.000 A 
ATOM     13  C   UNL     1      46.957   2.267   7.075  0.00  0.00    +0.000 A 
ATOM     14  C   UNL     1      46.381   1.414   8.000  0.00  0.00    +0.000 A 
ATOM     15  N   UNL     1      45.485   1.808   8.925  0.00  0.00    +0.000 NA
ENDBRANCH   9  10
ENDBRANCH   8   9
ENDBRANCH   5   8
ENDBRANCH   1   2
BRANCH   1  16
ATOM     16  N   UNL     1      47.859   6.093  15.767  0.00  0.00    +0.000 N 
ATOM     17  C   UNL     1      49.039   6.719  16.097  0.00  0.00    +0.000 C 
ATOM     18  O   UNL     1      50.117   6.139  16.065  0.00  0.00    +0.000 OA
ATOM     19  H   UNL     1      47.054   6.698  15.623  0.00  0.00    +0.000 HD
BRANCH  17  20
ATOM     20  C   UNL     1      48.878   8.133  16.458  0.00  0.00    +0.000 A 
ATOM     21  N   UNL     1      49.267   9.080  15.586  0.00  0.00    +0.000 NA
ATOM     22  S   UNL     1      49.044  10.576  16.273  0.00  0.00    +0.000 S 
ATOM     23  C   UNL     1      48.354  10.006  17.723  0.00  0.00    +0.000 A 
ATOM     24  N   UNL     1      47.908  10.807  18.726  0.00  0.00    +0.000 NA
ATOM     25  C   UNL     1      47.406  10.156  19.724  0.00  0.00    +0.000 A 
ATOM     26  N   UNL     1      47.315   8.786  19.804  0.00  0.00    +0.000 N 
ATOM     27  C   UNL     1      47.691   7.943  18.776  0.00  0.00    +0.000 A 
ATOM     28  O   UNL     1      47.435   6.747  18.826  0.00  0.00    +0.000 OA
ATOM     29  C   UNL     1      48.309   8.628  17.674  0.00  0.00    +0.000 A 
ATOM     30  H   UNL     1      46.864   8.340  20.590  0.00  0.00    +0.000 HD
ENDBRANCH  17  20
ENDBRANCH   1  16
BRANCH   1  31
ATOM     31  C   UNL     1      47.437   3.687  16.306  0.00  0.00    +0.000 C 
BRANCH  31  33
ATOM     32  N   UNL     1      49.441   1.760  16.244  0.00  0.00    +0.000 NA
ATOM     33  C   UNL     1      48.532   2.634  16.272  0.00  0.00    +0.000 C 
ENDBRANCH  31  33
ENDBRANCH   1  31
TORSDOF 8
ENDMDL
MODEL 4
REMARK VINA RESULT:    -8.007      1.710      1.914
REMARK INTER + INTRA:         -12.306
REMARK INTER:                 -10.880
REMARK INTRA:                  -1.427
REMARK UNBOUND:                -0.554
REMARK  Name = 
REMARK  8 active torsions:
REMARK  status: ('A' for Active; 'I' for Inactive)
REMARK    1  A    between atoms: C_2  and  C_3
REMARK    2  A    between atoms: C_3  and  C_4
REMARK    3  A    between atoms: C_4  and  N_5
REMARK    4  A    between atoms: C_4  and  C_18
REMARK    5  A    between atoms: C_6  and  C_8
REMARK    6  A    between atoms: C_21  and  O_22
REMARK    7  A    between atoms: O_22  and  C_23
REMARK    8  A    between atoms: C_23  and  C_24
REMARK                            x       y       z     vdW  Elec       q    Type
REMARK                         _______ _______ _______ _____ _____    ______ ____
ROOT
ATOM      1  C   UNL     1      47.440   7.539  13.404  0.00  0.00    +0.000 C 
ENDROOT
BRANCH   1   2
ATOM      2  C   UNL     1      46.699   6.407  12.716  0.00  0.00    +0.000 A 
ATOM      3  C   UNL     1      46.157   6.594  11.434  0.00  0.00    +0.000 A 
ATOM      4  C   UNL     1      45.444   5.569  10.813  0.00  0.00    +0.000 A 
ATOM      5  C   UNL     1      45.278   4.345  11.459  0.00  0.00    +0.000 A 
ATOM      6  C   UNL     1      45.788   4.164  12.744  0.00  0.00    +0.000 A 
ATOM      7  C   UNL     1      46.494   5.187  13.366  0.00  0.00    +0.000 A 
BRANCH   5   8
ATOM      8  O   UNL     1      44.594   3.385  10.765  0.00  0.00    +0.000 OA
BRANCH   8   9
ATOM      9  C   UNL     1      44.356   3.719   9.393  0.00  0.00    +0.000 C 
BRANCH   9  10
ATOM     10  C   UNL     1      45.310   3.006   8.470  0.00  0.00    +0.000 A 
ATOM     11  C   UNL     1      46.004   3.694   7.478  0.00  0.00    +0.000 A 
ATOM     12  C   UNL     1      46.948   3.006   6.723  0.00  0.00    +0.000 A 
ATOM     13  C   UNL     1      47.181   1.663   6.986  0.00  0.00    +0.000 A 
ATOM     14  C   UNL     1      46.452   1.054   7.992  0.00  0.00    +0.000 A 
ATOM     15  N   UNL     1      45.531   1.692   8.739  0.00  0.00    +0.000 NA
ENDBRANCH   9  10
ENDBRANCH   8   9
ENDBRANCH   5   8
ENDBRANCH   1   2
BRANCH   1  16
ATOM     16  N   UNL     1      48.507   6.959  14.191  0.00  0.00    +0.000 N 
ATOM     17  C   UNL     1      48.823   7.459  15.434  0.00  0.00    +0.000 C 
ATOM     18  O   UNL     1      48.298   8.470  15.884  0.00  0.00    +0.000 OA
ATOM     19  H   UNL     1      48.833   6.017  13.991  0.00  0.00    +0.000 HD
BRANCH  17  20
ATOM     20  C   UNL     1      49.815   6.656  16.160  0.00  0.00    +0.000 A 
ATOM     21  N   UNL     1      51.038   7.170  16.381  0.00  0.00    +0.000 NA
ATOM     22  S   UNL     1      51.974   6.033  17.149  0.00  0.00    +0.000 S 
ATOM     23  C   UNL     1      50.754   4.850  17.274  0.00  0.00    +0.000 A 
ATOM     24  N   UNL     1      50.916   3.642  17.873  0.00  0.00    +0.000 NA
ATOM     25  C   UNL     1      49.848   2.913  17.865  0.00  0.00    +0.000 A 
ATOM     26  N   UNL     1      48.645   3.285  17.313  0.00  0.00    +0.000 N 
ATOM     27  C   UNL     1      48.422   4.531  16.759  0.00  0.00    +0.000 A 
ATOM     28  O   UNL     1      47.293   4.875  16.435  0.00  0.00    +0.000 OA
ATOM     29  C   UNL     1      49.603   5.347  16.696  0.00  0.00    +0.000 A 
ATOM     30  H   UNL     1      47.833   2.689  17.386  0.00  0.00    +0.000 HD
ENDBRANCH  17  20
ENDBRANCH   1  16
BRANCH   1  31
ATOM     31  C   UNL     1      47.942   8.645  12.432  0.00  0.00    +0.000 C 
BRANCH  31  33
ATOM     32  N   UNL     1      50.419   7.756  11.529  0.00  0.00    +0.000 NA
ATOM     33  C   UNL     1      49.296   8.159  11.939  0.00  0.00    +0.000 C 
ENDBRANCH  31  33
ENDBRANCH   1  31
TORSDOF 8
ENDMDL
MODEL 5
REMARK VINA RESULT:    -7.624      2.200      2.589
REMARK INTER + INTRA:         -11.743
REMARK INTER:                 -10.973
REMARK INTRA:                  -0.770
REMARK UNBOUND:                -0.554
REMARK  Name = 
REMARK  8 active torsions:
REMARK  status: ('A' for Active; 'I' for Inactive)
REMARK    1  A    between atoms: C_2  and  C_3
REMARK    2  A    between atoms: C_3  and  C_4
REMARK    3  A    between atoms: C_4  and  N_5
REMARK    4  A    between atoms: C_4  and  C_18
REMARK    5  A    between atoms: C_6  and  C_8
REMARK    6  A    between atoms: C_21  and  O_22
REMARK    7  A    between atoms: O_22  and  C_23
REMARK    8  A    between atoms: C_23  and  C_24
REMARK                            x       y       z     vdW  Elec       q    Type
REMARK                         _______ _______ _______ _____ _____    ______ ____
ROOT
ATOM      1  C   UNL     1      47.892   7.038  13.766  0.00  0.00    +0.000 C 
ENDROOT
BRANCH   1   2
ATOM      2  C   UNL     1      46.917   6.153  13.012  0.00  0.00    +0.000 A 
ATOM      3  C   UNL     1      46.254   6.642  11.874  0.00  0.00    +0.000 A 
ATOM      4  C   UNL     1      45.330   5.845  11.199  0.00  0.00    +0.000 A 
ATOM      5  C   UNL     1      45.071   4.549  11.643  0.00  0.00    +0.000 A 
ATOM      6  C   UNL     1      45.704   4.070  12.789  0.00  0.00    +0.000 A 
ATOM      7  C   UNL     1      46.621   4.864  13.466  0.00  0.00    +0.000 A 
BRANCH   5   8
ATOM      8  O   UNL     1      44.175   3.827  10.904  0.00  0.00    +0.000 OA
BRANCH   8   9
ATOM      9  C   UNL     1      44.151   4.178   9.515  0.00  0.00    +0.000 C 
BRANCH   9  10
ATOM     10  C   UNL     1      45.209   3.445   8.733  0.00  0.00    +0.000 A 
ATOM     11  C   UNL     1      45.392   2.073   8.878  0.00  0.00    +0.000 A 
ATOM     12  C   UNL     1      46.312   1.430   8.056  0.00  0.00    +0.000 A 
ATOM     13  C   UNL     1      47.011   2.168   7.111  0.00  0.00    +0.000 A 
ATOM     14  C   UNL     1      46.768   3.528   7.028  0.00  0.00    +0.000 A 
ATOM     15  N   UNL     1      45.884   4.179   7.810  0.00  0.00    +0.000 NA
ENDBRANCH   9  10
ENDBRANCH   8   9
ENDBRANCH   5   8
ENDBRANCH   1   2
BRANCH   1  16
ATOM     16  N   UNL     1      48.444   6.263  14.857  0.00  0.00    +0.000 N 
ATOM     17  C   UNL     1      48.856   6.872  16.021  0.00  0.00    +0.000 C 
ATOM     18  O   UNL     1      48.875   8.090  16.149  0.00  0.00    +0.000 OA
ATOM     19  H   UNL     1      48.266   5.264  14.912  0.00  0.00    +0.000 HD
BRANCH  17  20
ATOM     20  C   UNL     1      49.237   5.928  17.079  0.00  0.00    +0.000 A 
ATOM     21  N   UNL     1      50.164   4.990  16.818  0.00  0.00    +0.000 NA
ATOM     22  S   UNL     1      50.346   4.020  18.153  0.00  0.00    +0.000 S 
ATOM     23  C   UNL     1      49.249   4.868  19.143  0.00  0.00    +0.000 A 
ATOM     24  N   UNL     1      48.982   4.552  20.437  0.00  0.00    +0.000 NA
ATOM     25  C   UNL     1      48.128   5.345  20.997  0.00  0.00    +0.000 A 
ATOM     26  N   UNL     1      47.524   6.415  20.380  0.00  0.00    +0.000 N 
ATOM     27  C   UNL     1      47.823   6.810  19.090  0.00  0.00    +0.000 A 
ATOM     28  O   UNL     1      47.388   7.863  18.644  0.00  0.00    +0.000 OA
ATOM     29  C   UNL     1      48.723   5.915  18.414  0.00  0.00    +0.000 A 
ATOM     30  H   UNL     1      46.904   7.028  20.889  0.00  0.00    +0.000 HD
ENDBRANCH  17  20
ENDBRANCH   1  16
BRANCH   1  31
ATOM     31  C   UNL     1      48.988   7.676  12.866  0.00  0.00    +0.000 C 
BRANCH  31  33
ATOM     32  N   UNL     1      48.450  10.405  12.882  0.00  0.00    +0.000 NA
ATOM     33  C   UNL     1      48.694   9.168  12.875  0.00  0.00    +0.000 C 
ENDBRANCH  31  33
ENDBRANCH   1  31
TORSDOF 8
ENDMDL
MODEL 6
REMARK VINA RESULT:    -7.589      2.120      2.888
REMARK INTER + INTRA:         -11.692
REMARK INTER:                 -10.534
REMARK INTRA:                  -1.158
REMARK UNBOUND:                -0.554
REMARK  Name = 
REMARK  8 active torsions:
REMARK  status: ('A' for Active; 'I' for Inactive)
REMARK    1  A    between atoms: C_2  and  C_3
REMARK    2  A    between atoms: C_3  and  C_4
REMARK    3  A    between atoms: C_4  and  N_5
REMARK    4  A    between atoms: C_4  and  C_18
REMARK    5  A    between atoms: C_6  and  C_8
REMARK    6  A    between atoms: C_21  and  O_22
REMARK    7  A    between atoms: O_22  and  C_23
REMARK    8  A    between atoms: C_23  and  C_24
REMARK                            x       y       z     vdW  Elec       q    Type
REMARK                         _______ _______ _______ _____ _____    ______ ____
ROOT
ATOM      1  C   UNL     1      47.774   7.176  13.673  0.00  0.00    +0.000 C 
ENDROOT
BRANCH   1   2
ATOM      2  C   UNL     1      46.816   6.326  12.859  0.00  0.00    +0.000 A 
ATOM      3  C   UNL     1      46.504   5.021  13.273  0.00  0.00    +0.000 A 
ATOM      4  C   UNL     1      45.652   4.224  12.509  0.00  0.00    +0.000 A 
ATOM      5  C   UNL     1      45.093   4.726  11.334  0.00  0.00    +0.000 A 
ATOM      6  C   UNL     1      45.423   6.010  10.904  0.00  0.00    +0.000 A 
ATOM      7  C   UNL     1      46.276   6.804  11.661  0.00  0.00    +0.000 A 
BRANCH   5   8
ATOM      8  O   UNL     1      44.244   3.888  10.665  0.00  0.00    +0.000 OA
BRANCH   8   9
ATOM      9  C   UNL     1      44.211   4.104   9.250  0.00  0.00    +0.000 C 
BRANCH   9  10
ATOM     10  C   UNL     1      45.295   3.336   8.540  0.00  0.00    +0.000 A 
ATOM     11  C   UNL     1      45.475   1.973   8.758  0.00  0.00    +0.000 A 
ATOM     12  C   UNL     1      46.423   1.293   8.001  0.00  0.00    +0.000 A 
ATOM     13  C   UNL     1      47.151   1.986   7.043  0.00  0.00    +0.000 A 
ATOM     14  C   UNL     1      46.909   3.340   6.885  0.00  0.00    +0.000 A 
ATOM     15  N   UNL     1      46.000   4.025   7.604  0.00  0.00    +0.000 NA
ENDBRANCH   9  10
ENDBRANCH   8   9
ENDBRANCH   5   8
ENDBRANCH   1   2
BRANCH   1  16
ATOM     16  N   UNL     1      48.367   6.331  14.688  0.00  0.00    +0.000 N 
ATOM     17  C   UNL     1      48.698   6.835  15.925  0.00  0.00    +0.000 C 
ATOM     18  O   UNL     1      48.608   8.028  16.189  0.00  0.00    +0.000 OA
ATOM     19  H   UNL     1      48.276   5.320  14.625  0.00  0.00    +0.000 HD
BRANCH  17  20
ATOM     20  C   UNL     1      49.136   5.812  16.882  0.00  0.00    +0.000 A 
ATOM     21  N   UNL     1      48.212   5.041  17.484  0.00  0.00    +0.000 NA
ATOM     22  S   UNL     1      48.969   4.030  18.564  0.00  0.00    +0.000 S 
ATOM     23  C   UNL     1      50.554   4.541  18.207  0.00  0.00    +0.000 A 
ATOM     24  N   UNL     1      51.673   4.025  18.780  0.00  0.00    +0.000 NA
ATOM     25  C   UNL     1      52.769   4.554  18.343  0.00  0.00    +0.000 A 
ATOM     26  N   UNL     1      52.841   5.546  17.394  0.00  0.00    +0.000 N 
ATOM     27  C   UNL     1      51.732   6.045  16.738  0.00  0.00    +0.000 A 
ATOM     28  O   UNL     1      51.860   6.802  15.786  0.00  0.00    +0.000 OA
ATOM     29  C   UNL     1      50.490   5.524  17.240  0.00  0.00    +0.000 A 
ATOM     30  H   UNL     1      53.732   5.880  17.058  0.00  0.00    +0.000 HD
ENDBRANCH  17  20
ENDBRANCH   1  16
BRANCH   1  31
ATOM     31  C   UNL     1      48.836   7.923  12.817  0.00  0.00    +0.000 C 
BRANCH  31  33
ATOM     32  N   UNL     1      48.097  10.603  12.911  0.00  0.00    +0.000 NA
ATOM     33  C   UNL     1      48.432   9.388  12.868  0.00  0.00    +0.000 C 
ENDBRANCH  31  33
ENDBRANCH   1  31
TORSDOF 8
ENDMDL
MODEL 7
REMARK VINA RESULT:    -7.075      3.440      6.622
REMARK INTER + INTRA:         -10.938
REMARK INTER:                  -8.935
REMARK INTRA:                  -2.003
REMARK UNBOUND:                -0.554
REMARK  Name = 
REMARK  8 active torsions:
REMARK  status: ('A' for Active; 'I' for Inactive)
REMARK    1  A    between atoms: C_2  and  C_3
REMARK    2  A    between atoms: C_3  and  C_4
REMARK    3  A    between atoms: C_4  and  N_5
REMARK    4  A    between atoms: C_4  and  C_18
REMARK    5  A    between atoms: C_6  and  C_8
REMARK    6  A    between atoms: C_21  and  O_22
REMARK    7  A    between atoms: O_22  and  C_23
REMARK    8  A    between atoms: C_23  and  C_24
REMARK                            x       y       z     vdW  Elec       q    Type
REMARK                         _______ _______ _______ _____ _____    ______ ____
ROOT
ATOM      1  C   UNL     1      45.796   5.518  13.059  0.00  0.00    +0.000 C 
ENDROOT
BRANCH   1   2
ATOM      2  C   UNL     1      46.401   6.847  12.646  0.00  0.00    +0.000 A 
ATOM      3  C   UNL     1      47.679   6.890  12.063  0.00  0.00    +0.000 A 
ATOM      4  C   UNL     1      48.254   8.112  11.715  0.00  0.00    +0.000 A 
ATOM      5  C   UNL     1      47.555   9.299  11.931  0.00  0.00    +0.000 A 
ATOM      6  C   UNL     1      46.300   9.263  12.536  0.00  0.00    +0.000 A 
ATOM      7  C   UNL     1      45.728   8.047  12.889  0.00  0.00    +0.000 A 
BRANCH   5   8
ATOM      8  O   UNL     1      48.180  10.447  11.530  0.00  0.00    +0.000 OA
BRANCH   8   9
ATOM      9  C   UNL     1      48.374  11.400  12.582  0.00  0.00    +0.000 C 
BRANCH   9  10
ATOM     10  C   UNL     1      49.449  10.962  13.543  0.00  0.00    +0.000 A 
ATOM     11  C   UNL     1      49.158  10.697  14.878  0.00  0.00    +0.000 A 
ATOM     12  C   UNL     1      50.165  10.196  15.696  0.00  0.00    +0.000 A 
ATOM     13  C   UNL     1      51.424   9.964  15.159  0.00  0.00    +0.000 A 
ATOM     14  C   UNL     1      51.630  10.250  13.821  0.00  0.00    +0.000 A 
ATOM     15  N   UNL     1      50.676  10.736  13.004  0.00  0.00    +0.000 NA
ENDBRANCH   9  10
ENDBRANCH   8   9
ENDBRANCH   5   8
ENDBRANCH   1   2
BRANCH   1  16
ATOM     16  N   UNL     1      46.240   5.226  14.406  0.00  0.00    +0.000 N 
ATOM     17  C   UNL     1      47.116   4.194  14.655  0.00  0.00    +0.000 C 
ATOM     18  O   UNL     1      47.476   3.417  13.779  0.00  0.00    +0.000 OA
ATOM     19  H   UNL     1      46.162   5.934  15.132  0.00  0.00    +0.000 HD
BRANCH  17  20
ATOM     20  C   UNL     1      47.586   4.140  16.045  0.00  0.00    +0.000 A 
ATOM     21  N   UNL     1      47.228   3.098  16.817  0.00  0.00    +0.000 NA
ATOM     22  S   UNL     1      47.829   3.326  18.348  0.00  0.00    +0.000 S 
ATOM     23  C   UNL     1      48.644   4.782  18.007  0.00  0.00    +0.000 A 
ATOM     24  N   UNL     1      49.391   5.472  18.908  0.00  0.00    +0.000 NA
ATOM     25  C   UNL     1      49.932   6.541  18.422  0.00  0.00    +0.000 A 
ATOM     26  N   UNL     1      49.790   6.975  17.126  0.00  0.00    +0.000 N 
ATOM     27  C   UNL     1      49.100   6.264  16.163  0.00  0.00    +0.000 A 
ATOM     28  O   UNL     1      49.142   6.603  14.988  0.00  0.00    +0.000 OA
ATOM     29  C   UNL     1      48.433   5.101  16.681  0.00  0.00    +0.000 A 
ATOM     30  H   UNL     1      50.282   7.792  16.793  0.00  0.00    +0.000 HD
ENDBRANCH  17  20
ENDBRANCH   1  16
BRANCH   1  31
ATOM     31  C   UNL     1      44.249   5.457  12.909  0.00  0.00    +0.000 C 
BRANCH  31  33
ATOM     32  N   UNL     1      43.647   2.756  12.629  0.00  0.00    +0.000 NA
ATOM     33  C   UNL     1      43.921   3.981  12.756  0.00  0.00    +0.000 C 
ENDBRANCH  31  33
ENDBRANCH   1  31
TORSDOF 8
ENDMDL
MODEL 8
REMARK VINA RESULT:    -7.002      2.571      3.632
REMARK INTER + INTRA:         -10.831
REMARK INTER:                  -9.388
REMARK INTRA:                  -1.443
REMARK UNBOUND:                -0.554
REMARK  Name = 
REMARK  8 active torsions:
REMARK  status: ('A' for Active; 'I' for Inactive)
REMARK    1  A    between atoms: C_2  and  C_3
REMARK    2  A    between atoms: C_3  and  C_4
REMARK    3  A    between atoms: C_4  and  N_5
REMARK    4  A    between atoms: C_4  and  C_18
REMARK    5  A    between atoms: C_6  and  C_8
REMARK    6  A    between atoms: C_21  and  O_22
REMARK    7  A    between atoms: O_22  and  C_23
REMARK    8  A    between atoms: C_23  and  C_24
REMARK                            x       y       z     vdW  Elec       q    Type
REMARK                         _______ _______ _______ _____ _____    ______ ____
ROOT
ATOM      1  C   UNL     1      48.713   7.745  13.094  0.00  0.00    +0.000 C 
ENDROOT
BRANCH   1   2
ATOM      2  C   UNL     1      47.421   6.975  12.894  0.00  0.00    +0.000 A 
ATOM      3  C   UNL     1      46.219   7.662  12.653  0.00  0.00    +0.000 A 
ATOM      4  C   UNL     1      45.023   6.960  12.504  0.00  0.00    +0.000 A 
ATOM      5  C   UNL     1      45.017   5.568  12.580  0.00  0.00    +0.000 A 
ATOM      6  C   UNL     1      46.202   4.884  12.849  0.00  0.00    +0.000 A 
ATOM      7  C   UNL     1      47.393   5.582  13.003  0.00  0.00    +0.000 A 
BRANCH   5   8
ATOM      8  O   UNL     1      43.807   4.960  12.391  0.00  0.00    +0.000 OA
BRANCH   8   9
ATOM      9  C   UNL     1      43.287   5.101  11.064  0.00  0.00    +0.000 C 
BRANCH   9  10
ATOM     10  C   UNL     1      44.014   4.221  10.081  0.00  0.00    +0.000 A 
ATOM     11  C   UNL     1      44.853   4.762   9.112  0.00  0.00    +0.000 A 
ATOM     12  C   UNL     1      45.579   3.899   8.298  0.00  0.00    +0.000 A 
ATOM     13  C   UNL     1      45.457   2.528   8.481  0.00  0.00    +0.000 A 
ATOM     14  C   UNL     1      44.604   2.071   9.470  0.00  0.00    +0.000 A 
ATOM     15  N   UNL     1      43.887   2.881  10.272  0.00  0.00    +0.000 NA
ENDBRANCH   9  10
ENDBRANCH   8   9
ENDBRANCH   5   8
ENDBRANCH   1   2
BRANCH   1  16
ATOM     16  N   UNL     1      49.521   7.019  14.051  0.00  0.00    +0.000 N 
ATOM     17  C   UNL     1      49.400   7.252  15.402  0.00  0.00    +0.000 C 
ATOM     18  O   UNL     1      48.692   8.146  15.849  0.00  0.00    +0.000 OA
ATOM     19  H   UNL     1      49.957   6.140  13.785  0.00  0.00    +0.000 HD
BRANCH  17  20
ATOM     20  C   UNL     1      50.171   6.320  16.234  0.00  0.00    +0.000 A 
ATOM     21  N   UNL     1      49.526   5.333  16.881  0.00  0.00    +0.000 NA
ATOM     22  S   UNL     1      50.617   4.482  17.800  0.00  0.00    +0.000 S 
ATOM     23  C   UNL     1      51.991   5.360  17.305  0.00  0.00    +0.000 A 
ATOM     24  N   UNL     1      53.259   5.093  17.714  0.00  0.00    +0.000 NA
ATOM     25  C   UNL     1      54.146   5.878  17.195  0.00  0.00    +0.000 A 
ATOM     26  N   UNL     1      53.875   6.897  16.313  0.00  0.00    +0.000 N 
ATOM     27  C   UNL     1      52.611   7.152  15.819  0.00  0.00    +0.000 A 
ATOM     28  O   UNL     1      52.446   7.956  14.911  0.00  0.00    +0.000 OA
ATOM     29  C   UNL     1      51.589   6.339  16.420  0.00  0.00    +0.000 A 
ATOM     30  H   UNL     1      54.620   7.442  15.903  0.00  0.00    +0.000 HD
ENDBRANCH  17  20
ENDBRANCH   1  16
BRANCH   1  31
ATOM     31  C   UNL     1      49.475   8.051  11.773  0.00  0.00    +0.000 C 
BRANCH  31  33
ATOM     32  N   UNL     1      49.104  10.771  11.328  0.00  0.00    +0.000 NA
ATOM     33  C   UNL     1      49.272   9.537  11.530  0.00  0.00    +0.000 C 
ENDBRANCH  31  33
ENDBRANCH   1  31
TORSDOF 8
ENDMDL
MODEL 9
REMARK VINA RESULT:    -6.816      3.542      6.218
REMARK INTER + INTRA:         -10.557
REMARK INTER:                  -9.060
REMARK INTRA:                  -1.497
REMARK UNBOUND:                -0.554
REMARK  Name = 
REMARK  8 active torsions:
REMARK  status: ('A' for Active; 'I' for Inactive)
REMARK    1  A    between atoms: C_2  and  C_3
REMARK    2  A    between atoms: C_3  and  C_4
REMARK    3  A    between atoms: C_4  and  N_5
REMARK    4  A    between atoms: C_4  and  C_18
REMARK    5  A    between atoms: C_6  and  C_8
REMARK    6  A    between atoms: C_21  and  O_22
REMARK    7  A    between atoms: O_22  and  C_23
REMARK    8  A    between atoms: C_23  and  C_24
REMARK                            x       y       z     vdW  Elec       q    Type
REMARK                         _______ _______ _______ _____ _____    ______ ____
ROOT
ATOM      1  C   UNL     1      46.062   5.785  13.034  0.00  0.00    +0.000 C 
ENDROOT
BRANCH   1   2
ATOM      2  C   UNL     1      46.816   7.036  12.623  0.00  0.00    +0.000 A 
ATOM      3  C   UNL     1      46.248   8.304  12.833  0.00  0.00    +0.000 A 
ATOM      4  C   UNL     1      46.921   9.455  12.424  0.00  0.00    +0.000 A 
ATOM      5  C   UNL     1      48.172   9.352  11.817  0.00  0.00    +0.000 A 
ATOM      6  C   UNL     1      48.726   8.095  11.579  0.00  0.00    +0.000 A 
ATOM      7  C   UNL     1      48.054   6.948  11.981  0.00  0.00    +0.000 A 
BRANCH   5   8
ATOM      8  O   UNL     1      48.775  10.532  11.477  0.00  0.00    +0.000 OA
BRANCH   8   9
ATOM      9  C   UNL     1      50.142  10.627  11.893  0.00  0.00    +0.000 C 
BRANCH   9  10
ATOM     10  C   UNL     1      51.087  10.597  10.721  0.00  0.00    +0.000 A 
ATOM     11  C   UNL     1      52.060   9.608  10.604  0.00  0.00    +0.000 A 
ATOM     12  C   UNL     1      52.838   9.567   9.452  0.00  0.00    +0.000 A 
ATOM     13  C   UNL     1      52.616  10.501   8.449  0.00  0.00    +0.000 A 
ATOM     14  C   UNL     1      51.626  11.449   8.641  0.00  0.00    +0.000 A 
ATOM     15  N   UNL     1      50.858  11.515   9.746  0.00  0.00    +0.000 NA
ENDBRANCH   9  10
ENDBRANCH   8   9
ENDBRANCH   5   8
ENDBRANCH   1   2
BRANCH   1  16
ATOM     16  N   UNL     1      46.459   5.449  14.385  0.00  0.00    +0.000 N 
ATOM     17  C   UNL     1      47.166   4.298  14.650  0.00  0.00    +0.000 C 
ATOM     18  O   UNL     1      47.398   3.461  13.787  0.00  0.00    +0.000 OA
ATOM     19  H   UNL     1      46.494   6.171  15.099  0.00  0.00    +0.000 HD
BRANCH  17  20
ATOM     20  C   UNL     1      47.626   4.194  16.040  0.00  0.00    +0.000 A 
ATOM     21  N   UNL     1      47.216   3.154  16.789  0.00  0.00    +0.000 NA
ATOM     22  S   UNL     1      47.819   3.322  18.328  0.00  0.00    +0.000 S 
ATOM     23  C   UNL     1      48.703   4.746  18.020  0.00  0.00    +0.000 A 
ATOM     24  N   UNL     1      49.476   5.382  18.938  0.00  0.00    +0.000 NA
ATOM     25  C   UNL     1      50.068   6.435  18.476  0.00  0.00    +0.000 A 
ATOM     26  N   UNL     1      49.953   6.901  17.189  0.00  0.00    +0.000 N 
ATOM     27  C   UNL     1      49.235   6.243  16.208  0.00  0.00    +0.000 A 
ATOM     28  O   UNL     1      49.300   6.603  15.041  0.00  0.00    +0.000 OA
ATOM     29  C   UNL     1      48.513   5.101  16.700  0.00  0.00    +0.000 A 
ATOM     30  H   UNL     1      50.484   7.701  16.875  0.00  0.00    +0.000 HD
ENDBRANCH  17  20
ENDBRANCH   1  16
BRANCH   1  31
ATOM     31  C   UNL     1      44.520   5.897  12.870  0.00  0.00    +0.000 C 
BRANCH  31  33
ATOM     32  N   UNL     1      43.586   3.277  12.919  0.00  0.00    +0.000 NA
ATOM     33  C   UNL     1      44.010   4.465  12.897  0.00  0.00    +0.000 C 
ENDBRANCH  31  33
ENDBRANCH   1  31
TORSDOF 8
ENDMDL
