MODEL 1
REMARK VINA RESULT:    -8.265      0.000      0.000
REMARK INTER + INTRA:         -10.934
REMARK INTER:                 -10.923
REMARK INTRA:                  -0.011
REMARK UNBOUND:                -0.011
REMARK  Name = 
REMARK  6 active torsions:
REMARK  status: ('A' for Active; 'I' for Inactive)
REMARK    1  A    between atoms: C_2  and  C_18
REMARK    2  A    between atoms: N_3  and  C_4
REMARK    3  A    between atoms: C_4  and  C_5
REMARK    4  A    between atoms: C_8  and  C_9
REMARK    5  A    between atoms: C_9  and  N_10
REMARK    6  A    between atoms: C_13  and  O_14
REMARK                            x       y       z     vdW  Elec       q    Type
REMARK                         _______ _______ _______ _____ _____    ______ ____
ROOT
ATOM      1  O   UNL     1      46.186   3.794  14.068  0.00  0.00    +0.000 OA
ATOM      2  C   UNL     1      46.334   5.006  14.168  0.00  0.00    +0.000 C 
ATOM      3  N   UNL     1      45.439   5.911  13.654  0.00  0.00    +0.000 N 
ATOM      4  H   UNL     1      45.601   6.903  13.729  0.00  0.00    +0.000 HD
ENDROOT
BRANCH   2   5
ATOM      5  C   UNL     1      47.512   5.592  14.804  0.00  0.00    +0.000 A 
ATOM      6  C   UNL     1      48.320   6.494  14.124  0.00  0.00    +0.000 A 
ATOM      7  S   UNL     1      49.587   7.110  15.090  0.00  0.00    +0.000 S 
ATOM      8  C   UNL     1      49.119   6.154  16.421  0.00  0.00    +0.000 A 
ATOM      9  N   UNL     1      49.785   6.211  17.605  0.00  0.00    +0.000 NA
ATOM     10  C   UNL     1      49.323   5.417  18.515  0.00  0.00    +0.000 A 
ATOM     11  N   UNL     1      48.268   4.556  18.340  0.00  0.00    +0.000 N 
ATOM     12  C   UNL     1      47.595   4.432  17.151  0.00  0.00    +0.000 A 
ATOM     13  O   UNL     1      46.705   3.600  17.005  0.00  0.00    +0.000 OA
ATOM     14  C   UNL     1      48.031   5.356  16.121  0.00  0.00    +0.000 A 
ATOM     15  H   UNL     1      47.973   3.940  19.082  0.00  0.00    +0.000 HD
ENDBRANCH   2   5
BRANCH   3  16
ATOM     16  C   UNL     1      44.184   5.459  13.105  0.00  0.00    +0.000 C 
BRANCH  16  17
ATOM     17  C   UNL     1      44.338   4.560  11.907  0.00  0.00    +0.000 A 
ATOM     18  C   UNL     1      43.658   3.352  11.816  0.00  0.00    +0.000 A 
ATOM     19  C   UNL     1      43.904   2.519  10.726  0.00  0.00    +0.000 A 
ATOM     20  C   UNL     1      44.806   2.933   9.758  0.00  0.00    +0.000 A 
ATOM     21  N   UNL     1      45.422   4.134   9.854  0.00  0.00    +0.000 NA
ATOM     22  N   UNL     1      45.185   4.952  10.931  0.00  0.00    +0.000 NA
BRANCH  20  23
ATOM     23  C   UNL     1      45.151   2.065   8.563  0.00  0.00    +0.000 C 
BRANCH  23  24
ATOM     24  N   UNL     1      46.359   2.473   7.813  0.00  0.00    +0.000 NA
ATOM     25  C   UNL     1      46.006   3.327   6.665  0.00  0.00    +0.000 C 
ATOM     26  C   UNL     1      46.830   2.856   5.471  0.00  0.00    +0.000 C 
ATOM     27  C   UNL     1      47.816   1.857   6.045  0.00  0.00    +0.000 C 
ATOM     28  C   UNL     1      47.100   1.313   7.277  0.00  0.00    +0.000 C 
BRANCH  27  29
ATOM     29  O   UNL     1      49.022   2.528   6.402  0.00  0.00    +0.000 OA
ATOM     30  H   UNL     1      49.109   2.425   7.366  0.00  0.00    +0.000 HD
ENDBRANCH  27  29
ENDBRANCH  23  24
ENDBRANCH  20  23
ENDBRANCH  16  17
ENDBRANCH   3  16
TORSDOF 6
ENDMDL
MODEL 2
REMARK VINA RESULT:    -8.249      2.976      3.472
REMARK INTER + INTRA:         -10.912
REMARK INTER:                 -10.171
REMARK INTRA:                  -0.741
REMARK UNBOUND:                -0.011
REMARK  Name = 
REMARK  6 active torsions:
REMARK  status: ('A' for Active; 'I' for Inactive)
REMARK    1  A    between atoms: C_2  and  C_18
REMARK    2  A    between atoms: N_3  and  C_4
REMARK    3  A    between atoms: C_4  and  C_5
REMARK    4  A    between atoms: C_8  and  C_9
REMARK    5  A    between atoms: C_9  and  N_10
REMARK    6  A    between atoms: C_13  and  O_14
REMARK                            x       y       z     vdW  Elec       q    Type
REMARK                         _______ _______ _______ _____ _____    ______ ____
ROOT
ATOM      1  O   UNL     1      44.365   8.315  11.310  0.00  0.00    +0.000 OA
ATOM      2  C   UNL     1      45.221   8.048  12.144  0.00  0.00    +0.000 C 
ATOM      3  N   UNL     1      45.100   7.004  13.027  0.00  0.00    +0.000 N 
ATOM      4  H   UNL     1      45.810   6.825  13.721  0.00  0.00    +0.000 HD
ENDROOT
BRANCH   2   5
ATOM      5  C   UNL     1      46.429   8.856  12.300  0.00  0.00    +0.000 A 
ATOM      6  C   UNL     1      46.390  10.237  12.155  0.00  0.00    +0.000 A 
ATOM      7  S   UNL     1      47.898  10.979  12.464  0.00  0.00    +0.000 S 
ATOM      8  C   UNL     1      48.648   9.476  12.749  0.00  0.00    +0.000 A 
ATOM      9  N   UNL     1      49.962   9.392  13.089  0.00  0.00    +0.000 NA
ATOM     10  C   UNL     1      50.392   8.185  13.258  0.00  0.00    +0.000 A 
ATOM     11  N   UNL     1      49.631   7.054  13.098  0.00  0.00    +0.000 N 
ATOM     12  C   UNL     1      48.315   7.087  12.714  0.00  0.00    +0.000 A 
ATOM     13  O   UNL     1      47.683   6.055  12.507  0.00  0.00    +0.000 OA
ATOM     14  C   UNL     1      47.767   8.425  12.583  0.00  0.00    +0.000 A 
ATOM     15  H   UNL     1      50.034   6.136  13.218  0.00  0.00    +0.000 HD
ENDBRANCH   2   5
BRANCH   3  16
ATOM     16  C   UNL     1      44.011   6.067  12.900  0.00  0.00    +0.000 C 
BRANCH  16  17
ATOM     17  C   UNL     1      44.273   4.971  11.900  0.00  0.00    +0.000 A 
ATOM     18  C   UNL     1      45.014   3.845  12.238  0.00  0.00    +0.000 A 
ATOM     19  C   UNL     1      45.298   2.904  11.251  0.00  0.00    +0.000 A 
ATOM     20  C   UNL     1      44.816   3.112   9.968  0.00  0.00    +0.000 A 
ATOM     21  N   UNL     1      44.062   4.199   9.680  0.00  0.00    +0.000 NA
ATOM     22  N   UNL     1      43.787   5.130  10.651  0.00  0.00    +0.000 NA
BRANCH  20  23
ATOM     23  C   UNL     1      45.115   2.150   8.835  0.00  0.00    +0.000 C 
BRANCH  23  24
ATOM     24  N   UNL     1      46.314   2.473   8.030  0.00  0.00    +0.000 NA
ATOM     25  C   UNL     1      45.976   3.377   6.917  0.00  0.00    +0.000 C 
ATOM     26  C   UNL     1      46.697   2.865   5.673  0.00  0.00    +0.000 C 
ATOM     27  C   UNL     1      47.625   1.777   6.180  0.00  0.00    +0.000 C 
ATOM     28  C   UNL     1      46.929   1.268   7.438  0.00  0.00    +0.000 C 
BRANCH  27  29
ATOM     29  O   UNL     1      48.898   2.340   6.485  0.00  0.00    +0.000 OA
ATOM     30  H   UNL     1      49.309   1.737   7.128  0.00  0.00    +0.000 HD
ENDBRANCH  27  29
ENDBRANCH  23  24
ENDBRANCH  20  23
ENDBRANCH  16  17
ENDBRANCH   3  16
TORSDOF 6
ENDMDL
MODEL 3
REMARK VINA RESULT:    -8.183      1.767      2.796
REMARK INTER + INTRA:         -10.825
REMARK INTER:                 -10.064
REMARK INTRA:                  -0.761
REMARK UNBOUND:                -0.011
REMARK  Name = 
REMARK  6 active torsions:
REMARK  status: ('A' for Active; 'I' for Inactive)
REMARK    1  A    between atoms: C_2  and  C_18
REMARK    2  A    between atoms: N_3  and  C_4
REMARK    3  A    between atoms: C_4  and  C_5
REMARK    4  A    between atoms: C_8  and  C_9
REMARK    5  A    between atoms: C_9  and  N_10
REMARK    6  A    between atoms: C_13  and  O_14
REMARK                            x       y       z     vdW  Elec       q    Type
REMARK                         _______ _______ _______ _____ _____    ______ ____
ROOT
ATOM      1  O   UNL     1      46.665   4.042  14.269  0.00  0.00    +0.000 OA
ATOM      2  C   UNL     1      46.737   5.259  14.142  0.00  0.00    +0.000 C 
ATOM      3  N   UNL     1      45.742   6.007  13.565  0.00  0.00    +0.000 N 
ATOM      4  H   UNL     1      45.841   7.004  13.450  0.00  0.00    +0.000 HD
ENDROOT
BRANCH   2   5
ATOM      5  C   UNL     1      47.920   6.011  14.554  0.00  0.00    +0.000 A 
ATOM      6  C   UNL     1      48.359   5.990  15.872  0.00  0.00    +0.000 A 
ATOM      7  S   UNL     1      49.804   6.873  16.104  0.00  0.00    +0.000 S 
ATOM      8  C   UNL     1      49.851   7.343  14.466  0.00  0.00    +0.000 A 
ATOM      9  N   UNL     1      50.861   8.112  13.977  0.00  0.00    +0.000 NA
ATOM     10  C   UNL     1      50.751   8.400  12.723  0.00  0.00    +0.000 A 
ATOM     11  N   UNL     1      49.712   8.005  11.917  0.00  0.00    +0.000 N 
ATOM     12  C   UNL     1      48.650   7.268  12.376  0.00  0.00    +0.000 A 
ATOM     13  O   UNL     1      47.700   6.994  11.648  0.00  0.00    +0.000 OA
ATOM     14  C   UNL     1      48.765   6.858  13.763  0.00  0.00    +0.000 A 
ATOM     15  H   UNL     1      49.670   8.287  10.949  0.00  0.00    +0.000 HD
ENDBRANCH   2   5
BRANCH   3  16
ATOM     16  C   UNL     1      44.480   5.398  13.222  0.00  0.00    +0.000 C 
BRANCH  16  17
ATOM     17  C   UNL     1      44.532   4.570  11.965  0.00  0.00    +0.000 A 
ATOM     18  C   UNL     1      43.965   3.303  11.909  0.00  0.00    +0.000 A 
ATOM     19  C   UNL     1      44.117   2.546  10.748  0.00  0.00    +0.000 A 
ATOM     20  C   UNL     1      44.812   3.091   9.680  0.00  0.00    +0.000 A 
ATOM     21  N   UNL     1      45.318   4.345   9.751  0.00  0.00    +0.000 NA
ATOM     22  N   UNL     1      45.174   5.088  10.897  0.00  0.00    +0.000 NA
BRANCH  20  23
ATOM     23  C   UNL     1      45.049   2.315   8.400  0.00  0.00    +0.000 C 
BRANCH  23  24
ATOM     24  N   UNL     1      46.315   2.621   7.699  0.00  0.00    +0.000 NA
ATOM     25  C   UNL     1      46.067   3.415   6.482  0.00  0.00    +0.000 C 
ATOM     26  C   UNL     1      46.934   2.833   5.369  0.00  0.00    +0.000 C 
ATOM     27  C   UNL     1      47.838   1.832   6.061  0.00  0.00    +0.000 C 
ATOM     28  C   UNL     1      47.030   1.398   7.279  0.00  0.00    +0.000 C 
BRANCH  27  29
ATOM     29  O   UNL     1      49.052   2.471   6.446  0.00  0.00    +0.000 OA
ATOM     30  H   UNL     1      49.081   2.426   7.418  0.00  0.00    +0.000 HD
ENDBRANCH  27  29
ENDBRANCH  23  24
ENDBRANCH  20  23
ENDBRANCH  16  17
ENDBRANCH   3  16
TORSDOF 6
ENDMDL
MODEL 4
REMARK VINA RESULT:    -7.883      3.804      8.471
REMARK INTER + INTRA:         -10.429
REMARK INTER:                  -9.526
REMARK INTRA:                  -0.904
REMARK UNBOUND:                -0.011
REMARK  Name = 
REMARK  6 active torsions:
REMARK  status: ('A' for Active; 'I' for Inactive)
REMARK    1  A    between atoms: C_2  and  C_18
REMARK    2  A    between atoms: N_3  and  C_4
REMARK    3  A    between atoms: C_4  and  C_5
REMARK    4  A    between atoms: C_8  and  C_9
REMARK    5  A    between atoms: C_9  and  N_10
REMARK    6  A    between atoms: C_13  and  O_14
REMARK                            x       y       z     vdW  Elec       q    Type
REMARK                         _______ _______ _______ _____ _____    ______ ____
ROOT
ATOM      1  O   UNL     1      47.711   6.936  11.666  0.00  0.00    +0.000 OA
ATOM      2  C   UNL     1      46.822   6.718  12.481  0.00  0.00    +0.000 C 
ATOM      3  N   UNL     1      47.003   6.861  13.834  0.00  0.00    +0.000 N 
ATOM      4  H   UNL     1      46.261   6.649  14.483  0.00  0.00    +0.000 HD
ENDROOT
BRANCH   2   5
ATOM      5  C   UNL     1      45.503   6.237  12.078  0.00  0.00    +0.000 A 
ATOM      6  C   UNL     1      44.551   7.105  11.559  0.00  0.00    +0.000 A 
ATOM      7  S   UNL     1      43.117   6.309  11.081  0.00  0.00    +0.000 S 
ATOM      8  C   UNL     1      43.711   4.798  11.599  0.00  0.00    +0.000 A 
ATOM      9  N   UNL     1      42.977   3.661  11.460  0.00  0.00    +0.000 NA
ATOM     10  C   UNL     1      43.553   2.597  11.913  0.00  0.00    +0.000 A 
ATOM     11  N   UNL     1      44.789   2.570  12.510  0.00  0.00    +0.000 N 
ATOM     12  C   UNL     1      45.546   3.696  12.712  0.00  0.00    +0.000 A 
ATOM     13  O   UNL     1      46.613   3.649  13.316  0.00  0.00    +0.000 OA
ATOM     14  C   UNL     1      44.972   4.906  12.154  0.00  0.00    +0.000 A 
ATOM     15  H   UNL     1      45.173   1.709  12.870  0.00  0.00    +0.000 HD
ENDBRANCH   2   5
BRANCH   3  16
ATOM     16  C   UNL     1      48.221   7.438  14.348  0.00  0.00    +0.000 C 
BRANCH  16  17
ATOM     17  C   UNL     1      48.876   6.607  15.420  0.00  0.00    +0.000 A 
ATOM     18  C   UNL     1      50.044   7.022  16.046  0.00  0.00    +0.000 A 
ATOM     19  C   UNL     1      50.654   6.175  16.968  0.00  0.00    +0.000 A 
ATOM     20  C   UNL     1      50.065   4.952  17.246  0.00  0.00    +0.000 A 
ATOM     21  N   UNL     1      48.903   4.593  16.650  0.00  0.00    +0.000 NA
ATOM     22  N   UNL     1      48.305   5.424  15.736  0.00  0.00    +0.000 NA
BRANCH  20  23
ATOM     23  C   UNL     1      50.689   3.963  18.211  0.00  0.00    +0.000 C 
BRANCH  23  24
ATOM     24  N   UNL     1      51.749   3.105  17.639  0.00  0.00    +0.000 NA
ATOM     25  C   UNL     1      51.225   1.769  17.302  0.00  0.00    +0.000 C 
ATOM     26  C   UNL     1      52.249   0.741  17.774  0.00  0.00    +0.000 C 
ATOM     27  C   UNL     1      53.461   1.555  18.182  0.00  0.00    +0.000 C 
ATOM     28  C   UNL     1      52.871   2.905  18.579  0.00  0.00    +0.000 C 
BRANCH  27  29
ATOM     29  O   UNL     1      54.346   1.684  17.072  0.00  0.00    +0.000 OA
ATOM     30  H   UNL     1      53.780   1.849  16.298  0.00  0.00    +0.000 HD
ENDBRANCH  27  29
ENDBRANCH  23  24
ENDBRANCH  20  23
ENDBRANCH  16  17
ENDBRANCH   3  16
TORSDOF 6
ENDMDL
MODEL 5
REMARK VINA RESULT:    -7.719      4.192      9.015
REMARK INTER + INTRA:         -10.212
REMARK INTER:                  -9.576
REMARK INTRA:                  -0.636
REMARK UNBOUND:                -0.011
REMARK  Name = 
REMARK  6 active torsions:
REMARK  status: ('A' for Active; 'I' for Inactive)
REMARK    1  A    between atoms: C_2  and  C_18
REMARK    2  A    between atoms: N_3  and  C_4
REMARK    3  A    between atoms: C_4  and  C_5
REMARK    4  A    between atoms: C_8  and  C_9
REMARK    5  A    between atoms: C_9  and  N_10
REMARK    6  A    between atoms: C_13  and  O_14
REMARK                            x       y       z     vdW  Elec       q    Type
REMARK                         _______ _______ _______ _____ _____    ______ ____
ROOT
ATOM      1  O   UNL     1      47.227   3.027  14.021  0.00  0.00    +0.000 OA
ATOM      2  C   UNL     1      47.017   4.127  14.519  0.00  0.00    +0.000 C 
ATOM      3  N   UNL     1      46.898   4.320  15.872  0.00  0.00    +0.000 N 
ATOM      4  H   UNL     1      46.698   5.233  16.252  0.00  0.00    +0.000 HD
ENDROOT
BRANCH   2   5
ATOM      5  C   UNL     1      46.826   5.323  13.702  0.00  0.00    +0.000 A 
ATOM      6  C   UNL     1      47.851   6.245  13.532  0.00  0.00    +0.000 A 
ATOM      7  S   UNL     1      47.429   7.518  12.472  0.00  0.00    +0.000 S 
ATOM      8  C   UNL     1      45.857   6.896  12.254  0.00  0.00    +0.000 A 
ATOM      9  N   UNL     1      44.960   7.507  11.434  0.00  0.00    +0.000 NA
ATOM     10  C   UNL     1      43.806   6.928  11.383  0.00  0.00    +0.000 A 
ATOM     11  N   UNL     1      43.461   5.805  12.093  0.00  0.00    +0.000 N 
ATOM     12  C   UNL     1      44.317   5.182  12.966  0.00  0.00    +0.000 A 
ATOM     13  O   UNL     1      43.954   4.224  13.642  0.00  0.00    +0.000 OA
ATOM     14  C   UNL     1      45.650   5.753  13.001  0.00  0.00    +0.000 A 
ATOM     15  H   UNL     1      42.532   5.417  12.031  0.00  0.00    +0.000 HD
ENDBRANCH   2   5
BRANCH   3  16
ATOM     16  C   UNL     1      47.178   3.241  16.788  0.00  0.00    +0.000 C 
BRANCH  16  17
ATOM     17  C   UNL     1      48.640   3.099  17.123  0.00  0.00    +0.000 A 
ATOM     18  C   UNL     1      49.294   4.030  17.919  0.00  0.00    +0.000 A 
ATOM     19  C   UNL     1      50.665   3.897  18.127  0.00  0.00    +0.000 A 
ATOM     20  C   UNL     1      51.329   2.827  17.547  0.00  0.00    +0.000 A 
ATOM     21  N   UNL     1      50.656   1.913  16.809  0.00  0.00    +0.000 NA
ATOM     22  N   UNL     1      49.305   2.047  16.599  0.00  0.00    +0.000 NA
BRANCH  20  23
ATOM     23  C   UNL     1      52.825   2.637  17.698  0.00  0.00    +0.000 C 
BRANCH  23  24
ATOM     24  N   UNL     1      53.235   1.487  18.533  0.00  0.00    +0.000 NA
ATOM     25  C   UNL     1      54.455   1.798  19.300  0.00  0.00    +0.000 C 
ATOM     26  C   UNL     1      55.376   0.584  19.212  0.00  0.00    +0.000 C 
ATOM     27  C   UNL     1      54.537  -0.497  18.558  0.00  0.00    +0.000 C 
ATOM     28  C   UNL     1      53.528   0.286  17.724  0.00  0.00    +0.000 C 
BRANCH  27  29
ATOM     29  O   UNL     1      53.887  -1.270  19.564  0.00  0.00    +0.000 OA
ATOM     30  H   UNL     1      54.587  -1.554  20.176  0.00  0.00    +0.000 HD
ENDBRANCH  27  29
ENDBRANCH  23  24
ENDBRANCH  20  23
ENDBRANCH  16  17
ENDBRANCH   3  16
TORSDOF 6
ENDMDL
MODEL 6
REMARK VINA RESULT:    -7.550      3.716      6.089
REMARK INTER + INTRA:          -9.989
REMARK INTER:                  -9.238
REMARK INTRA:                  -0.751
REMARK UNBOUND:                -0.011
REMARK  Name = 
REMARK  6 active torsions:
REMARK  status: ('A' for Active; 'I' for Inactive)
REMARK    1  A    between atoms: C_2  and  C_18
REMARK    2  A    between atoms: N_3  and  C_4
REMARK    3  A    between atoms: C_4  and  C_5
REMARK    4  A    between atoms: C_8  and  C_9
REMARK    5  A    between atoms: C_9  and  N_10
REMARK    6  A    between atoms: C_13  and  O_14
REMARK                            x       y       z     vdW  Elec       q    Type
REMARK                         _______ _______ _______ _____ _____    ______ ____
ROOT
ATOM      1  O   UNL     1      50.435   1.410  16.306  0.00  0.00    +0.000 OA
ATOM      2  C   UNL     1      50.728   2.193  17.201  0.00  0.00    +0.000 C 
ATOM      3  N   UNL     1      49.803   2.995  17.821  0.00  0.00    +0.000 N 
ATOM      4  H   UNL     1      50.079   3.650  18.537  0.00  0.00    +0.000 HD
ENDROOT
BRANCH   2   5
ATOM      5  C   UNL     1      52.106   2.373  17.651  0.00  0.00    +0.000 A 
ATOM      6  C   UNL     1      52.861   1.296  18.098  0.00  0.00    +0.000 A 
ATOM      7  S   UNL     1      54.466   1.728  18.493  0.00  0.00    +0.000 S 
ATOM      8  C   UNL     1      54.180   3.367  18.125  0.00  0.00    +0.000 A 
ATOM      9  N   UNL     1      55.163   4.301  18.232  0.00  0.00    +0.000 NA
ATOM     10  C   UNL     1      54.791   5.502  17.934  0.00  0.00    +0.000 A 
ATOM     11  N   UNL     1      53.519   5.857  17.559  0.00  0.00    +0.000 N 
ATOM     12  C   UNL     1      52.485   4.959  17.481  0.00  0.00    +0.000 A 
ATOM     13  O   UNL     1      51.343   5.321  17.216  0.00  0.00    +0.000 OA
ATOM     14  C   UNL     1      52.872   3.584  17.735  0.00  0.00    +0.000 A 
ATOM     15  H   UNL     1      53.285   6.820  17.367  0.00  0.00    +0.000 HD
ENDBRANCH   2   5
BRANCH   3  16
ATOM     16  C   UNL     1      48.397   2.830  17.546  0.00  0.00    +0.000 C 
BRANCH  16  17
ATOM     17  C   UNL     1      47.939   3.538  16.298  0.00  0.00    +0.000 A 
ATOM     18  C   UNL     1      47.789   4.918  16.262  0.00  0.00    +0.000 A 
ATOM     19  C   UNL     1      47.280   5.512  15.109  0.00  0.00    +0.000 A 
ATOM     20  C   UNL     1      46.958   4.707  14.027  0.00  0.00    +0.000 A 
ATOM     21  N   UNL     1      47.154   3.369  14.079  0.00  0.00    +0.000 NA
ATOM     22  N   UNL     1      47.649   2.782  15.217  0.00  0.00    +0.000 NA
BRANCH  20  23
ATOM     23  C   UNL     1      46.366   5.278  12.754  0.00  0.00    +0.000 C 
BRANCH  23  24
ATOM     24  N   UNL     1      45.330   4.443  12.108  0.00  0.00    +0.000 NA
ATOM     25  C   UNL     1      45.209   4.762  10.674  0.00  0.00    +0.000 C 
ATOM     26  C   UNL     1      43.722   4.832  10.342  0.00  0.00    +0.000 C 
ATOM     27  C   UNL     1      43.019   4.321  11.585  0.00  0.00    +0.000 C 
ATOM     28  C   UNL     1      43.996   4.647  12.710  0.00  0.00    +0.000 C 
BRANCH  27  29
ATOM     29  O   UNL     1      42.810   2.915  11.472  0.00  0.00    +0.000 OA
ATOM     30  H   UNL     1      43.697   2.516  11.436  0.00  0.00    +0.000 HD
ENDBRANCH  27  29
ENDBRANCH  23  24
ENDBRANCH  20  23
ENDBRANCH  16  17
ENDBRANCH   3  16
TORSDOF 6
ENDMDL
MODEL 7
REMARK VINA RESULT:    -7.543      2.825      9.330
REMARK INTER + INTRA:          -9.979
REMARK INTER:                  -9.104
REMARK INTRA:                  -0.876
REMARK UNBOUND:                -0.011
REMARK  Name = 
REMARK  6 active torsions:
REMARK  status: ('A' for Active; 'I' for Inactive)
REMARK    1  A    between atoms: C_2  and  C_18
REMARK    2  A    between atoms: N_3  and  C_4
REMARK    3  A    between atoms: C_4  and  C_5
REMARK    4  A    between atoms: C_8  and  C_9
REMARK    5  A    between atoms: C_9  and  N_10
REMARK    6  A    between atoms: C_13  and  O_14
REMARK                            x       y       z     vdW  Elec       q    Type
REMARK                         _______ _______ _______ _____ _____    ______ ____
ROOT
ATOM      1  O   UNL     1      44.714   7.108  12.493  0.00  0.00    +0.000 OA
ATOM      2  C   UNL     1      45.436   6.197  12.107  0.00  0.00    +0.000 C 
ATOM      3  N   UNL     1      46.797   6.325  11.987  0.00  0.00    +0.000 N 
ATOM      4  H   UNL     1      47.363   5.565  11.640  0.00  0.00    +0.000 HD
ENDROOT
BRANCH   2   5
ATOM      5  C   UNL     1      44.896   4.905  11.690  0.00  0.00    +0.000 A 
ATOM      6  C   UNL     1      44.254   4.071  12.597  0.00  0.00    +0.000 A 
ATOM      7  S   UNL     1      43.632   2.654  11.872  0.00  0.00    +0.000 S 
ATOM      8  C   UNL     1      44.244   3.095  10.344  0.00  0.00    +0.000 A 
ATOM      9  N   UNL     1      44.046   2.315   9.248  0.00  0.00    +0.000 NA
ATOM     10  C   UNL     1      44.582   2.772   8.164  0.00  0.00    +0.000 A 
ATOM     11  N   UNL     1      45.317   3.929   8.083  0.00  0.00    +0.000 N 
ATOM     12  C   UNL     1      45.581   4.724   9.169  0.00  0.00    +0.000 A 
ATOM     13  O   UNL     1      46.303   5.712   9.077  0.00  0.00    +0.000 OA
ATOM     14  C   UNL     1      44.937   4.290  10.395  0.00  0.00    +0.000 A 
ATOM     15  H   UNL     1      45.734   4.218   7.211  0.00  0.00    +0.000 HD
ENDBRANCH   2   5
BRANCH   3  16
ATOM     16  C   UNL     1      47.461   7.510  12.473  0.00  0.00    +0.000 C 
BRANCH  16  17
ATOM     17  C   UNL     1      47.981   7.376  13.880  0.00  0.00    +0.000 A 
ATOM     18  C   UNL     1      48.213   8.490  14.676  0.00  0.00    +0.000 A 
ATOM     19  C   UNL     1      48.776   8.313  15.938  0.00  0.00    +0.000 A 
ATOM     20  C   UNL     1      49.068   7.028  16.367  0.00  0.00    +0.000 A 
ATOM     21  N   UNL     1      48.793   5.958  15.584  0.00  0.00    +0.000 NA
ATOM     22  N   UNL     1      48.244   6.132  14.337  0.00  0.00    +0.000 NA
BRANCH  20  23
ATOM     23  C   UNL     1      49.714   6.760  17.712  0.00  0.00    +0.000 C 
BRANCH  23  24
ATOM     24  N   UNL     1      49.031   5.754  18.553  0.00  0.00    +0.000 NA
ATOM     25  C   UNL     1      47.732   6.258  19.033  0.00  0.00    +0.000 C 
ATOM     26  C   UNL     1      47.610   5.885  20.508  0.00  0.00    +0.000 C 
ATOM     27  C   UNL     1      48.783   4.963  20.776  0.00  0.00    +0.000 C 
ATOM     28  C   UNL     1      49.823   5.394  19.747  0.00  0.00    +0.000 C 
BRANCH  27  29
ATOM     29  O   UNL     1      48.383   3.610  20.571  0.00  0.00    +0.000 OA
ATOM     30  H   UNL     1      49.106   3.191  20.073  0.00  0.00    +0.000 HD
ENDBRANCH  27  29
ENDBRANCH  23  24
ENDBRANCH  20  23
ENDBRANCH  16  17
ENDBRANCH   3  16
TORSDOF 6
ENDMDL
MODEL 8
REMARK VINA RESULT:    -7.470      1.773      2.254
REMARK INTER + INTRA:          -9.883
REMARK INTER:                  -9.261
REMARK INTRA:                  -0.622
REMARK UNBOUND:                -0.011
REMARK  Name = 
REMARK  6 active torsions:
REMARK  status: ('A' for Active; 'I' for Inactive)
REMARK    1  A    between atoms: C_2  and  C_18
REMARK    2  A    between atoms: N_3  and  C_4
REMARK    3  A    between atoms: C_4  and  C_5
REMARK    4  A    between atoms: C_8  and  C_9
REMARK    5  A    between atoms: C_9  and  N_10
REMARK    6  A    between atoms: C_13  and  O_14
REMARK                            x       y       z     vdW  Elec       q    Type
REMARK                         _______ _______ _______ _____ _____    ______ ____
ROOT
ATOM      1  O   UNL     1      48.963   7.929  13.679  0.00  0.00    +0.000 OA
ATOM      2  C   UNL     1      48.170   7.288  14.357  0.00  0.00    +0.000 C 
ATOM      3  N   UNL     1      46.848   7.143  14.019  0.00  0.00    +0.000 N 
ATOM      4  H   UNL     1      46.212   6.631  14.612  0.00  0.00    +0.000 HD
ENDROOT
BRANCH   2   5
ATOM      5  C   UNL     1      48.560   6.663  15.619  0.00  0.00    +0.000 A 
ATOM      6  C   UNL     1      49.334   7.346  16.548  0.00  0.00    +0.000 A 
ATOM      7  S   UNL     1      49.595   6.451  17.981  0.00  0.00    +0.000 S 
ATOM      8  C   UNL     1      48.726   5.116  17.377  0.00  0.00    +0.000 A 
ATOM      9  N   UNL     1      48.547   3.991  18.120  0.00  0.00    +0.000 NA
ATOM     10  C   UNL     1      47.881   3.058  17.523  0.00  0.00    +0.000 A 
ATOM     11  N   UNL     1      47.395   3.142  16.242  0.00  0.00    +0.000 N 
ATOM     12  C   UNL     1      47.590   4.237  15.439  0.00  0.00    +0.000 A 
ATOM     13  O   UNL     1      47.207   4.250  14.273  0.00  0.00    +0.000 OA
ATOM     14  C   UNL     1      48.270   5.340  16.092  0.00  0.00    +0.000 A 
ATOM     15  H   UNL     1      46.906   2.366  15.821  0.00  0.00    +0.000 HD
ENDBRANCH   2   5
BRANCH   3  16
ATOM     16  C   UNL     1      46.368   7.616  12.743  0.00  0.00    +0.000 C 
BRANCH  16  17
ATOM     17  C   UNL     1      45.920   6.512  11.821  0.00  0.00    +0.000 A 
ATOM     18  C   UNL     1      45.090   5.490  12.265  0.00  0.00    +0.000 A 
ATOM     19  C   UNL     1      44.776   4.449  11.393  0.00  0.00    +0.000 A 
ATOM     20  C   UNL     1      45.286   4.478  10.105  0.00  0.00    +0.000 A 
ATOM     21  N   UNL     1      46.059   5.509   9.689  0.00  0.00    +0.000 NA
ATOM     22  N   UNL     1      46.374   6.532  10.549  0.00  0.00    +0.000 NA
BRANCH  20  23
ATOM     23  C   UNL     1      45.018   3.364   9.113  0.00  0.00    +0.000 C 
BRANCH  23  24
ATOM     24  N   UNL     1      46.178   2.952   8.293  0.00  0.00    +0.000 NA
ATOM     25  C   UNL     1      46.146   3.595   6.968  0.00  0.00    +0.000 C 
ATOM     26  C   UNL     1      46.502   2.533   5.932  0.00  0.00    +0.000 C 
ATOM     27  C   UNL     1      46.952   1.332   6.742  0.00  0.00    +0.000 C 
ATOM     28  C   UNL     1      46.210   1.493   8.065  0.00  0.00    +0.000 C 
BRANCH  27  29
ATOM     29  O   UNL     1      48.364   1.386   6.931  0.00  0.00    +0.000 OA
ATOM     30  H   UNL     1      48.530   1.006   7.811  0.00  0.00    +0.000 HD
ENDBRANCH  27  29
ENDBRANCH  23  24
ENDBRANCH  20  23
ENDBRANCH  16  17
ENDBRANCH   3  16
TORSDOF 6
ENDMDL
MODEL 9
REMARK VINA RESULT:    -7.448      3.302      4.640
REMARK INTER + INTRA:          -9.854
REMARK INTER:                  -9.026
REMARK INTRA:                  -0.828
REMARK UNBOUND:                -0.011
REMARK  Name = 
REMARK  6 active torsions:
REMARK  status: ('A' for Active; 'I' for Inactive)
REMARK    1  A    between atoms: C_2  and  C_18
REMARK    2  A    between atoms: N_3  and  C_4
REMARK    3  A    between atoms: C_4  and  C_5
REMARK    4  A    between atoms: C_8  and  C_9
REMARK    5  A    between atoms: C_9  and  N_10
REMARK    6  A    between atoms: C_13  and  O_14
REMARK                            x       y       z     vdW  Elec       q    Type
REMARK                         _______ _______ _______ _____ _____    ______ ____
ROOT
ATOM      1  O   UNL     1      50.292   7.420  14.613  0.00  0.00    +0.000 OA
ATOM      2  C   UNL     1      49.330   7.179  15.332  0.00  0.00    +0.000 C 
ATOM      3  N   UNL     1      48.112   7.794  15.175  0.00  0.00    +0.000 N 
ATOM      4  H   UNL     1      47.345   7.595  15.800  0.00  0.00    +0.000 HD
ENDROOT
BRANCH   2   5
ATOM      5  C   UNL     1      49.415   6.248  16.454  0.00  0.00    +0.000 A 
ATOM      6  C   UNL     1      50.352   6.428  17.464  0.00  0.00    +0.000 A 
ATOM      7  S   UNL     1      50.213   5.268  18.712  0.00  0.00    +0.000 S 
ATOM      8  C   UNL     1      48.936   4.472  17.912  0.00  0.00    +0.000 A 
ATOM      9  N   UNL     1      48.329   3.382  18.455  0.00  0.00    +0.000 NA
ATOM     10  C   UNL     1      47.389   2.878  17.725  0.00  0.00    +0.000 A 
ATOM     11  N   UNL     1      47.015   3.354  16.493  0.00  0.00    +0.000 N 
ATOM     12  C   UNL     1      47.628   4.420  15.886  0.00  0.00    +0.000 A 
ATOM     13  O   UNL     1      47.320   4.773  14.752  0.00  0.00    +0.000 OA
ATOM     14  C   UNL     1      48.642   5.065  16.700  0.00  0.00    +0.000 A 
ATOM     15  H   UNL     1      46.290   2.897  15.959  0.00  0.00    +0.000 HD
ENDBRANCH   2   5
BRANCH   3  16
ATOM     16  C   UNL     1      47.868   8.646  14.037  0.00  0.00    +0.000 C 
BRANCH  16  17
ATOM     17  C   UNL     1      46.979   8.020  12.995  0.00  0.00    +0.000 A 
ATOM     18  C   UNL     1      45.704   8.509  12.743  0.00  0.00    +0.000 A 
ATOM     19  C   UNL     1      44.893   7.840  11.829  0.00  0.00    +0.000 A 
ATOM     20  C   UNL     1      45.391   6.717  11.188  0.00  0.00    +0.000 A 
ATOM     21  N   UNL     1      46.654   6.288  11.425  0.00  0.00    +0.000 NA
ATOM     22  N   UNL     1      47.452   6.944  12.329  0.00  0.00    +0.000 NA
BRANCH  20  23
ATOM     23  C   UNL     1      44.555   5.916  10.209  0.00  0.00    +0.000 C 
BRANCH  23  24
ATOM     24  N   UNL     1      43.801   4.788  10.797  0.00  0.00    +0.000 NA
ATOM     25  C   UNL     1      43.125   5.194  12.042  0.00  0.00    +0.000 C 
ATOM     26  C   UNL     1      43.335   4.080  13.064  0.00  0.00    +0.000 C 
ATOM     27  C   UNL     1      43.958   2.942  12.279  0.00  0.00    +0.000 C 
ATOM     28  C   UNL     1      44.677   3.647  11.133  0.00  0.00    +0.000 C 
BRANCH  27  29
ATOM     29  O   UNL     1      42.933   2.078  11.793  0.00  0.00    +0.000 OA
ATOM     30  H   UNL     1      42.121   2.338  12.263  0.00  0.00    +0.000 HD
ENDBRANCH  27  29
ENDBRANCH  23  24
ENDBRANCH  20  23
ENDBRANCH  16  17
ENDBRANCH   3  16
TORSDOF 6
ENDMDL
