MODEL 1
REMARK VINA RESULT:    -7.962      0.000      0.000
REMARK INTER + INTRA:         -13.070
REMARK INTER:                 -12.384
REMARK INTRA:                  -0.686
REMARK UNBOUND:                -0.686
REMARK  Name = 
REMARK  10 active torsions:
REMARK  status: ('A' for Active; 'I' for Inactive)
REMARK    1  A    between atoms: C_2  and  C_3
REMARK    2  A    between atoms: C_3  and  N_4
REMARK    3  A    between atoms: C_3  and  C_21
REMARK    4  A    between atoms: N_4  and  C_5
REMARK    5  A    between atoms: C_5  and  C_6
REMARK    6  A    between atoms: C_9  and  C_10
REMARK    7  A    between atoms: C_10  and  C_11
REMARK    8  A    between atoms: C_10  and  C_13
REMARK    9  A    between atoms: C_11  and  O_12
REMARK   10  A    between atoms: C_13  and  C_14
REMARK                            x       y       z     vdW  Elec       q    Type
REMARK                         _______ _______ _______ _____ _____    ______ ____
ROOT
ATOM      1  C   UNL     1      48.206   6.121  15.150  0.00  0.00    +0.000 C 
ENDROOT
BRANCH   1   2
ATOM      2  C   UNL     1      47.332   5.681  14.002  0.00  0.00    +0.000 A 
ATOM      3  C   UNL     1      46.730   4.415  14.002  0.00  0.00    +0.000 A 
ATOM      4  C   UNL     1      45.918   4.009  12.941  0.00  0.00    +0.000 A 
ATOM      5  C   UNL     1      45.683   4.872  11.856  0.00  0.00    +0.000 A 
ATOM      6  C   UNL     1      46.254   6.148  11.882  0.00  0.00    +0.000 A 
ATOM      7  C   UNL     1      47.071   6.549  12.937  0.00  0.00    +0.000 A 
BRANCH   5   8
ATOM      8  C   UNL     1      44.857   4.404  10.664  0.00  0.00    +0.000 C 
BRANCH   8   9
ATOM      9  C   UNL     1      43.388   4.865  10.771  0.00  0.00    +0.000 C 
BRANCH   9  10
ATOM     10  O   UNL     1      42.552   3.849  11.326  0.00  0.00    +0.000 OA
ATOM     11  H   UNL     1      43.024   3.443  12.072  0.00  0.00    +0.000 HD
ENDBRANCH   9  10
ENDBRANCH   8   9
BRANCH   8  12
ATOM     12  C   UNL     1      45.493   4.872   9.322  0.00  0.00    +0.000 C 
BRANCH  12  13
ATOM     13  C   UNL     1      45.224   3.906   8.144  0.00  0.00    +0.000 C 
ATOM     14  C   UNL     1      44.795   2.503   8.576  0.00  0.00    +0.000 C 
ATOM     15  C   UNL     1      46.045   1.662   8.435  0.00  0.00    +0.000 C 
ATOM     16  N   UNL     1      46.736   2.224   7.274  0.00  0.00    +0.000 NA
ATOM     17  C   UNL     1      46.479   3.667   7.299  0.00  0.00    +0.000 C 
ATOM     18  H   UNL     1      46.328   1.836   6.424  0.00  0.00    +0.000 HD
ENDBRANCH  12  13
ENDBRANCH   8  12
ENDBRANCH   5   8
ENDBRANCH   1   2
BRANCH   1  19
ATOM     19  N   UNL     1      48.894   4.981  15.770  0.00  0.00    +0.000 NA
ATOM     20  H   UNL     1      49.899   5.140  15.693  0.00  0.00    +0.000 HD
BRANCH  19  21
ATOM     21  C   UNL     1      48.559   4.850  17.202  0.00  0.00    +0.000 C 
BRANCH  21  22
ATOM     22  C   UNL     1      49.843   4.438  17.917  0.00  0.00    +0.000 A 
ATOM     23  C   UNL     1      50.468   5.192  18.902  0.00  0.00    +0.000 A 
ATOM     24  S   UNL     1      51.927   4.510  19.467  0.00  0.00    +0.000 S 
ATOM     25  C   UNL     1      51.755   3.151  18.453  0.00  0.00    +0.000 A 
ATOM     26  N   UNL     1      52.686   2.163  18.444  0.00  0.00    +0.000 NA
ATOM     27  C   UNL     1      52.418   1.186  17.644  0.00  0.00    +0.000 A 
ATOM     28  N   UNL     1      51.294   1.104  16.860  0.00  0.00    +0.000 N 
ATOM     29  C   UNL     1      50.315   2.076  16.846  0.00  0.00    +0.000 A 
ATOM     30  O   UNL     1      49.293   1.964  16.178  0.00  0.00    +0.000 OA
ATOM     31  C   UNL     1      50.590   3.211  17.705  0.00  0.00    +0.000 A 
ATOM     32  H   UNL     1      51.137   0.293  16.282  0.00  0.00    +0.000 HD
ENDBRANCH  21  22
BRANCH  21  34
ATOM     33  N   UNL     1      46.648   3.058  17.621  0.00  0.00    +0.000 NA
ATOM     34  C   UNL     1      47.477   3.853  17.466  0.00  0.00    +0.000 C 
ENDBRANCH  21  34
ENDBRANCH  19  21
ENDBRANCH   1  19
TORSDOF 10
ENDMDL
MODEL 2
REMARK VINA RESULT:    -7.302      1.884      2.256
REMARK INTER + INTRA:         -12.043
REMARK INTER:                 -10.879
REMARK INTRA:                  -1.164
REMARK UNBOUND:                -0.686
REMARK  Name = 
REMARK  10 active torsions:
REMARK  status: ('A' for Active; 'I' for Inactive)
REMARK    1  A    between atoms: C_2  and  C_3
REMARK    2  A    between atoms: C_3  and  N_4
REMARK    3  A    between atoms: C_3  and  C_21
REMARK    4  A    between atoms: N_4  and  C_5
REMARK    5  A    between atoms: C_5  and  C_6
REMARK    6  A    between atoms: C_9  and  C_10
REMARK    7  A    between atoms: C_10  and  C_11
REMARK    8  A    between atoms: C_10  and  C_13
REMARK    9  A    between atoms: C_11  and  O_12
REMARK   10  A    between atoms: C_13  and  C_14
REMARK                            x       y       z     vdW  Elec       q    Type
REMARK                         _______ _______ _______ _____ _____    ______ ____
ROOT
ATOM      1  C   UNL     1      48.751   6.723  14.740  0.00  0.00    +0.000 C 
ENDROOT
BRANCH   1   2
ATOM      2  C   UNL     1      47.753   6.212  13.730  0.00  0.00    +0.000 A 
ATOM      3  C   UNL     1      47.036   5.031  13.964  0.00  0.00    +0.000 A 
ATOM      4  C   UNL     1      46.109   4.560  13.031  0.00  0.00    +0.000 A 
ATOM      5  C   UNL     1      45.876   5.272  11.841  0.00  0.00    +0.000 A 
ATOM      6  C   UNL     1      46.565   6.470  11.634  0.00  0.00    +0.000 A 
ATOM      7  C   UNL     1      47.496   6.935  12.561  0.00  0.00    +0.000 A 
BRANCH   5   8
ATOM      8  C   UNL     1      44.920   4.723  10.790  0.00  0.00    +0.000 C 
BRANCH   8   9
ATOM      9  C   UNL     1      43.476   5.220  11.014  0.00  0.00    +0.000 C 
BRANCH   9  10
ATOM     10  O   UNL     1      42.596   4.153  11.366  0.00  0.00    +0.000 OA
ATOM     11  H   UNL     1      42.272   3.745  10.545  0.00  0.00    +0.000 HD
ENDBRANCH   9  10
ENDBRANCH   8   9
BRANCH   8  12
ATOM     12  C   UNL     1      45.411   5.063   9.352  0.00  0.00    +0.000 C 
BRANCH  12  13
ATOM     13  C   UNL     1      45.000   4.010   8.296  0.00  0.00    +0.000 C 
ATOM     14  C   UNL     1      44.606   2.657   8.888  0.00  0.00    +0.000 C 
ATOM     15  C   UNL     1      45.823   1.780   8.680  0.00  0.00    +0.000 C 
ATOM     16  N   UNL     1      46.386   2.231   7.407  0.00  0.00    +0.000 NA
ATOM     17  C   UNL     1      46.150   3.677   7.340  0.00  0.00    +0.000 C 
ATOM     18  H   UNL     1      45.880   1.784   6.642  0.00  0.00    +0.000 HD
ENDBRANCH  12  13
ENDBRANCH   8  12
ENDBRANCH   5   8
ENDBRANCH   1   2
BRANCH   1  19
ATOM     19  N   UNL     1      48.082   7.321  15.902  0.00  0.00    +0.000 NA
ATOM     20  H   UNL     1      47.130   6.954  15.940  0.00  0.00    +0.000 HD
BRANCH  19  21
ATOM     21  C   UNL     1      48.758   6.970  17.167  0.00  0.00    +0.000 C 
BRANCH  21  22
ATOM     22  C   UNL     1      48.703   5.450  17.288  0.00  0.00    +0.000 A 
ATOM     23  C   UNL     1      47.529   4.709  17.339  0.00  0.00    +0.000 A 
ATOM     24  S   UNL     1      47.782   3.034  17.547  0.00  0.00    +0.000 S 
ATOM     25  C   UNL     1      49.475   3.225  17.525  0.00  0.00    +0.000 A 
ATOM     26  N   UNL     1      50.301   2.157  17.663  0.00  0.00    +0.000 NA
ATOM     27  C   UNL     1      51.558   2.445  17.607  0.00  0.00    +0.000 A 
ATOM     28  N   UNL     1      52.062   3.707  17.413  0.00  0.00    +0.000 N 
ATOM     29  C   UNL     1      51.262   4.820  17.255  0.00  0.00    +0.000 A 
ATOM     30  O   UNL     1      51.728   5.932  17.033  0.00  0.00    +0.000 OA
ATOM     31  C   UNL     1      49.841   4.550  17.344  0.00  0.00    +0.000 A 
ATOM     32  H   UNL     1      53.058   3.851  17.348  0.00  0.00    +0.000 HD
ENDBRANCH  21  22
BRANCH  21  34
ATOM     33  N   UNL     1      47.698   8.109  19.317  0.00  0.00    +0.000 NA
ATOM     34  C   UNL     1      48.132   7.608  18.366  0.00  0.00    +0.000 C 
ENDBRANCH  21  34
ENDBRANCH  19  21
ENDBRANCH   1  19
TORSDOF 10
ENDMDL
MODEL 3
REMARK VINA RESULT:    -6.968      2.375      3.258
REMARK INTER + INTRA:         -11.524
REMARK INTER:                 -10.313
REMARK INTRA:                  -1.211
REMARK UNBOUND:                -0.686
REMARK  Name = 
REMARK  10 active torsions:
REMARK  status: ('A' for Active; 'I' for Inactive)
REMARK    1  A    between atoms: C_2  and  C_3
REMARK    2  A    between atoms: C_3  and  N_4
REMARK    3  A    between atoms: C_3  and  C_21
REMARK    4  A    between atoms: N_4  and  C_5
REMARK    5  A    between atoms: C_5  and  C_6
REMARK    6  A    between atoms: C_9  and  C_10
REMARK    7  A    between atoms: C_10  and  C_11
REMARK    8  A    between atoms: C_10  and  C_13
REMARK    9  A    between atoms: C_11  and  O_12
REMARK   10  A    between atoms: C_13  and  C_14
REMARK                            x       y       z     vdW  Elec       q    Type
REMARK                         _______ _______ _______ _____ _____    ______ ____
ROOT
ATOM      1  C   UNL     1      48.479   6.834  14.130  0.00  0.00    +0.000 C 
ENDROOT
BRANCH   1   2
ATOM      2  C   UNL     1      47.466   6.040  13.342  0.00  0.00    +0.000 A 
ATOM      3  C   UNL     1      46.964   4.827  13.834  0.00  0.00    +0.000 A 
ATOM      4  C   UNL     1      46.023   4.095  13.106  0.00  0.00    +0.000 A 
ATOM      5  C   UNL     1      45.558   4.570  11.866  0.00  0.00    +0.000 A 
ATOM      6  C   UNL     1      46.033   5.799  11.402  0.00  0.00    +0.000 A 
ATOM      7  C   UNL     1      46.978   6.526  12.124  0.00  0.00    +0.000 A 
BRANCH   5   8
ATOM      8  C   UNL     1      44.588   3.737  11.038  0.00  0.00    +0.000 C 
BRANCH   8   9
ATOM      9  C   UNL     1      43.349   3.319  11.858  0.00  0.00    +0.000 C 
BRANCH   9  10
ATOM     10  O   UNL     1      43.278   1.904  12.029  0.00  0.00    +0.000 OA
ATOM     11  H   UNL     1      44.182   1.550  11.996  0.00  0.00    +0.000 HD
ENDBRANCH   9  10
ENDBRANCH   8   9
BRANCH   8  12
ATOM     12  C   UNL     1      44.172   4.488   9.739  0.00  0.00    +0.000 C 
BRANCH  12  13
ATOM     13  C   UNL     1      44.409   3.666   8.450  0.00  0.00    +0.000 C 
ATOM     14  C   UNL     1      44.479   2.156   8.680  0.00  0.00    +0.000 C 
ATOM     15  C   UNL     1      45.959   1.836   8.659  0.00  0.00    +0.000 C 
ATOM     16  N   UNL     1      46.520   2.763   7.675  0.00  0.00    +0.000 NA
ATOM     17  C   UNL     1      45.750   4.005   7.792  0.00  0.00    +0.000 C 
ATOM     18  H   UNL     1      46.380   2.381   6.740  0.00  0.00    +0.000 HD
ENDBRANCH  12  13
ENDBRANCH   8  12
ENDBRANCH   5   8
ENDBRANCH   1   2
BRANCH   1  19
ATOM     19  N   UNL     1      48.030   7.059  15.509  0.00  0.00    +0.000 NA
ATOM     20  H   UNL     1      47.821   6.150  15.925  0.00  0.00    +0.000 HD
BRANCH  19  21
ATOM     21  C   UNL     1      49.073   7.708  16.329  0.00  0.00    +0.000 C 
BRANCH  21  22
ATOM     22  C   UNL     1      48.690   7.481  17.788  0.00  0.00    +0.000 A 
ATOM     23  C   UNL     1      48.158   8.458  18.620  0.00  0.00    +0.000 A 
ATOM     24  S   UNL     1      47.896   7.929  20.221  0.00  0.00    +0.000 S 
ATOM     25  C   UNL     1      48.436   6.355  19.854  0.00  0.00    +0.000 A 
ATOM     26  N   UNL     1      48.470   5.387  20.806  0.00  0.00    +0.000 NA
ATOM     27  C   UNL     1      48.880   4.239  20.383  0.00  0.00    +0.000 A 
ATOM     28  N   UNL     1      49.249   3.969  19.089  0.00  0.00    +0.000 N 
ATOM     29  C   UNL     1      49.219   4.916  18.085  0.00  0.00    +0.000 A 
ATOM     30  O   UNL     1      49.504   4.646  16.924  0.00  0.00    +0.000 OA
ATOM     31  C   UNL     1      48.795   6.232  18.521  0.00  0.00    +0.000 A 
ATOM     32  H   UNL     1      49.530   3.037  18.825  0.00  0.00    +0.000 HD
ENDBRANCH  21  22
BRANCH  21  34
ATOM     33  N   UNL     1      49.354  10.291  15.790  0.00  0.00    +0.000 NA
ATOM     34  C   UNL     1      49.215   9.170  16.051  0.00  0.00    +0.000 C 
ENDBRANCH  21  34
ENDBRANCH  19  21
ENDBRANCH   1  19
TORSDOF 10
ENDMDL
MODEL 4
REMARK VINA RESULT:    -6.894      2.482      3.392
REMARK INTER + INTRA:         -11.410
REMARK INTER:                  -9.974
REMARK INTRA:                  -1.436
REMARK UNBOUND:                -0.686
REMARK  Name = 
REMARK  10 active torsions:
REMARK  status: ('A' for Active; 'I' for Inactive)
REMARK    1  A    between atoms: C_2  and  C_3
REMARK    2  A    between atoms: C_3  and  N_4
REMARK    3  A    between atoms: C_3  and  C_21
REMARK    4  A    between atoms: N_4  and  C_5
REMARK    5  A    between atoms: C_5  and  C_6
REMARK    6  A    between atoms: C_9  and  C_10
REMARK    7  A    between atoms: C_10  and  C_11
REMARK    8  A    between atoms: C_10  and  C_13
REMARK    9  A    between atoms: C_11  and  O_12
REMARK   10  A    between atoms: C_13  and  C_14
REMARK                            x       y       z     vdW  Elec       q    Type
REMARK                         _______ _______ _______ _____ _____    ______ ____
ROOT
ATOM      1  C   UNL     1      47.082   8.933  13.404  0.00  0.00    +0.000 C 
ENDROOT
BRANCH   1   2
ATOM      2  C   UNL     1      46.555   7.701  12.709  0.00  0.00    +0.000 A 
ATOM      3  C   UNL     1      45.286   7.191  13.017  0.00  0.00    +0.000 A 
ATOM      4  C   UNL     1      44.797   6.053  12.371  0.00  0.00    +0.000 A 
ATOM      5  C   UNL     1      45.571   5.405  11.392  0.00  0.00    +0.000 A 
ATOM      6  C   UNL     1      46.818   5.943  11.062  0.00  0.00    +0.000 A 
ATOM      7  C   UNL     1      47.309   7.074  11.713  0.00  0.00    +0.000 A 
BRANCH   5   8
ATOM      8  C   UNL     1      45.070   4.123  10.739  0.00  0.00    +0.000 C 
BRANCH   8   9
ATOM      9  C   UNL     1      44.384   3.192  11.761  0.00  0.00    +0.000 C 
BRANCH   9  10
ATOM     10  O   UNL     1      45.295   2.737  12.761  0.00  0.00    +0.000 OA
ATOM     11  H   UNL     1      45.501   3.486  13.345  0.00  0.00    +0.000 HD
ENDBRANCH   9  10
ENDBRANCH   8   9
BRANCH   8  12
ATOM     12  C   UNL     1      44.123   4.435   9.543  0.00  0.00    +0.000 C 
BRANCH  12  13
ATOM     13  C   UNL     1      44.494   3.672   8.250  0.00  0.00    +0.000 C 
ATOM     14  C   UNL     1      44.501   2.151   8.406  0.00  0.00    +0.000 C 
ATOM     15  C   UNL     1      45.964   1.788   8.543  0.00  0.00    +0.000 C 
ATOM     16  N   UNL     1      46.662   2.746   7.685  0.00  0.00    +0.000 NA
ATOM     17  C   UNL     1      45.913   4.003   7.775  0.00  0.00    +0.000 C 
ATOM     18  H   UNL     1      46.627   2.416   6.721  0.00  0.00    +0.000 HD
ENDBRANCH  12  13
ENDBRANCH   8  12
ENDBRANCH   5   8
ENDBRANCH   1   2
BRANCH   1  19
ATOM     19  N   UNL     1      47.629   8.611  14.728  0.00  0.00    +0.000 NA
ATOM     20  H   UNL     1      46.854   8.328  15.328  0.00  0.00    +0.000 HD
BRANCH  19  21
ATOM     21  C   UNL     1      48.593   7.493  14.668  0.00  0.00    +0.000 C 
BRANCH  21  22
ATOM     22  C   UNL     1      48.614   6.856  16.054  0.00  0.00    +0.000 A 
ATOM     23  C   UNL     1      49.056   7.496  17.204  0.00  0.00    +0.000 A 
ATOM     24  S   UNL     1      49.029   6.506  18.594  0.00  0.00    +0.000 S 
ATOM     25  C   UNL     1      48.374   5.196  17.723  0.00  0.00    +0.000 A 
ATOM     26  N   UNL     1      48.107   4.013  18.335  0.00  0.00    +0.000 NA
ATOM     27  C   UNL     1      47.595   3.117  17.560  0.00  0.00    +0.000 A 
ATOM     28  N   UNL     1      47.316   3.303  16.229  0.00  0.00    +0.000 N 
ATOM     29  C   UNL     1      47.558   4.490  15.568  0.00  0.00    +0.000 A 
ATOM     30  O   UNL     1      47.257   4.655  14.391  0.00  0.00    +0.000 OA
ATOM     31  C   UNL     1      48.164   5.517  16.392  0.00  0.00    +0.000 A 
ATOM     32  H   UNL     1      46.885   2.565  15.693  0.00  0.00    +0.000 HD
ENDBRANCH  21  22
BRANCH  21  34
ATOM     33  N   UNL     1      51.052   8.254  14.022  0.00  0.00    +0.000 NA
ATOM     34  C   UNL     1      49.970   7.923  14.274  0.00  0.00    +0.000 C 
ENDBRANCH  21  34
ENDBRANCH  19  21
ENDBRANCH   1  19
TORSDOF 10
ENDMDL
MODEL 5
REMARK VINA RESULT:    -6.634      2.393      3.160
REMARK INTER + INTRA:         -11.005
REMARK INTER:                 -10.279
REMARK INTRA:                  -0.726
REMARK UNBOUND:                -0.686
REMARK  Name = 
REMARK  10 active torsions:
REMARK  status: ('A' for Active; 'I' for Inactive)
REMARK    1  A    between atoms: C_2  and  C_3
REMARK    2  A    between atoms: C_3  and  N_4
REMARK    3  A    between atoms: C_3  and  C_21
REMARK    4  A    between atoms: N_4  and  C_5
REMARK    5  A    between atoms: C_5  and  C_6
REMARK    6  A    between atoms: C_9  and  C_10
REMARK    7  A    between atoms: C_10  and  C_11
REMARK    8  A    between atoms: C_10  and  C_13
REMARK    9  A    between atoms: C_11  and  O_12
REMARK   10  A    between atoms: C_13  and  C_14
REMARK                            x       y       z     vdW  Elec       q    Type
REMARK                         _______ _______ _______ _____ _____    ______ ____
ROOT
ATOM      1  C   UNL     1      48.109   6.831  14.401  0.00  0.00    +0.000 C 
ENDROOT
BRANCH   1   2
ATOM      2  C   UNL     1      47.186   6.068  13.483  0.00  0.00    +0.000 A 
ATOM      3  C   UNL     1      46.548   4.897  13.916  0.00  0.00    +0.000 A 
ATOM      4  C   UNL     1      45.692   4.194  13.066  0.00  0.00    +0.000 A 
ATOM      5  C   UNL     1      45.449   4.656  11.761  0.00  0.00    +0.000 A 
ATOM      6  C   UNL     1      46.057   5.845  11.350  0.00  0.00    +0.000 A 
ATOM      7  C   UNL     1      46.918   6.542  12.195  0.00  0.00    +0.000 A 
BRANCH   5   8
ATOM      8  C   UNL     1      44.573   3.851  10.809  0.00  0.00    +0.000 C 
BRANCH   8   9
ATOM      9  C   UNL     1      43.190   3.547  11.425  0.00  0.00    +0.000 C 
BRANCH   9  10
ATOM     10  O   UNL     1      43.005   2.150  11.651  0.00  0.00    +0.000 OA
ATOM     11  H   UNL     1      43.004   1.701  10.789  0.00  0.00    +0.000 HD
ENDBRANCH   9  10
ENDBRANCH   8   9
BRANCH   8  12
ATOM     12  C   UNL     1      44.428   4.570   9.436  0.00  0.00    +0.000 C 
BRANCH  12  13
ATOM     13  C   UNL     1      44.581   3.620   8.225  0.00  0.00    +0.000 C 
ATOM     14  C   UNL     1      44.529   2.136   8.589  0.00  0.00    +0.000 C 
ATOM     15  C   UNL     1      45.976   1.692   8.590  0.00  0.00    +0.000 C 
ATOM     16  N   UNL     1      46.602   2.478   7.526  0.00  0.00    +0.000 NA
ATOM     17  C   UNL     1      45.938   3.785   7.534  0.00  0.00    +0.000 C 
ATOM     18  H   UNL     1      46.420   2.027   6.629  0.00  0.00    +0.000 HD
ENDBRANCH  12  13
ENDBRANCH   8  12
ENDBRANCH   5   8
ENDBRANCH   1   2
BRANCH   1  19
ATOM     19  N   UNL     1      48.881   5.925  15.261  0.00  0.00    +0.000 NA
ATOM     20  H   UNL     1      49.863   6.192  15.198  0.00  0.00    +0.000 HD
BRANCH  19  21
ATOM     21  C   UNL     1      48.469   6.026  16.676  0.00  0.00    +0.000 C 
BRANCH  21  22
ATOM     22  C   UNL     1      49.750   6.070  17.504  0.00  0.00    +0.000 A 
ATOM     23  C   UNL     1      50.904   5.360  17.201  0.00  0.00    +0.000 A 
ATOM     24  S   UNL     1      52.151   5.554  18.350  0.00  0.00    +0.000 S 
ATOM     25  C   UNL     1      51.215   6.639  19.273  0.00  0.00    +0.000 A 
ATOM     26  N   UNL     1      51.703   7.187  20.416  0.00  0.00    +0.000 NA
ATOM     27  C   UNL     1      50.895   8.005  21.001  0.00  0.00    +0.000 A 
ATOM     28  N   UNL     1      49.645   8.333  20.538  0.00  0.00    +0.000 N 
ATOM     29  C   UNL     1      49.112   7.813  19.376  0.00  0.00    +0.000 A 
ATOM     30  O   UNL     1      48.015   8.155  18.951  0.00  0.00    +0.000 OA
ATOM     31  C   UNL     1      49.973   6.861  18.701  0.00  0.00    +0.000 A 
ATOM     32  H   UNL     1      49.081   9.007  21.034  0.00  0.00    +0.000 HD
ENDBRANCH  21  22
BRANCH  21  34
ATOM     33  N   UNL     1      46.968   4.001  17.507  0.00  0.00    +0.000 NA
ATOM     34  C   UNL     1      47.604   4.890  17.120  0.00  0.00    +0.000 C 
ENDBRANCH  21  34
ENDBRANCH  19  21
ENDBRANCH   1  19
TORSDOF 10
ENDMDL
MODEL 6
REMARK VINA RESULT:    -6.548      3.863      5.893
REMARK INTER + INTRA:         -10.871
REMARK INTER:                  -9.617
REMARK INTRA:                  -1.255
REMARK UNBOUND:                -0.686
REMARK  Name = 
REMARK  10 active torsions:
REMARK  status: ('A' for Active; 'I' for Inactive)
REMARK    1  A    between atoms: C_2  and  C_3
REMARK    2  A    between atoms: C_3  and  N_4
REMARK    3  A    between atoms: C_3  and  C_21
REMARK    4  A    between atoms: N_4  and  C_5
REMARK    5  A    between atoms: C_5  and  C_6
REMARK    6  A    between atoms: C_9  and  C_10
REMARK    7  A    between atoms: C_10  and  C_11
REMARK    8  A    between atoms: C_10  and  C_13
REMARK    9  A    between atoms: C_11  and  O_12
REMARK   10  A    between atoms: C_13  and  C_14
REMARK                            x       y       z     vdW  Elec       q    Type
REMARK                         _______ _______ _______ _____ _____    ______ ____
ROOT
ATOM      1  C   UNL     1      48.316   6.108  15.075  0.00  0.00    +0.000 C 
ENDROOT
BRANCH   1   2
ATOM      2  C   UNL     1      47.415   5.638  13.960  0.00  0.00    +0.000 A 
ATOM      3  C   UNL     1      46.711   4.430  14.066  0.00  0.00    +0.000 A 
ATOM      4  C   UNL     1      45.875   3.997  13.035  0.00  0.00    +0.000 A 
ATOM      5  C   UNL     1      45.719   4.774  11.873  0.00  0.00    +0.000 A 
ATOM      6  C   UNL     1      46.393   5.996  11.792  0.00  0.00    +0.000 A 
ATOM      7  C   UNL     1      47.234   6.424  12.817  0.00  0.00    +0.000 A 
BRANCH   5   8
ATOM      8  C   UNL     1      44.865   4.269  10.718  0.00  0.00    +0.000 C 
BRANCH   8   9
ATOM      9  C   UNL     1      43.376   4.633  10.905  0.00  0.00    +0.000 C 
BRANCH   9  10
ATOM     10  O   UNL     1      42.617   3.530  11.398  0.00  0.00    +0.000 OA
ATOM     11  H   UNL     1      41.699   3.637  11.098  0.00  0.00    +0.000 HD
ENDBRANCH   9  10
ENDBRANCH   8   9
BRANCH   8  12
ATOM     12  C   UNL     1      45.401   4.792   9.352  0.00  0.00    +0.000 C 
BRANCH  12  13
ATOM     13  C   UNL     1      45.121   3.831   8.173  0.00  0.00    +0.000 C 
ATOM     14  C   UNL     1      44.788   2.402   8.601  0.00  0.00    +0.000 C 
ATOM     15  C   UNL     1      46.071   1.629   8.382  0.00  0.00    +0.000 C 
ATOM     16  N   UNL     1      46.671   2.244   7.197  0.00  0.00    +0.000 NA
ATOM     17  C   UNL     1      46.341   3.671   7.261  0.00  0.00    +0.000 C 
ATOM     18  H   UNL     1      46.240   1.848   6.362  0.00  0.00    +0.000 HD
ENDBRANCH  12  13
ENDBRANCH   8  12
ENDBRANCH   5   8
ENDBRANCH   1   2
BRANCH   1  19
ATOM     19  N   UNL     1      49.566   6.676  14.554  0.00  0.00    +0.000 NA
ATOM     20  H   UNL     1      49.582   6.526  13.544  0.00  0.00    +0.000 HD
BRANCH  19  21
ATOM     21  C   UNL     1      49.656   8.129  14.803  0.00  0.00    +0.000 C 
BRANCH  21  22
ATOM     22  C   UNL     1      50.284   8.750  13.559  0.00  0.00    +0.000 A 
ATOM     23  C   UNL     1      51.605   8.565  13.172  0.00  0.00    +0.000 A 
ATOM     24  S   UNL     1      52.042   9.443  11.776  0.00  0.00    +0.000 S 
ATOM     25  C   UNL     1      50.466  10.067  11.601  0.00  0.00    +0.000 A 
ATOM     26  N   UNL     1      50.156  10.910  10.583  0.00  0.00    +0.000 NA
ATOM     27  C   UNL     1      48.922  11.287  10.561  0.00  0.00    +0.000 A 
ATOM     28  N   UNL     1      47.966  10.886  11.461  0.00  0.00    +0.000 N 
ATOM     29  C   UNL     1      48.230  10.020  12.503  0.00  0.00    +0.000 A 
ATOM     30  O   UNL     1      47.354   9.633  13.268  0.00  0.00    +0.000 OA
ATOM     31  C   UNL     1      49.614   9.596  12.588  0.00  0.00    +0.000 A 
ATOM     32  H   UNL     1      47.012  11.198  11.361  0.00  0.00    +0.000 HD
ENDBRANCH  21  22
BRANCH  21  34
ATOM     33  N   UNL     1      51.108   8.776  16.927  0.00  0.00    +0.000 NA
ATOM     34  C   UNL     1      50.461   8.470  16.016  0.00  0.00    +0.000 C 
ENDBRANCH  21  34
ENDBRANCH  19  21
ENDBRANCH   1  19
TORSDOF 10
ENDMDL
MODEL 7
REMARK VINA RESULT:    -6.505      2.694      3.192
REMARK INTER + INTRA:         -10.805
REMARK INTER:                  -9.650
REMARK INTRA:                  -1.155
REMARK UNBOUND:                -0.686
REMARK  Name = 
REMARK  10 active torsions:
REMARK  status: ('A' for Active; 'I' for Inactive)
REMARK    1  A    between atoms: C_2  and  C_3
REMARK    2  A    between atoms: C_3  and  N_4
REMARK    3  A    between atoms: C_3  and  C_21
REMARK    4  A    between atoms: N_4  and  C_5
REMARK    5  A    between atoms: C_5  and  C_6
REMARK    6  A    between atoms: C_9  and  C_10
REMARK    7  A    between atoms: C_10  and  C_11
REMARK    8  A    between atoms: C_10  and  C_13
REMARK    9  A    between atoms: C_11  and  O_12
REMARK   10  A    between atoms: C_13  and  C_14
REMARK                            x       y       z     vdW  Elec       q    Type
REMARK                         _______ _______ _______ _____ _____    ______ ____
ROOT
ATOM      1  C   UNL     1      48.141   7.039  14.312  0.00  0.00    +0.000 C 
ENDROOT
BRANCH   1   2
ATOM      2  C   UNL     1      47.213   6.198  13.471  0.00  0.00    +0.000 A 
ATOM      3  C   UNL     1      46.763   4.951  13.927  0.00  0.00    +0.000 A 
ATOM      4  C   UNL     1      45.901   4.174  13.149  0.00  0.00    +0.000 A 
ATOM      5  C   UNL     1      45.463   4.638  11.896  0.00  0.00    +0.000 A 
ATOM      6  C   UNL     1      45.884   5.900  11.466  0.00  0.00    +0.000 A 
ATOM      7  C   UNL     1      46.751   6.670  12.239  0.00  0.00    +0.000 A 
BRANCH   5   8
ATOM      8  C   UNL     1      44.582   3.761  11.015  0.00  0.00    +0.000 C 
BRANCH   8   9
ATOM      9  C   UNL     1      43.317   3.289  11.763  0.00  0.00    +0.000 C 
BRANCH   9  10
ATOM     10  O   UNL     1      43.288   1.870  11.916  0.00  0.00    +0.000 OA
ATOM     11  H   UNL     1      44.173   1.526  11.708  0.00  0.00    +0.000 HD
ENDBRANCH   9  10
ENDBRANCH   8   9
BRANCH   8  12
ATOM     12  C   UNL     1      44.210   4.490   9.691  0.00  0.00    +0.000 C 
BRANCH  12  13
ATOM     13  C   UNL     1      44.451   3.631   8.427  0.00  0.00    +0.000 C 
ATOM     14  C   UNL     1      44.506   2.127   8.699  0.00  0.00    +0.000 C 
ATOM     15  C   UNL     1      45.982   1.793   8.700  0.00  0.00    +0.000 C 
ATOM     16  N   UNL     1      46.562   2.688   7.697  0.00  0.00    +0.000 NA
ATOM     17  C   UNL     1      45.802   3.940   7.773  0.00  0.00    +0.000 C 
ATOM     18  H   UNL     1      46.427   2.282   6.772  0.00  0.00    +0.000 HD
ENDBRANCH  12  13
ENDBRANCH   8  12
ENDBRANCH   5   8
ENDBRANCH   1   2
BRANCH   1  19
ATOM     19  N   UNL     1      49.211   6.228  14.907  0.00  0.00    +0.000 NA
ATOM     20  H   UNL     1      50.096   6.522  14.493  0.00  0.00    +0.000 HD
BRANCH  19  21
ATOM     21  C   UNL     1      49.303   6.424  16.368  0.00  0.00    +0.000 C 
BRANCH  21  22
ATOM     22  C   UNL     1      50.734   6.081  16.768  0.00  0.00    +0.000 A 
ATOM     23  C   UNL     1      51.110   4.904  17.404  0.00  0.00    +0.000 A 
ATOM     24  S   UNL     1      52.770   4.833  17.791  0.00  0.00    +0.000 S 
ATOM     25  C   UNL     1      53.065   6.352  17.078  0.00  0.00    +0.000 A 
ATOM     26  N   UNL     1      54.311   6.892  17.071  0.00  0.00    +0.000 NA
ATOM     27  C   UNL     1      54.391   8.036  16.479  0.00  0.00    +0.000 A 
ATOM     28  N   UNL     1      53.338   8.684  15.883  0.00  0.00    +0.000 N 
ATOM     29  C   UNL     1      52.058   8.169  15.853  0.00  0.00    +0.000 A 
ATOM     30  O   UNL     1      51.139   8.736  15.274  0.00  0.00    +0.000 OA
ATOM     31  C   UNL     1      51.912   6.898  16.536  0.00  0.00    +0.000 A 
ATOM     32  H   UNL     1      53.484   9.563  15.411  0.00  0.00    +0.000 HD
ENDBRANCH  21  22
BRANCH  21  34
ATOM     33  N   UNL     1      47.625   4.914  17.763  0.00  0.00    +0.000 NA
ATOM     34  C   UNL     1      48.333   5.584  17.136  0.00  0.00    +0.000 C 
ENDBRANCH  21  34
ENDBRANCH  19  21
ENDBRANCH   1  19
TORSDOF 10
ENDMDL
MODEL 8
REMARK VINA RESULT:    -6.224      3.558      4.624
REMARK INTER + INTRA:         -10.367
REMARK INTER:                  -9.124
REMARK INTRA:                  -1.243
REMARK UNBOUND:                -0.686
REMARK  Name = 
REMARK  10 active torsions:
REMARK  status: ('A' for Active; 'I' for Inactive)
REMARK    1  A    between atoms: C_2  and  C_3
REMARK    2  A    between atoms: C_3  and  N_4
REMARK    3  A    between atoms: C_3  and  C_21
REMARK    4  A    between atoms: N_4  and  C_5
REMARK    5  A    between atoms: C_5  and  C_6
REMARK    6  A    between atoms: C_9  and  C_10
REMARK    7  A    between atoms: C_10  and  C_11
REMARK    8  A    between atoms: C_10  and  C_13
REMARK    9  A    between atoms: C_11  and  O_12
REMARK   10  A    between atoms: C_13  and  C_14
REMARK                            x       y       z     vdW  Elec       q    Type
REMARK                         _______ _______ _______ _____ _____    ______ ____
ROOT
ATOM      1  C   UNL     1      48.183   5.886  15.177  0.00  0.00    +0.000 C 
ENDROOT
BRANCH   1   2
ATOM      2  C   UNL     1      47.267   5.464  14.055  0.00  0.00    +0.000 A 
ATOM      3  C   UNL     1      46.732   4.169  14.013  0.00  0.00    +0.000 A 
ATOM      4  C   UNL     1      45.882   3.780  12.976  0.00  0.00    +0.000 A 
ATOM      5  C   UNL     1      45.541   4.689  11.958  0.00  0.00    +0.000 A 
ATOM      6  C   UNL     1      46.046   5.990  12.029  0.00  0.00    +0.000 A 
ATOM      7  C   UNL     1      46.901   6.375  13.059  0.00  0.00    +0.000 A 
BRANCH   5   8
ATOM      8  C   UNL     1      44.672   4.244  10.788  0.00  0.00    +0.000 C 
BRANCH   8   9
ATOM      9  C   UNL     1      43.204   4.685  10.967  0.00  0.00    +0.000 C 
BRANCH   9  10
ATOM     10  O   UNL     1      42.995   6.028  10.531  0.00  0.00    +0.000 OA
ATOM     11  H   UNL     1      43.502   6.617  11.115  0.00  0.00    +0.000 HD
ENDBRANCH   9  10
ENDBRANCH   8   9
BRANCH   8  12
ATOM     12  C   UNL     1      45.249   4.756   9.435  0.00  0.00    +0.000 C 
BRANCH  12  13
ATOM     13  C   UNL     1      44.993   3.791   8.253  0.00  0.00    +0.000 C 
ATOM     14  C   UNL     1      44.710   2.349   8.678  0.00  0.00    +0.000 C 
ATOM     15  C   UNL     1      46.016   1.620   8.447  0.00  0.00    +0.000 C 
ATOM     16  N   UNL     1      46.588   2.259   7.261  0.00  0.00    +0.000 NA
ATOM     17  C   UNL     1      46.212   3.674   7.333  0.00  0.00    +0.000 C 
ATOM     18  H   UNL     1      46.165   1.852   6.427  0.00  0.00    +0.000 HD
ENDBRANCH  12  13
ENDBRANCH   8  12
ENDBRANCH   5   8
ENDBRANCH   1   2
BRANCH   1  19
ATOM     19  N   UNL     1      48.299   7.348  15.255  0.00  0.00    +0.000 NA
ATOM     20  H   UNL     1      47.821   7.657  16.102  0.00  0.00    +0.000 HD
BRANCH  19  21
ATOM     21  C   UNL     1      49.707   7.784  15.339  0.00  0.00    +0.000 C 
BRANCH  21  22
ATOM     22  C   UNL     1      49.731   9.023  16.229  0.00  0.00    +0.000 A 
ATOM     23  C   UNL     1      49.820  10.326  15.756  0.00  0.00    +0.000 A 
ATOM     24  S   UNL     1      49.898  11.501  16.992  0.00  0.00    +0.000 S 
ATOM     25  C   UNL     1      49.764  10.317  18.210  0.00  0.00    +0.000 A 
ATOM     26  N   UNL     1      49.770  10.662  19.524  0.00  0.00    +0.000 NA
ATOM     27  C   UNL     1      49.640   9.666  20.335  0.00  0.00    +0.000 A 
ATOM     28  N   UNL     1      49.494   8.358  19.949  0.00  0.00    +0.000 N 
ATOM     29  C   UNL     1      49.468   7.961  18.627  0.00  0.00    +0.000 A 
ATOM     30  O   UNL     1      49.287   6.794  18.299  0.00  0.00    +0.000 OA
ATOM     31  C   UNL     1      49.644   9.043  17.678  0.00  0.00    +0.000 A 
ATOM     32  H   UNL     1      49.365   7.635  20.642  0.00  0.00    +0.000 HD
ENDBRANCH  21  22
BRANCH  21  34
ATOM     33  N   UNL     1      50.795   8.378  12.992  0.00  0.00    +0.000 NA
ATOM     34  C   UNL     1      50.309   8.092  14.005  0.00  0.00    +0.000 C 
ENDBRANCH  21  34
ENDBRANCH  19  21
ENDBRANCH   1  19
TORSDOF 10
ENDMDL
MODEL 9
REMARK VINA RESULT:    -6.149      3.800      5.494
REMARK INTER + INTRA:         -10.250
REMARK INTER:                  -8.424
REMARK INTRA:                  -1.825
REMARK UNBOUND:                -0.686
REMARK  Name = 
REMARK  10 active torsions:
REMARK  status: ('A' for Active; 'I' for Inactive)
REMARK    1  A    between atoms: C_2  and  C_3
REMARK    2  A    between atoms: C_3  and  N_4
REMARK    3  A    between atoms: C_3  and  C_21
REMARK    4  A    between atoms: N_4  and  C_5
REMARK    5  A    between atoms: C_5  and  C_6
REMARK    6  A    between atoms: C_9  and  C_10
REMARK    7  A    between atoms: C_10  and  C_11
REMARK    8  A    between atoms: C_10  and  C_13
REMARK    9  A    between atoms: C_11  and  O_12
REMARK   10  A    between atoms: C_13  and  C_14
REMARK                            x       y       z     vdW  Elec       q    Type
REMARK                         _______ _______ _______ _____ _____    ______ ____
ROOT
ATOM      1  C   UNL     1      48.729  10.215  12.959  0.00  0.00    +0.000 C 
ENDROOT
BRANCH   1   2
ATOM      2  C   UNL     1      48.087   8.849  12.934  0.00  0.00    +0.000 A 
ATOM      3  C   UNL     1      46.732   8.687  13.253  0.00  0.00    +0.000 A 
ATOM      4  C   UNL     1      46.138   7.423  13.227  0.00  0.00    +0.000 A 
ATOM      5  C   UNL     1      46.892   6.291  12.869  0.00  0.00    +0.000 A 
ATOM      6  C   UNL     1      48.232   6.467  12.513  0.00  0.00    +0.000 A 
ATOM      7  C   UNL     1      48.827   7.727  12.548  0.00  0.00    +0.000 A 
BRANCH   5   8
ATOM      8  C   UNL     1      46.264   4.904  12.910  0.00  0.00    +0.000 C 
BRANCH   8   9
ATOM      9  C   UNL     1      46.948   3.998  13.956  0.00  0.00    +0.000 C 
BRANCH   9  10
ATOM     10  O   UNL     1      46.682   4.432  15.290  0.00  0.00    +0.000 OA
ATOM     11  H   UNL     1      45.752   4.711  15.337  0.00  0.00    +0.000 HD
ENDBRANCH   9  10
ENDBRANCH   8   9
BRANCH   8  12
ATOM     12  C   UNL     1      44.730   4.989  13.161  0.00  0.00    +0.000 C 
BRANCH  12  13
ATOM     13  C   UNL     1      43.888   4.297  12.063  0.00  0.00    +0.000 C 
ATOM     14  C   UNL     1      44.718   3.530  11.033  0.00  0.00    +0.000 C 
ATOM     15  C   UNL     1      44.773   4.446   9.829  0.00  0.00    +0.000 C 
ATOM     16  N   UNL     1      43.473   5.119   9.821  0.00  0.00    +0.000 NA
ATOM     17  C   UNL     1      43.096   5.306  11.226  0.00  0.00    +0.000 C 
ATOM     18  H   UNL     1      42.785   4.509   9.379  0.00  0.00    +0.000 HD
ENDBRANCH  12  13
ENDBRANCH   8  12
ENDBRANCH   5   8
ENDBRANCH   1   2
BRANCH   1  19
ATOM     19  N   UNL     1      48.703  10.797  14.307  0.00  0.00    +0.000 NA
ATOM     20  H   UNL     1      47.747  10.731  14.659  0.00  0.00    +0.000 HD
BRANCH  19  21
ATOM     21  C   UNL     1      49.585  10.066  15.239  0.00  0.00    +0.000 C 
BRANCH  21  22
ATOM     22  C   UNL     1      48.831   9.953  16.560  0.00  0.00    +0.000 A 
ATOM     23  C   UNL     1      48.365  11.038  17.292  0.00  0.00    +0.000 A 
ATOM     24  S   UNL     1      47.622  10.605  18.766  0.00  0.00    +0.000 S 
ATOM     25  C   UNL     1      47.847   8.943  18.461  0.00  0.00    +0.000 A 
ATOM     26  N   UNL     1      47.431   8.006  19.351  0.00  0.00    +0.000 NA
ATOM     27  C   UNL     1      47.647   6.788  18.982  0.00  0.00    +0.000 A 
ATOM     28  N   UNL     1      48.232   6.424  17.795  0.00  0.00    +0.000 N 
ATOM     29  C   UNL     1      48.659   7.339  16.854  0.00  0.00    +0.000 A 
ATOM     30  O   UNL     1      49.135   6.996  15.778  0.00  0.00    +0.000 OA
ATOM     31  C   UNL     1      48.467   8.723  17.241  0.00  0.00    +0.000 A 
ATOM     32  H   UNL     1      48.340   5.449  17.560  0.00  0.00    +0.000 HD
ENDBRANCH  21  22
BRANCH  21  34
ATOM     33  N   UNL     1      51.913  11.266  15.666  0.00  0.00    +0.000 NA
ATOM     34  C   UNL     1      50.904  10.737  15.450  0.00  0.00    +0.000 C 
ENDBRANCH  21  34
ENDBRANCH  19  21
ENDBRANCH   1  19
TORSDOF 10
ENDMDL
