MODEL 1
REMARK VINA RESULT:    -8.025      0.000      0.000
REMARK INTER + INTRA:         -13.420
REMARK INTER:                 -11.778
REMARK INTRA:                  -1.641
REMARK UNBOUND:                -1.641
REMARK  Name = 
REMARK  10 active torsions:
REMARK  status: ('A' for Active; 'I' for Inactive)
REMARK    1  A    between atoms: C_1  and  C_2
REMARK    2  A    between atoms: C_2  and  C_3
REMARK    3  A    between atoms: C_2  and  C_27
REMARK    4  A    between atoms: C_3  and  N_4
REMARK    5  A    between atoms: N_4  and  C_5
REMARK    6  A    between atoms: C_5  and  C_6
REMARK    7  A    between atoms: C_9  and  C_10
REMARK    8  A    between atoms: C_10  and  N_11
REMARK    9  A    between atoms: C_12  and  C_14
REMARK   10  A    between atoms: N_20  and  C_21
REMARK                            x       y       z     vdW  Elec       q    Type
REMARK                         _______ _______ _______ _____ _____    ______ ____
ROOT
ATOM      1  C   UNL     1      44.606   4.089  12.804  0.00  0.00    +0.000 A 
ATOM      2  C   UNL     1      45.971   3.933  13.090  0.00  0.00    +0.000 A 
ATOM      3  C   UNL     1      46.809   5.033  13.260  0.00  0.00    +0.000 A 
ATOM      4  C   UNL     1      46.296   6.333  13.162  0.00  0.00    +0.000 A 
ATOM      5  C   UNL     1      44.939   6.499  12.853  0.00  0.00    +0.000 A 
ATOM      6  C   UNL     1      44.099   5.392  12.691  0.00  0.00    +0.000 A 
ENDROOT
BRANCH   1   7
ATOM      7  C   UNL     1      43.708   2.902  12.521  0.00  0.00    +0.000 C 
BRANCH   7   8
ATOM      8  N   UNL     1      43.212   2.898  11.150  0.00  0.00    +0.000 NA
ATOM      9  H   UNL     1      42.368   2.313  11.116  0.00  0.00    +0.000 HD
BRANCH   8  10
ATOM     10  C   UNL     1      44.137   2.241  10.222  0.00  0.00    +0.000 C 
BRANCH  10  12
ATOM     11  C   UNL     1      44.226   4.515   9.101  0.00  0.00    +0.000 C 
ATOM     12  C   UNL     1      45.044   3.284   9.514  0.00  0.00    +0.000 C 
BRANCH  12  13
ATOM     13  C   UNL     1      45.817   2.698   8.334  0.00  0.00    +0.000 A 
ATOM     14  C   UNL     1      46.123   3.483   7.222  0.00  0.00    +0.000 A 
ATOM     15  C   UNL     1      46.870   2.930   6.183  0.00  0.00    +0.000 A 
ATOM     16  C   UNL     1      47.291   1.608   6.276  0.00  0.00    +0.000 A 
ATOM     17  C   UNL     1      46.935   0.887   7.402  0.00  0.00    +0.000 A 
ATOM     18  N   UNL     1      46.215   1.401   8.418  0.00  0.00    +0.000 NA
ENDBRANCH  12  13
ENDBRANCH  10  12
ENDBRANCH   8  10
ENDBRANCH   7   8
ENDBRANCH   1   7
BRANCH   4  19
ATOM     19  C   UNL     1      47.190   7.526  13.363  0.00  0.00    +0.000 C 
BRANCH  19  20
ATOM     20  N   UNL     1      47.907   7.441  14.605  0.00  0.00    +0.000 N 
ATOM     21  C   UNL     1      49.273   7.301  14.643  0.00  0.00    +0.000 C 
ATOM     22  O   UNL     1      49.946   7.120  13.635  0.00  0.00    +0.000 OA
ATOM     23  H   UNL     1      47.427   7.811  15.418  0.00  0.00    +0.000 HD
BRANCH  21  24
ATOM     24  C   UNL     1      49.873   7.338  15.985  0.00  0.00    +0.000 A 
ATOM     25  C   UNL     1      50.655   8.418  16.376  0.00  0.00    +0.000 A 
ATOM     26  S   UNL     1      51.242   8.272  17.973  0.00  0.00    +0.000 S 
ATOM     27  C   UNL     1      50.445   6.784  18.193  0.00  0.00    +0.000 A 
ATOM     28  N   UNL     1      50.508   6.122  19.378  0.00  0.00    +0.000 NA
ATOM     29  C   UNL     1      49.842   5.011  19.404  0.00  0.00    +0.000 A 
ATOM     30  N   UNL     1      49.122   4.482  18.358  0.00  0.00    +0.000 N 
ATOM     31  C   UNL     1      48.455   3.202  18.474  0.00  0.00    +0.000 C 
ATOM     32  C   UNL     1      49.061   5.116  17.124  0.00  0.00    +0.000 A 
ATOM     33  O   UNL     1      48.482   4.626  16.160  0.00  0.00    +0.000 OA
ATOM     34  C   UNL     1      49.770   6.385  17.056  0.00  0.00    +0.000 A 
ENDBRANCH  21  24
ENDBRANCH  19  20
ENDBRANCH   4  19
TORSDOF 8
ENDMDL
MODEL 2
REMARK VINA RESULT:    -7.579      1.243      1.624
REMARK INTER + INTRA:         -12.765
REMARK INTER:                 -11.712
REMARK INTRA:                  -1.053
REMARK UNBOUND:                -1.641
REMARK  Name = 
REMARK  10 active torsions:
REMARK  status: ('A' for Active; 'I' for Inactive)
REMARK    1  A    between atoms: C_1  and  C_2
REMARK    2  A    between atoms: C_2  and  C_3
REMARK    3  A    between atoms: C_2  and  C_27
REMARK    4  A    between atoms: C_3  and  N_4
REMARK    5  A    between atoms: N_4  and  C_5
REMARK    6  A    between atoms: C_5  and  C_6
REMARK    7  A    between atoms: C_9  and  C_10
REMARK    8  A    between atoms: C_10  and  N_11
REMARK    9  A    between atoms: C_12  and  C_14
REMARK   10  A    between atoms: N_20  and  C_21
REMARK                            x       y       z     vdW  Elec       q    Type
REMARK                         _______ _______ _______ _____ _____    ______ ____
ROOT
ATOM      1  C   UNL     1      44.582   5.758  11.927  0.00  0.00    +0.000 A 
ATOM      2  C   UNL     1      45.635   5.088  12.570  0.00  0.00    +0.000 A 
ATOM      3  C   UNL     1      46.742   5.776  13.060  0.00  0.00    +0.000 A 
ATOM      4  C   UNL     1      46.822   7.169  12.933  0.00  0.00    +0.000 A 
ATOM      5  C   UNL     1      45.786   7.843  12.272  0.00  0.00    +0.000 A 
ATOM      6  C   UNL     1      44.671   7.150  11.788  0.00  0.00    +0.000 A 
ENDROOT
BRANCH   1   7
ATOM      7  C   UNL     1      43.422   5.009  11.305  0.00  0.00    +0.000 C 
BRANCH   7   8
ATOM      8  N   UNL     1      43.451   5.055   9.847  0.00  0.00    +0.000 NA
ATOM      9  H   UNL     1      42.766   4.377   9.491  0.00  0.00    +0.000 HD
BRANCH   8  10
ATOM     10  C   UNL     1      44.729   4.591   9.299  0.00  0.00    +0.000 C 
BRANCH  10  12
ATOM     11  C   UNL     1      44.416   2.137   9.863  0.00  0.00    +0.000 C 
ATOM     12  C   UNL     1      44.596   3.154   8.727  0.00  0.00    +0.000 C 
BRANCH  12  13
ATOM     13  C   UNL     1      45.751   2.771   7.804  0.00  0.00    +0.000 A 
ATOM     14  C   UNL     1      46.416   1.554   7.962  0.00  0.00    +0.000 A 
ATOM     15  C   UNL     1      47.435   1.216   7.073  0.00  0.00    +0.000 A 
ATOM     16  C   UNL     1      47.770   2.098   6.052  0.00  0.00    +0.000 A 
ATOM     17  C   UNL     1      47.077   3.293   5.969  0.00  0.00    +0.000 A 
ATOM     18  N   UNL     1      46.088   3.641   6.815  0.00  0.00    +0.000 NA
ENDBRANCH  12  13
ENDBRANCH  10  12
ENDBRANCH   8  10
ENDBRANCH   7   8
ENDBRANCH   1   7
BRANCH   4  19
ATOM     19  C   UNL     1      48.005   7.922  13.476  0.00  0.00    +0.000 C 
BRANCH  19  20
ATOM     20  N   UNL     1      48.295   7.536  14.829  0.00  0.00    +0.000 N 
ATOM     21  C   UNL     1      49.582   7.479  15.305  0.00  0.00    +0.000 C 
ATOM     22  O   UNL     1      50.561   7.633  14.582  0.00  0.00    +0.000 OA
ATOM     23  H   UNL     1      47.531   7.630  15.489  0.00  0.00    +0.000 HD
BRANCH  21  24
ATOM     24  C   UNL     1      49.713   7.175  16.738  0.00  0.00    +0.000 A 
ATOM     25  C   UNL     1      50.354   8.065  17.590  0.00  0.00    +0.000 A 
ATOM     26  S   UNL     1      50.383   7.531  19.213  0.00  0.00    +0.000 S 
ATOM     27  C   UNL     1      49.517   6.117  18.824  0.00  0.00    +0.000 A 
ATOM     28  N   UNL     1      49.172   5.219  19.784  0.00  0.00    +0.000 NA
ATOM     29  C   UNL     1      48.503   4.201  19.345  0.00  0.00    +0.000 A 
ATOM     30  N   UNL     1      48.150   3.977  18.034  0.00  0.00    +0.000 N 
ATOM     31  C   UNL     1      47.447   2.774  17.639  0.00  0.00    +0.000 C 
ATOM     32  C   UNL     1      48.512   4.856  17.024  0.00  0.00    +0.000 A 
ATOM     33  O   UNL     1      48.267   4.640  15.842  0.00  0.00    +0.000 OA
ATOM     34  C   UNL     1      49.240   6.035  17.473  0.00  0.00    +0.000 A 
ENDBRANCH  21  24
ENDBRANCH  19  20
ENDBRANCH   4  19
TORSDOF 8
ENDMDL
MODEL 3
REMARK VINA RESULT:    -7.392      1.679      2.507
REMARK INTER + INTRA:         -12.491
REMARK INTER:                 -10.607
REMARK INTRA:                  -1.883
REMARK UNBOUND:                -1.641
REMARK  Name = 
REMARK  10 active torsions:
REMARK  status: ('A' for Active; 'I' for Inactive)
REMARK    1  A    between atoms: C_1  and  C_2
REMARK    2  A    between atoms: C_2  and  C_3
REMARK    3  A    between atoms: C_2  and  C_27
REMARK    4  A    between atoms: C_3  and  N_4
REMARK    5  A    between atoms: N_4  and  C_5
REMARK    6  A    between atoms: C_5  and  C_6
REMARK    7  A    between atoms: C_9  and  C_10
REMARK    8  A    between atoms: C_10  and  N_11
REMARK    9  A    between atoms: C_12  and  C_14
REMARK   10  A    between atoms: N_20  and  C_21
REMARK                            x       y       z     vdW  Elec       q    Type
REMARK                         _______ _______ _______ _____ _____    ______ ____
ROOT
ATOM      1  C   UNL     1      45.616   7.279  11.836  0.00  0.00    +0.000 A 
ATOM      2  C   UNL     1      45.947   8.577  12.259  0.00  0.00    +0.000 A 
ATOM      3  C   UNL     1      47.252   8.917  12.605  0.00  0.00    +0.000 A 
ATOM      4  C   UNL     1      48.276   7.964  12.524  0.00  0.00    +0.000 A 
ATOM      5  C   UNL     1      47.951   6.660  12.126  0.00  0.00    +0.000 A 
ATOM      6  C   UNL     1      46.640   6.323  11.771  0.00  0.00    +0.000 A 
ENDROOT
BRANCH   1   7
ATOM      7  C   UNL     1      44.185   6.874  11.552  0.00  0.00    +0.000 C 
BRANCH   7   8
ATOM      8  N   UNL     1      43.890   5.522  12.014  0.00  0.00    +0.000 NA
ATOM      9  H   UNL     1      44.777   5.068  12.264  0.00  0.00    +0.000 HD
BRANCH   8  10
ATOM     10  C   UNL     1      43.344   4.674  10.951  0.00  0.00    +0.000 C 
BRANCH  10  12
ATOM     11  C   UNL     1      44.970   3.118  12.122  0.00  0.00    +0.000 C 
ATOM     12  C   UNL     1      44.116   3.329  10.864  0.00  0.00    +0.000 C 
BRANCH  12  13
ATOM     13  C   UNL     1      44.946   3.200   9.589  0.00  0.00    +0.000 A 
ATOM     14  C   UNL     1      45.305   4.330   8.854  0.00  0.00    +0.000 A 
ATOM     15  C   UNL     1      46.102   4.180   7.721  0.00  0.00    +0.000 A 
ATOM     16  C   UNL     1      46.518   2.908   7.344  0.00  0.00    +0.000 A 
ATOM     17  C   UNL     1      46.108   1.833   8.112  0.00  0.00    +0.000 A 
ATOM     18  N   UNL     1      45.339   1.954   9.212  0.00  0.00    +0.000 NA
ENDBRANCH  12  13
ENDBRANCH  10  12
ENDBRANCH   8  10
ENDBRANCH   7   8
ENDBRANCH   1   7
BRANCH   4  19
ATOM     19  C   UNL     1      49.692   8.328  12.879  0.00  0.00    +0.000 C 
BRANCH  19  20
ATOM     20  N   UNL     1      50.225   7.449  13.882  0.00  0.00    +0.000 N 
ATOM     21  C   UNL     1      50.608   7.909  15.117  0.00  0.00    +0.000 C 
ATOM     22  O   UNL     1      50.636   9.102  15.398  0.00  0.00    +0.000 OA
ATOM     23  H   UNL     1      50.002   6.465  13.771  0.00  0.00    +0.000 HD
BRANCH  21  24
ATOM     24  C   UNL     1      51.031   6.874  16.073  0.00  0.00    +0.000 A 
ATOM     25  C   UNL     1      52.338   6.842  16.543  0.00  0.00    +0.000 A 
ATOM     26  S   UNL     1      52.617   5.575  17.654  0.00  0.00    +0.000 S 
ATOM     27  C   UNL     1      50.997   5.057  17.559  0.00  0.00    +0.000 A 
ATOM     28  N   UNL     1      50.549   4.012  18.303  0.00  0.00    +0.000 NA
ATOM     29  C   UNL     1      49.293   3.741  18.140  0.00  0.00    +0.000 A 
ATOM     30  N   UNL     1      48.433   4.402  17.294  0.00  0.00    +0.000 N 
ATOM     31  C   UNL     1      47.055   3.983  17.143  0.00  0.00    +0.000 C 
ATOM     32  C   UNL     1      48.863   5.453  16.496  0.00  0.00    +0.000 A 
ATOM     33  O   UNL     1      48.129   6.009  15.686  0.00  0.00    +0.000 OA
ATOM     34  C   UNL     1      50.263   5.815  16.668  0.00  0.00    +0.000 A 
ENDBRANCH  21  24
ENDBRANCH  19  20
ENDBRANCH   4  19
TORSDOF 8
ENDMDL
MODEL 4
REMARK VINA RESULT:    -7.355      2.598      3.416
REMARK INTER + INTRA:         -12.437
REMARK INTER:                 -11.368
REMARK INTRA:                  -1.069
REMARK UNBOUND:                -1.641
REMARK  Name = 
REMARK  10 active torsions:
REMARK  status: ('A' for Active; 'I' for Inactive)
REMARK    1  A    between atoms: C_1  and  C_2
REMARK    2  A    between atoms: C_2  and  C_3
REMARK    3  A    between atoms: C_2  and  C_27
REMARK    4  A    between atoms: C_3  and  N_4
REMARK    5  A    between atoms: N_4  and  C_5
REMARK    6  A    between atoms: C_5  and  C_6
REMARK    7  A    between atoms: C_9  and  C_10
REMARK    8  A    between atoms: C_10  and  N_11
REMARK    9  A    between atoms: C_12  and  C_14
REMARK   10  A    between atoms: N_20  and  C_21
REMARK                            x       y       z     vdW  Elec       q    Type
REMARK                         _______ _______ _______ _____ _____    ______ ____
ROOT
ATOM      1  C   UNL     1      46.198   5.929  12.335  0.00  0.00    +0.000 A 
ATOM      2  C   UNL     1      47.315   6.332  13.084  0.00  0.00    +0.000 A 
ATOM      3  C   UNL     1      47.640   5.719  14.292  0.00  0.00    +0.000 A 
ATOM      4  C   UNL     1      46.857   4.665  14.782  0.00  0.00    +0.000 A 
ATOM      5  C   UNL     1      45.726   4.272  14.052  0.00  0.00    +0.000 A 
ATOM      6  C   UNL     1      45.408   4.884  12.835  0.00  0.00    +0.000 A 
ENDROOT
BRANCH   1   7
ATOM      7  C   UNL     1      45.781   6.653  11.072  0.00  0.00    +0.000 C 
BRANCH   7   8
ATOM      8  N   UNL     1      44.950   5.824  10.207  0.00  0.00    +0.000 NA
ATOM      9  H   UNL     1      44.567   5.056  10.770  0.00  0.00    +0.000 HD
BRANCH   8  10
ATOM     10  C   UNL     1      45.728   5.148   9.165  0.00  0.00    +0.000 C 
BRANCH  10  12
ATOM     11  C   UNL     1      44.347   3.133   9.850  0.00  0.00    +0.000 C 
ATOM     12  C   UNL     1      44.998   3.869   8.671  0.00  0.00    +0.000 C 
BRANCH  12  13
ATOM     13  C   UNL     1      45.900   2.945   7.856  0.00  0.00    +0.000 A 
ATOM     14  C   UNL     1      46.557   3.413   6.718  0.00  0.00    +0.000 A 
ATOM     15  C   UNL     1      47.409   2.555   6.023  0.00  0.00    +0.000 A 
ATOM     16  C   UNL     1      47.582   1.252   6.477  0.00  0.00    +0.000 A 
ATOM     17  C   UNL     1      46.884   0.855   7.603  0.00  0.00    +0.000 A 
ATOM     18  N   UNL     1      46.057   1.666   8.291  0.00  0.00    +0.000 NA
ENDBRANCH  12  13
ENDBRANCH  10  12
ENDBRANCH   8  10
ENDBRANCH   7   8
ENDBRANCH   1   7
BRANCH   4  19
ATOM     19  C   UNL     1      47.211   3.985  16.076  0.00  0.00    +0.000 C 
BRANCH  19  20
ATOM     20  N   UNL     1      48.510   4.387  16.541  0.00  0.00    +0.000 N 
ATOM     21  C   UNL     1      49.063   3.863  17.683  0.00  0.00    +0.000 C 
ATOM     22  O   UNL     1      48.443   3.119  18.436  0.00  0.00    +0.000 OA
ATOM     23  H   UNL     1      49.119   4.802  15.845  0.00  0.00    +0.000 HD
BRANCH  21  24
ATOM     24  C   UNL     1      50.441   4.290  17.971  0.00  0.00    +0.000 A 
ATOM     25  C   UNL     1      50.703   5.596  18.368  0.00  0.00    +0.000 A 
ATOM     26  S   UNL     1      52.361   5.881  18.666  0.00  0.00    +0.000 S 
ATOM     27  C   UNL     1      52.764   4.266  18.304  0.00  0.00    +0.000 A 
ATOM     28  N   UNL     1      54.045   3.825  18.397  0.00  0.00    +0.000 NA
ATOM     29  C   UNL     1      54.200   2.572  18.106  0.00  0.00    +0.000 A 
ATOM     30  N   UNL     1      53.202   1.710  17.716  0.00  0.00    +0.000 N 
ATOM     31  C   UNL     1      53.490   0.337  17.358  0.00  0.00    +0.000 C 
ATOM     32  C   UNL     1      51.887   2.134  17.579  0.00  0.00    +0.000 A 
ATOM     33  O   UNL     1      50.997   1.399  17.166  0.00  0.00    +0.000 OA
ATOM     34  C   UNL     1      51.658   3.529  17.926  0.00  0.00    +0.000 A 
ENDBRANCH  21  24
ENDBRANCH  19  20
ENDBRANCH   4  19
TORSDOF 8
ENDMDL
MODEL 5
REMARK VINA RESULT:    -7.309      3.028      9.046
REMARK INTER + INTRA:         -12.369
REMARK INTER:                 -10.447
REMARK INTRA:                  -1.922
REMARK UNBOUND:                -1.641
REMARK  Name = 
REMARK  10 active torsions:
REMARK  status: ('A' for Active; 'I' for Inactive)
REMARK    1  A    between atoms: C_1  and  C_2
REMARK    2  A    between atoms: C_2  and  C_3
REMARK    3  A    between atoms: C_2  and  C_27
REMARK    4  A    between atoms: C_3  and  N_4
REMARK    5  A    between atoms: N_4  and  C_5
REMARK    6  A    between atoms: C_5  and  C_6
REMARK    7  A    between atoms: C_9  and  C_10
REMARK    8  A    between atoms: C_10  and  N_11
REMARK    9  A    between atoms: C_12  and  C_14
REMARK   10  A    between atoms: N_20  and  C_21
REMARK                            x       y       z     vdW  Elec       q    Type
REMARK                         _______ _______ _______ _____ _____    ______ ____
ROOT
ATOM      1  C   UNL     1      49.180   8.128  15.896  0.00  0.00    +0.000 A 
ATOM      2  C   UNL     1      49.034   6.898  15.233  0.00  0.00    +0.000 A 
ATOM      3  C   UNL     1      48.364   6.804  14.016  0.00  0.00    +0.000 A 
ATOM      4  C   UNL     1      47.827   7.951  13.414  0.00  0.00    +0.000 A 
ATOM      5  C   UNL     1      47.948   9.178  14.080  0.00  0.00    +0.000 A 
ATOM      6  C   UNL     1      48.629   9.271  15.299  0.00  0.00    +0.000 A 
ENDROOT
BRANCH   1   7
ATOM      7  C   UNL     1      49.821   8.225  17.265  0.00  0.00    +0.000 C 
BRANCH   7   8
ATOM      8  N   UNL     1      49.439   7.118  18.135  0.00  0.00    +0.000 NA
ATOM      9  H   UNL     1      49.293   6.287  17.550  0.00  0.00    +0.000 HD
BRANCH   8  10
ATOM     10  C   UNL     1      48.139   7.335  18.777  0.00  0.00    +0.000 C 
BRANCH  10  12
ATOM     11  C   UNL     1      47.801   5.745  20.725  0.00  0.00    +0.000 C 
ATOM     12  C   UNL     1      47.518   5.988  19.236  0.00  0.00    +0.000 C 
BRANCH  12  13
ATOM     13  C   UNL     1      47.959   4.804  18.377  0.00  0.00    +0.000 A 
ATOM     14  C   UNL     1      47.183   4.378  17.299  0.00  0.00    +0.000 A 
ATOM     15  C   UNL     1      47.637   3.325  16.508  0.00  0.00    +0.000 A 
ATOM     16  C   UNL     1      48.851   2.718  16.812  0.00  0.00    +0.000 A 
ATOM     17  C   UNL     1      49.557   3.184  17.907  0.00  0.00    +0.000 A 
ATOM     18  N   UNL     1      49.138   4.202  18.684  0.00  0.00    +0.000 NA
ENDBRANCH  12  13
ENDBRANCH  10  12
ENDBRANCH   8  10
ENDBRANCH   7   8
ENDBRANCH   1   7
BRANCH   4  19
ATOM     19  C   UNL     1      47.119   7.861  12.091  0.00  0.00    +0.000 C 
BRANCH  19  20
ATOM     20  N   UNL     1      46.468   6.590  11.929  0.00  0.00    +0.000 N 
ATOM     21  C   UNL     1      45.141   6.494  11.593  0.00  0.00    +0.000 C 
ATOM     22  O   UNL     1      44.403   7.472  11.528  0.00  0.00    +0.000 OA
ATOM     23  H   UNL     1      47.080   5.801  11.749  0.00  0.00    +0.000 HD
BRANCH  21  24
ATOM     24  C   UNL     1      44.646   5.129  11.357  0.00  0.00    +0.000 A 
ATOM     25  C   UNL     1      43.839   4.501  12.298  0.00  0.00    +0.000 A 
ATOM     26  S   UNL     1      43.361   2.931  11.825  0.00  0.00    +0.000 S 
ATOM     27  C   UNL     1      44.192   3.061  10.344  0.00  0.00    +0.000 A 
ATOM     28  N   UNL     1      44.163   2.054   9.432  0.00  0.00    +0.000 NA
ATOM     29  C   UNL     1      44.827   2.298   8.347  0.00  0.00    +0.000 A 
ATOM     30  N   UNL     1      45.534   3.448   8.080  0.00  0.00    +0.000 N 
ATOM     31  C   UNL     1      46.291   3.600   6.855  0.00  0.00    +0.000 C 
ATOM     32  C   UNL     1      45.611   4.484   9.001  0.00  0.00    +0.000 A 
ATOM     33  O   UNL     1      46.291   5.486   8.810  0.00  0.00    +0.000 OA
ATOM     34  C   UNL     1      44.853   4.268  10.225  0.00  0.00    +0.000 A 
ENDBRANCH  21  24
ENDBRANCH  19  20
ENDBRANCH   4  19
TORSDOF 8
ENDMDL
MODEL 6
REMARK VINA RESULT:    -7.292      2.334      3.472
REMARK INTER + INTRA:         -12.344
REMARK INTER:                 -11.126
REMARK INTRA:                  -1.219
REMARK UNBOUND:                -1.641
REMARK  Name = 
REMARK  10 active torsions:
REMARK  status: ('A' for Active; 'I' for Inactive)
REMARK    1  A    between atoms: C_1  and  C_2
REMARK    2  A    between atoms: C_2  and  C_3
REMARK    3  A    between atoms: C_2  and  C_27
REMARK    4  A    between atoms: C_3  and  N_4
REMARK    5  A    between atoms: N_4  and  C_5
REMARK    6  A    between atoms: C_5  and  C_6
REMARK    7  A    between atoms: C_9  and  C_10
REMARK    8  A    between atoms: C_10  and  N_11
REMARK    9  A    between atoms: C_12  and  C_14
REMARK   10  A    between atoms: N_20  and  C_21
REMARK                            x       y       z     vdW  Elec       q    Type
REMARK                         _______ _______ _______ _____ _____    ______ ____
ROOT
ATOM      1  C   UNL     1      45.857   5.906  12.296  0.00  0.00    +0.000 A 
ATOM      2  C   UNL     1      46.984   6.412  12.963  0.00  0.00    +0.000 A 
ATOM      3  C   UNL     1      47.499   5.787  14.095  0.00  0.00    +0.000 A 
ATOM      4  C   UNL     1      46.905   4.618  14.589  0.00  0.00    +0.000 A 
ATOM      5  C   UNL     1      45.765   4.119  13.944  0.00  0.00    +0.000 A 
ATOM      6  C   UNL     1      45.255   4.745  12.801  0.00  0.00    +0.000 A 
ENDROOT
BRANCH   1   7
ATOM      7  C   UNL     1      45.231   6.632  11.123  0.00  0.00    +0.000 C 
BRANCH   7   8
ATOM      8  N   UNL     1      44.529   5.726  10.221  0.00  0.00    +0.000 NA
ATOM      9  H   UNL     1      44.115   4.972  10.783  0.00  0.00    +0.000 HD
BRANCH   8  10
ATOM     10  C   UNL     1      45.439   5.030   9.308  0.00  0.00    +0.000 C 
BRANCH  10  12
ATOM     11  C   UNL     1      44.222   2.902   9.962  0.00  0.00    +0.000 C 
ATOM     12  C   UNL     1      44.804   3.709   8.794  0.00  0.00    +0.000 C 
BRANCH  12  13
ATOM     13  C   UNL     1      45.766   2.873   7.952  0.00  0.00    +0.000 A 
ATOM     14  C   UNL     1      46.394   3.420   6.833  0.00  0.00    +0.000 A 
ATOM     15  C   UNL     1      47.302   2.644   6.115  0.00  0.00    +0.000 A 
ATOM     16  C   UNL     1      47.558   1.341   6.525  0.00  0.00    +0.000 A 
ATOM     17  C   UNL     1      46.885   0.861   7.635  0.00  0.00    +0.000 A 
ATOM     18  N   UNL     1      46.005   1.594   8.345  0.00  0.00    +0.000 NA
ENDBRANCH  12  13
ENDBRANCH  10  12
ENDBRANCH   8  10
ENDBRANCH   7   8
ENDBRANCH   1   7
BRANCH   4  19
ATOM     19  C   UNL     1      47.467   3.926  15.801  0.00  0.00    +0.000 C 
BRANCH  19  20
ATOM     20  N   UNL     1      47.369   4.755  16.971  0.00  0.00    +0.000 N 
ATOM     21  C   UNL     1      48.480   5.296  17.569  0.00  0.00    +0.000 C 
ATOM     22  O   UNL     1      49.621   5.011  17.222  0.00  0.00    +0.000 OA
ATOM     23  H   UNL     1      46.464   5.184  17.133  0.00  0.00    +0.000 HD
BRANCH  21  24
ATOM     24  C   UNL     1      48.211   6.209  18.691  0.00  0.00    +0.000 A 
ATOM     25  C   UNL     1      47.959   5.706  19.961  0.00  0.00    +0.000 A 
ATOM     26  S   UNL     1      47.689   6.931  21.120  0.00  0.00    +0.000 S 
ATOM     27  C   UNL     1      47.931   8.160  19.966  0.00  0.00    +0.000 A 
ATOM     28  N   UNL     1      47.873   9.472  20.313  0.00  0.00    +0.000 NA
ATOM     29  C   UNL     1      48.092  10.292  19.335  0.00  0.00    +0.000 A 
ATOM     30  N   UNL     1      48.353   9.937  18.032  0.00  0.00    +0.000 N 
ATOM     31  C   UNL     1      48.529  10.936  16.999  0.00  0.00    +0.000 C 
ATOM     32  C   UNL     1      48.389   8.607  17.635  0.00  0.00    +0.000 A 
ATOM     33  O   UNL     1      48.551   8.272  16.466  0.00  0.00    +0.000 OA
ATOM     34  C   UNL     1      48.179   7.645  18.708  0.00  0.00    +0.000 A 
ENDBRANCH  21  24
ENDBRANCH  19  20
ENDBRANCH   4  19
TORSDOF 8
ENDMDL
MODEL 7
REMARK VINA RESULT:    -7.200      3.020      9.213
REMARK INTER + INTRA:         -12.209
REMARK INTER:                 -10.415
REMARK INTRA:                  -1.793
REMARK UNBOUND:                -1.641
REMARK  Name = 
REMARK  10 active torsions:
REMARK  status: ('A' for Active; 'I' for Inactive)
REMARK    1  A    between atoms: C_1  and  C_2
REMARK    2  A    between atoms: C_2  and  C_3
REMARK    3  A    between atoms: C_2  and  C_27
REMARK    4  A    between atoms: C_3  and  N_4
REMARK    5  A    between atoms: N_4  and  C_5
REMARK    6  A    between atoms: C_5  and  C_6
REMARK    7  A    between atoms: C_9  and  C_10
REMARK    8  A    between atoms: C_10  and  N_11
REMARK    9  A    between atoms: C_12  and  C_14
REMARK   10  A    between atoms: N_20  and  C_21
REMARK                            x       y       z     vdW  Elec       q    Type
REMARK                         _______ _______ _______ _____ _____    ______ ____
ROOT
ATOM      1  C   UNL     1      50.380   7.451  15.118  0.00  0.00    +0.000 A 
ATOM      2  C   UNL     1      50.568   8.266  13.990  0.00  0.00    +0.000 A 
ATOM      3  C   UNL     1      49.601   8.361  12.993  0.00  0.00    +0.000 A 
ATOM      4  C   UNL     1      48.400   7.646  13.103  0.00  0.00    +0.000 A 
ATOM      5  C   UNL     1      48.214   6.812  14.213  0.00  0.00    +0.000 A 
ATOM      6  C   UNL     1      49.184   6.726  15.218  0.00  0.00    +0.000 A 
ENDROOT
BRANCH   1   7
ATOM      7  C   UNL     1      51.464   7.266  16.159  0.00  0.00    +0.000 C 
BRANCH   7   8
ATOM      8  N   UNL     1      51.633   5.869  16.541  0.00  0.00    +0.000 NA
ATOM      9  H   UNL     1      50.738   5.386  16.393  0.00  0.00    +0.000 HD
BRANCH   8  10
ATOM     10  C   UNL     1      51.891   5.708  17.974  0.00  0.00    +0.000 C 
BRANCH  10  12
ATOM     11  C   UNL     1      52.232   3.198  18.125  0.00  0.00    +0.000 C 
ATOM     12  C   UNL     1      51.307   4.366  18.494  0.00  0.00    +0.000 C 
BRANCH  12  13
ATOM     13  C   UNL     1      49.873   4.120  18.030  0.00  0.00    +0.000 A 
ATOM     14  C   UNL     1      49.546   2.976  17.302  0.00  0.00    +0.000 A 
ATOM     15  C   UNL     1      48.219   2.760  16.933  0.00  0.00    +0.000 A 
ATOM     16  C   UNL     1      47.252   3.690  17.295  0.00  0.00    +0.000 A 
ATOM     17  C   UNL     1      47.654   4.810  18.002  0.00  0.00    +0.000 A 
ATOM     18  N   UNL     1      48.930   5.038  18.370  0.00  0.00    +0.000 NA
ENDBRANCH  12  13
ENDBRANCH  10  12
ENDBRANCH   8  10
ENDBRANCH   7   8
ENDBRANCH   1   7
BRANCH   4  19
ATOM     19  C   UNL     1      47.343   7.757  12.039  0.00  0.00    +0.000 C 
BRANCH  19  20
ATOM     20  N   UNL     1      46.630   6.520  11.876  0.00  0.00    +0.000 N 
ATOM     21  C   UNL     1      45.298   6.491  11.545  0.00  0.00    +0.000 C 
ATOM     22  O   UNL     1      44.610   7.504  11.487  0.00  0.00    +0.000 OA
ATOM     23  H   UNL     1      47.201   5.703  11.691  0.00  0.00    +0.000 HD
BRANCH  21  24
ATOM     24  C   UNL     1      44.736   5.153  11.307  0.00  0.00    +0.000 A 
ATOM     25  C   UNL     1      43.901   4.564  12.249  0.00  0.00    +0.000 A 
ATOM     26  S   UNL     1      43.345   3.020  11.774  0.00  0.00    +0.000 S 
ATOM     27  C   UNL     1      44.178   3.112  10.291  0.00  0.00    +0.000 A 
ATOM     28  N   UNL     1      44.097   2.110   9.377  0.00  0.00    +0.000 NA
ATOM     29  C   UNL     1      44.770   2.324   8.291  0.00  0.00    +0.000 A 
ATOM     30  N   UNL     1      45.532   3.438   8.025  0.00  0.00    +0.000 N 
ATOM     31  C   UNL     1      46.292   3.555   6.798  0.00  0.00    +0.000 C 
ATOM     32  C   UNL     1      45.662   4.466   8.947  0.00  0.00    +0.000 A 
ATOM     33  O   UNL     1      46.391   5.434   8.757  0.00  0.00    +0.000 OA
ATOM     34  C   UNL     1      44.897   4.285  10.173  0.00  0.00    +0.000 A 
ENDBRANCH  21  24
ENDBRANCH  19  20
ENDBRANCH   4  19
TORSDOF 8
ENDMDL
MODEL 8
REMARK VINA RESULT:    -7.087      1.991      2.709
REMARK INTER + INTRA:         -12.043
REMARK INTER:                 -11.148
REMARK INTRA:                  -0.895
REMARK UNBOUND:                -1.641
REMARK  Name = 
REMARK  10 active torsions:
REMARK  status: ('A' for Active; 'I' for Inactive)
REMARK    1  A    between atoms: C_1  and  C_2
REMARK    2  A    between atoms: C_2  and  C_3
REMARK    3  A    between atoms: C_2  and  C_27
REMARK    4  A    between atoms: C_3  and  N_4
REMARK    5  A    between atoms: N_4  and  C_5
REMARK    6  A    between atoms: C_5  and  C_6
REMARK    7  A    between atoms: C_9  and  C_10
REMARK    8  A    between atoms: C_10  and  N_11
REMARK    9  A    between atoms: C_12  and  C_14
REMARK   10  A    between atoms: N_20  and  C_21
REMARK                            x       y       z     vdW  Elec       q    Type
REMARK                         _______ _______ _______ _____ _____    ______ ____
ROOT
ATOM      1  C   UNL     1      44.533   5.975  11.908  0.00  0.00    +0.000 A 
ATOM      2  C   UNL     1      44.947   7.301  11.706  0.00  0.00    +0.000 A 
ATOM      3  C   UNL     1      46.079   7.813  12.336  0.00  0.00    +0.000 A 
ATOM      4  C   UNL     1      46.844   7.001  13.183  0.00  0.00    +0.000 A 
ATOM      5  C   UNL     1      46.425   5.683  13.409  0.00  0.00    +0.000 A 
ATOM      6  C   UNL     1      45.293   5.169  12.768  0.00  0.00    +0.000 A 
ENDROOT
BRANCH   1   7
ATOM      7  C   UNL     1      43.251   5.438  11.306  0.00  0.00    +0.000 C 
BRANCH   7   8
ATOM      8  N   UNL     1      43.383   5.160   9.880  0.00  0.00    +0.000 NA
ATOM      9  H   UNL     1      42.675   4.463   9.622  0.00  0.00    +0.000 HD
BRANCH   8  10
ATOM     10  C   UNL     1      44.656   4.512   9.552  0.00  0.00    +0.000 C 
BRANCH  10  12
ATOM     11  C   UNL     1      44.156   2.098  10.152  0.00  0.00    +0.000 C 
ATOM     12  C   UNL     1      44.421   3.079   9.002  0.00  0.00    +0.000 C 
BRANCH  12  13
ATOM     13  C   UNL     1      45.553   2.595   8.097  0.00  0.00    +0.000 A 
ATOM     14  C   UNL     1      46.041   3.406   7.072  0.00  0.00    +0.000 A 
ATOM     15  C   UNL     1      47.105   2.952   6.294  0.00  0.00    +0.000 A 
ATOM     16  C   UNL     1      47.654   1.701   6.553  0.00  0.00    +0.000 A 
ATOM     17  C   UNL     1      47.105   0.947   7.575  0.00  0.00    +0.000 A 
ATOM     18  N   UNL     1      46.078   1.365   8.340  0.00  0.00    +0.000 NA
ENDBRANCH  12  13
ENDBRANCH  10  12
ENDBRANCH   8  10
ENDBRANCH   7   8
ENDBRANCH   1   7
BRANCH   4  19
ATOM     19  C   UNL     1      48.078   7.540  13.853  0.00  0.00    +0.000 C 
BRANCH  19  20
ATOM     20  N   UNL     1      48.590   6.620  14.831  0.00  0.00    +0.000 N 
ATOM     21  C   UNL     1      49.077   7.048  16.041  0.00  0.00    +0.000 C 
ATOM     22  O   UNL     1      49.218   8.235  16.314  0.00  0.00    +0.000 OA
ATOM     23  H   UNL     1      48.280   5.659  14.737  0.00  0.00    +0.000 HD
BRANCH  21  24
ATOM     24  C   UNL     1      49.463   5.982  16.978  0.00  0.00    +0.000 A 
ATOM     25  C   UNL     1      48.492   5.284  17.687  0.00  0.00    +0.000 A 
ATOM     26  S   UNL     1      49.149   4.080  18.706  0.00  0.00    +0.000 S 
ATOM     27  C   UNL     1      50.736   4.438  18.205  0.00  0.00    +0.000 A 
ATOM     28  N   UNL     1      51.798   3.736  18.680  0.00  0.00    +0.000 NA
ATOM     29  C   UNL     1      52.941   4.109  18.200  0.00  0.00    +0.000 A 
ATOM     30  N   UNL     1      53.139   5.127  17.296  0.00  0.00    +0.000 N 
ATOM     31  C   UNL     1      54.469   5.502  16.863  0.00  0.00    +0.000 C 
ATOM     32  C   UNL     1      52.082   5.886  16.814  0.00  0.00    +0.000 A 
ATOM     33  O   UNL     1      52.245   6.841  16.062  0.00  0.00    +0.000 OA
ATOM     34  C   UNL     1      50.770   5.483  17.302  0.00  0.00    +0.000 A 
ENDBRANCH  21  24
ENDBRANCH  19  20
ENDBRANCH   4  19
TORSDOF 8
ENDMDL
MODEL 9
REMARK VINA RESULT:    -7.016      4.976      9.842
REMARK INTER + INTRA:         -11.939
REMARK INTER:                 -10.734
REMARK INTRA:                  -1.205
REMARK UNBOUND:                -1.641
REMARK  Name = 
REMARK  10 active torsions:
REMARK  status: ('A' for Active; 'I' for Inactive)
REMARK    1  A    between atoms: C_1  and  C_2
REMARK    2  A    between atoms: C_2  and  C_3
REMARK    3  A    between atoms: C_2  and  C_27
REMARK    4  A    between atoms: C_3  and  N_4
REMARK    5  A    between atoms: N_4  and  C_5
REMARK    6  A    between atoms: C_5  and  C_6
REMARK    7  A    between atoms: C_9  and  C_10
REMARK    8  A    between atoms: C_10  and  N_11
REMARK    9  A    between atoms: C_12  and  C_14
REMARK   10  A    between atoms: N_20  and  C_21
REMARK                            x       y       z     vdW  Elec       q    Type
REMARK                         _______ _______ _______ _____ _____    ______ ____
ROOT
ATOM      1  C   UNL     1      51.563   2.782  17.766  0.00  0.00    +0.000 A 
ATOM      2  C   UNL     1      50.746   1.837  17.126  0.00  0.00    +0.000 A 
ATOM      3  C   UNL     1      49.408   2.103  16.847  0.00  0.00    +0.000 A 
ATOM      4  C   UNL     1      48.847   3.340  17.192  0.00  0.00    +0.000 A 
ATOM      5  C   UNL     1      49.648   4.280  17.853  0.00  0.00    +0.000 A 
ATOM      6  C   UNL     1      50.995   4.013  18.124  0.00  0.00    +0.000 A 
ENDROOT
BRANCH   1   7
ATOM      7  C   UNL     1      52.991   2.467  18.161  0.00  0.00    +0.000 C 
BRANCH   7   8
ATOM      8  N   UNL     1      53.188   1.049  18.438  0.00  0.00    +0.000 NA
ATOM      9  H   UNL     1      52.732   0.830  19.332  0.00  0.00    +0.000 HD
BRANCH   8  10
ATOM     10  C   UNL     1      54.596   0.714  18.666  0.00  0.00    +0.000 C 
BRANCH  10  12
ATOM     11  C   UNL     1      54.710  -0.268  16.330  0.00  0.00    +0.000 C 
ATOM     12  C   UNL     1      55.019  -0.513  17.813  0.00  0.00    +0.000 C 
BRANCH  12  13
ATOM     13  C   UNL     1      54.409  -1.823  18.309  0.00  0.00    +0.000 A 
ATOM     14  C   UNL     1      54.789  -3.042  17.749  0.00  0.00    +0.000 A 
ATOM     15  C   UNL     1      54.247  -4.222  18.256  0.00  0.00    +0.000 A 
ATOM     16  C   UNL     1      53.337  -4.158  19.305  0.00  0.00    +0.000 A 
ATOM     17  C   UNL     1      52.995  -2.911  19.797  0.00  0.00    +0.000 A 
ATOM     18  N   UNL     1      53.507  -1.758  19.324  0.00  0.00    +0.000 NA
ENDBRANCH  12  13
ENDBRANCH  10  12
ENDBRANCH   8  10
ENDBRANCH   7   8
ENDBRANCH   1   7
BRANCH   4  19
ATOM     19  C   UNL     1      47.407   3.642  16.878  0.00  0.00    +0.000 C 
BRANCH  19  20
ATOM     20  N   UNL     1      47.293   4.689  15.901  0.00  0.00    +0.000 N 
ATOM     21  C   UNL     1      47.199   4.419  14.558  0.00  0.00    +0.000 C 
ATOM     22  O   UNL     1      47.329   3.288  14.101  0.00  0.00    +0.000 OA
ATOM     23  H   UNL     1      46.957   5.582  16.248  0.00  0.00    +0.000 HD
BRANCH  21  24
ATOM     24  C   UNL     1      46.977   5.588  13.693  0.00  0.00    +0.000 A 
ATOM     25  C   UNL     1      47.990   6.519  13.496  0.00  0.00    +0.000 A 
ATOM     26  S   UNL     1      47.533   7.788  12.447  0.00  0.00    +0.000 S 
ATOM     27  C   UNL     1      45.989   7.112  12.206  0.00  0.00    +0.000 A 
ATOM     28  N   UNL     1      45.089   7.696  11.373  0.00  0.00    +0.000 NA
ATOM     29  C   UNL     1      43.963   7.064  11.276  0.00  0.00    +0.000 A 
ATOM     30  N   UNL     1      43.634   5.905  11.941  0.00  0.00    +0.000 N 
ATOM     31  C   UNL     1      42.323   5.305  11.805  0.00  0.00    +0.000 C 
ATOM     32  C   UNL     1      44.516   5.297  12.823  0.00  0.00    +0.000 A 
ATOM     33  O   UNL     1      44.216   4.303  13.476  0.00  0.00    +0.000 OA
ATOM     34  C   UNL     1      45.810   5.956  12.941  0.00  0.00    +0.000 A 
ENDBRANCH  21  24
ENDBRANCH  19  20
ENDBRANCH   4  19
TORSDOF 8
ENDMDL
