MODEL 1
REMARK VINA RESULT:    -7.967      0.000      0.000
REMARK INTER + INTRA:         -11.483
REMARK INTER:                 -10.761
REMARK INTRA:                  -0.721
REMARK UNBOUND:                -0.721
REMARK  Name = 
REMARK  9 active torsions:
REMARK  status: ('A' for Active; 'I' for Inactive)
REMARK    1  A    between atoms: C_1  and  C_2
REMARK    2  A    between atoms: C_2  and  C_3
REMARK    3  A    between atoms: C_2  and  C_4
REMARK    4  A    between atoms: C_2  and  C_5
REMARK    5  A    between atoms: C_7  and  C_8
REMARK    6  A    between atoms: C_8  and  O_9
REMARK    7  A    between atoms: O_9  and  C_10
REMARK    8  A    between atoms: C_13  and  C_14
REMARK    9  A    between atoms: C_19  and  C_20
REMARK                            x       y       z     vdW  Elec       q    Type
REMARK                         _______ _______ _______ _____ _____    ______ ____
ROOT
ATOM      1  C   UNL     1      46.846   7.239  12.596  0.00  0.00    +0.000 A 
ATOM      2  C   UNL     1      45.854   6.888  11.662  0.00  0.00    +0.000 A 
ATOM      3  C   UNL     1      45.206   5.641  11.689  0.00  0.00    +0.000 A 
ATOM      4  C   UNL     1      45.566   4.711  12.664  0.00  0.00    +0.000 A 
ATOM      5  C   UNL     1      46.561   5.020  13.595  0.00  0.00    +0.000 A 
ATOM      6  C   UNL     1      47.175   6.282  13.575  0.00  0.00    +0.000 A 
ENDROOT
BRANCH   5   7
ATOM      7  C   UNL     1      46.951   3.967  14.571  0.00  0.00    +0.000 C 
ATOM      8  N   UNL     1      46.767   4.241  15.898  0.00  0.00    +0.000 N 
ATOM      9  O   UNL     1      47.468   2.916  14.215  0.00  0.00    +0.000 OA
ATOM     10  H   UNL     1      46.542   5.162  16.244  0.00  0.00    +0.000 HD
ATOM     11  H   UNL     1      47.165   3.576  16.549  0.00  0.00    +0.000 HD
ENDBRANCH   5   7
BRANCH   1  13
ATOM     12  C   UNL     1      46.636   9.738  12.035  0.00  0.00    +0.000 C 
ATOM     13  C   UNL     1      47.548   8.609  12.567  0.00  0.00    +0.000 C 
ATOM     14  C   UNL     1      48.791   8.568  11.651  0.00  0.00    +0.000 C 
ATOM     15  C   UNL     1      48.004   8.988  13.991  0.00  0.00    +0.000 C 
ENDBRANCH   1  13
BRANCH   3  16
ATOM     16  C   UNL     1      44.182   5.297  10.633  0.00  0.00    +0.000 C 
BRANCH  16  17
ATOM     17  O   UNL     1      44.094   3.879  10.477  0.00  0.00    +0.000 OA
BRANCH  17  18
ATOM     18  C   UNL     1      44.935   3.425   9.479  0.00  0.00    +0.000 A 
ATOM     19  C   UNL     1      45.487   4.372   8.631  0.00  0.00    +0.000 A 
ATOM     20  C   UNL     1      46.340   3.932   7.617  0.00  0.00    +0.000 A 
ATOM     21  C   UNL     1      46.613   2.569   7.495  0.00  0.00    +0.000 A 
ATOM     22  C   UNL     1      46.019   1.702   8.398  0.00  0.00    +0.000 A 
ATOM     23  N   UNL     1      45.186   2.102   9.383  0.00  0.00    +0.000 NA
BRANCH  21  24
ATOM     24  C   UNL     1      47.475   2.063   6.479  0.00  0.00    +0.000 C 
ATOM     25  N   UNL     1      48.188   1.649   5.660  0.00  0.00    +0.000 NA
ENDBRANCH  21  24
ENDBRANCH  17  18
ENDBRANCH  16  17
ENDBRANCH   3  16
TORSDOF 6
ENDMDL
MODEL 2
REMARK VINA RESULT:    -7.665      2.493      3.572
REMARK INTER + INTRA:         -11.075
REMARK INTER:                 -10.204
REMARK INTRA:                  -0.871
REMARK UNBOUND:                -0.721
REMARK  Name = 
REMARK  9 active torsions:
REMARK  status: ('A' for Active; 'I' for Inactive)
REMARK    1  A    between atoms: C_1  and  C_2
REMARK    2  A    between atoms: C_2  and  C_3
REMARK    3  A    between atoms: C_2  and  C_4
REMARK    4  A    between atoms: C_2  and  C_5
REMARK    5  A    between atoms: C_7  and  C_8
REMARK    6  A    between atoms: C_8  and  O_9
REMARK    7  A    between atoms: O_9  and  C_10
REMARK    8  A    between atoms: C_13  and  C_14
REMARK    9  A    between atoms: C_19  and  C_20
REMARK                            x       y       z     vdW  Elec       q    Type
REMARK                         _______ _______ _______ _____ _____    ______ ____
ROOT
ATOM      1  C   UNL     1      46.783   7.368  12.680  0.00  0.00    +0.000 A 
ATOM      2  C   UNL     1      46.217   6.124  12.347  0.00  0.00    +0.000 A 
ATOM      3  C   UNL     1      45.000   6.016  11.653  0.00  0.00    +0.000 A 
ATOM      4  C   UNL     1      44.317   7.179  11.295  0.00  0.00    +0.000 A 
ATOM      5  C   UNL     1      44.842   8.430  11.628  0.00  0.00    +0.000 A 
ATOM      6  C   UNL     1      46.076   8.522  12.290  0.00  0.00    +0.000 A 
ENDROOT
BRANCH   5   7
ATOM      7  C   UNL     1      44.041   9.634  11.279  0.00  0.00    +0.000 C 
ATOM      8  N   UNL     1      43.256   9.564  10.162  0.00  0.00    +0.000 N 
ATOM      9  O   UNL     1      44.119  10.671  11.926  0.00  0.00    +0.000 OA
ATOM     10  H   UNL     1      43.320   8.815   9.489  0.00  0.00    +0.000 HD
ATOM     11  H   UNL     1      42.831  10.433   9.862  0.00  0.00    +0.000 HD
ENDBRANCH   5   7
BRANCH   1  13
ATOM     12  C   UNL     1      49.347   7.353  12.498  0.00  0.00    +0.000 C 
ATOM     13  C   UNL     1      48.122   7.482  13.433  0.00  0.00    +0.000 C 
ATOM     14  C   UNL     1      48.249   6.368  14.495  0.00  0.00    +0.000 C 
ATOM     15  C   UNL     1      48.201   8.847  14.146  0.00  0.00    +0.000 C 
ENDBRANCH   1  13
BRANCH   3  16
ATOM     16  C   UNL     1      44.413   4.655  11.363  0.00  0.00    +0.000 C 
BRANCH  16  17
ATOM     17  O   UNL     1      43.947   4.597  10.013  0.00  0.00    +0.000 OA
BRANCH  17  18
ATOM     18  C   UNL     1      44.855   3.961   9.189  0.00  0.00    +0.000 A 
ATOM     19  C   UNL     1      44.936   2.580   9.275  0.00  0.00    +0.000 A 
ATOM     20  C   UNL     1      45.848   1.919   8.450  0.00  0.00    +0.000 A 
ATOM     21  C   UNL     1      46.636   2.661   7.569  0.00  0.00    +0.000 A 
ATOM     22  C   UNL     1      46.475   4.037   7.551  0.00  0.00    +0.000 A 
ATOM     23  N   UNL     1      45.605   4.700   8.343  0.00  0.00    +0.000 NA
BRANCH  21  24
ATOM     24  C   UNL     1      47.583   2.040   6.704  0.00  0.00    +0.000 C 
ATOM     25  N   UNL     1      48.346   1.529   5.992  0.00  0.00    +0.000 NA
ENDBRANCH  21  24
ENDBRANCH  17  18
ENDBRANCH  16  17
ENDBRANCH   3  16
TORSDOF 6
ENDMDL
MODEL 3
REMARK VINA RESULT:    -6.500      3.663      6.925
REMARK INTER + INTRA:          -9.501
REMARK INTER:                  -8.713
REMARK INTRA:                  -0.789
REMARK UNBOUND:                -0.721
REMARK  Name = 
REMARK  9 active torsions:
REMARK  status: ('A' for Active; 'I' for Inactive)
REMARK    1  A    between atoms: C_1  and  C_2
REMARK    2  A    between atoms: C_2  and  C_3
REMARK    3  A    between atoms: C_2  and  C_4
REMARK    4  A    between atoms: C_2  and  C_5
REMARK    5  A    between atoms: C_7  and  C_8
REMARK    6  A    between atoms: C_8  and  O_9
REMARK    7  A    between atoms: O_9  and  C_10
REMARK    8  A    between atoms: C_13  and  C_14
REMARK    9  A    between atoms: C_19  and  C_20
REMARK                            x       y       z     vdW  Elec       q    Type
REMARK                         _______ _______ _______ _____ _____    ______ ____
ROOT
ATOM      1  C   UNL     1      46.377   6.926  12.731  0.00  0.00    +0.000 A 
ATOM      2  C   UNL     1      46.978   5.845  13.401  0.00  0.00    +0.000 A 
ATOM      3  C   UNL     1      46.373   4.579  13.473  0.00  0.00    +0.000 A 
ATOM      4  C   UNL     1      45.127   4.387  12.875  0.00  0.00    +0.000 A 
ATOM      5  C   UNL     1      44.494   5.445  12.218  0.00  0.00    +0.000 A 
ATOM      6  C   UNL     1      45.127   6.694  12.126  0.00  0.00    +0.000 A 
ENDROOT
BRANCH   5   7
ATOM      7  C   UNL     1      43.139   5.202  11.655  0.00  0.00    +0.000 C 
ATOM      8  N   UNL     1      42.219   6.206  11.775  0.00  0.00    +0.000 N 
ATOM      9  O   UNL     1      42.833   4.129  11.151  0.00  0.00    +0.000 OA
ATOM     10  H   UNL     1      42.360   7.016  12.360  0.00  0.00    +0.000 HD
ATOM     11  H   UNL     1      41.269   5.972  11.515  0.00  0.00    +0.000 HD
ENDBRANCH   5   7
BRANCH   1  13
ATOM     12  C   UNL     1      48.282   8.323  11.717  0.00  0.00    +0.000 C 
ATOM     13  C   UNL     1      47.047   8.311  12.648  0.00  0.00    +0.000 C 
ATOM     14  C   UNL     1      47.531   8.769  14.041  0.00  0.00    +0.000 C 
ATOM     15  C   UNL     1      46.034   9.346  12.118  0.00  0.00    +0.000 C 
ENDBRANCH   1  13
BRANCH   3  16
ATOM     16  C   UNL     1      47.038   3.465  14.247  0.00  0.00    +0.000 C 
BRANCH  16  17
ATOM     17  O   UNL     1      46.847   3.657  15.650  0.00  0.00    +0.000 OA
BRANCH  17  18
ATOM     18  C   UNL     1      48.051   3.712  16.324  0.00  0.00    +0.000 A 
ATOM     19  C   UNL     1      48.637   2.508  16.683  0.00  0.00    +0.000 A 
ATOM     20  C   UNL     1      49.856   2.544  17.364  0.00  0.00    +0.000 A 
ATOM     21  C   UNL     1      50.442   3.777  17.653  0.00  0.00    +0.000 A 
ATOM     22  C   UNL     1      49.782   4.925  17.245  0.00  0.00    +0.000 A 
ATOM     23  N   UNL     1      48.601   4.917  16.590  0.00  0.00    +0.000 NA
BRANCH  21  24
ATOM     24  C   UNL     1      51.684   3.873  18.346  0.00  0.00    +0.000 C 
ATOM     25  N   UNL     1      52.691   3.946  18.921  0.00  0.00    +0.000 NA
ENDBRANCH  21  24
ENDBRANCH  17  18
ENDBRANCH  16  17
ENDBRANCH   3  16
TORSDOF 6
ENDMDL
MODEL 4
REMARK VINA RESULT:    -6.260      3.739      7.579
REMARK INTER + INTRA:          -9.176
REMARK INTER:                  -8.437
REMARK INTRA:                  -0.739
REMARK UNBOUND:                -0.721
REMARK  Name = 
REMARK  9 active torsions:
REMARK  status: ('A' for Active; 'I' for Inactive)
REMARK    1  A    between atoms: C_1  and  C_2
REMARK    2  A    between atoms: C_2  and  C_3
REMARK    3  A    between atoms: C_2  and  C_4
REMARK    4  A    between atoms: C_2  and  C_5
REMARK    5  A    between atoms: C_7  and  C_8
REMARK    6  A    between atoms: C_8  and  O_9
REMARK    7  A    between atoms: O_9  and  C_10
REMARK    8  A    between atoms: C_13  and  C_14
REMARK    9  A    between atoms: C_19  and  C_20
REMARK                            x       y       z     vdW  Elec       q    Type
REMARK                         _______ _______ _______ _____ _____    ______ ____
ROOT
ATOM      1  C   UNL     1      44.978   4.807  12.124  0.00  0.00    +0.000 A 
ATOM      2  C   UNL     1      45.637   3.884  12.957  0.00  0.00    +0.000 A 
ATOM      3  C   UNL     1      46.701   4.257  13.795  0.00  0.00    +0.000 A 
ATOM      4  C   UNL     1      47.133   5.583  13.794  0.00  0.00    +0.000 A 
ATOM      5  C   UNL     1      46.514   6.522  12.964  0.00  0.00    +0.000 A 
ATOM      6  C   UNL     1      45.430   6.141  12.158  0.00  0.00    +0.000 A 
ENDROOT
BRANCH   5   7
ATOM      7  C   UNL     1      47.057   7.906  12.956  0.00  0.00    +0.000 C 
ATOM      8  N   UNL     1      46.422   8.836  13.731  0.00  0.00    +0.000 N 
ATOM      9  O   UNL     1      48.000   8.225  12.242  0.00  0.00    +0.000 OA
ATOM     10  H   UNL     1      45.527   8.671  14.167  0.00  0.00    +0.000 HD
ATOM     11  H   UNL     1      46.715   9.796  13.605  0.00  0.00    +0.000 HD
ENDBRANCH   5   7
BRANCH   1  13
ATOM     12  C   UNL     1      44.177   4.430   9.711  0.00  0.00    +0.000 C 
ATOM     13  C   UNL     1      43.807   4.396  11.212  0.00  0.00    +0.000 C 
ATOM     14  C   UNL     1      42.607   5.351  11.399  0.00  0.00    +0.000 C 
ATOM     15  C   UNL     1      43.352   2.966  11.565  0.00  0.00    +0.000 C 
ENDBRANCH   1  13
BRANCH   3  16
ATOM     16  C   UNL     1      47.405   3.215  14.633  0.00  0.00    +0.000 C 
BRANCH  16  17
ATOM     17  O   UNL     1      47.390   3.599  16.010  0.00  0.00    +0.000 OA
BRANCH  17  18
ATOM     18  C   UNL     1      48.640   3.474  16.585  0.00  0.00    +0.000 A 
ATOM     19  C   UNL     1      49.162   2.195  16.704  0.00  0.00    +0.000 A 
ATOM     20  C   UNL     1      50.425   2.049  17.282  0.00  0.00    +0.000 A 
ATOM     21  C   UNL     1      51.116   3.183  17.712  0.00  0.00    +0.000 A 
ATOM     22  C   UNL     1      50.513   4.418  17.541  0.00  0.00    +0.000 A 
ATOM     23  N   UNL     1      49.291   4.585  16.991  0.00  0.00    +0.000 NA
BRANCH  21  24
ATOM     24  C   UNL     1      52.407   3.093  18.309  0.00  0.00    +0.000 C 
ATOM     25  N   UNL     1      53.462   3.009  18.789  0.00  0.00    +0.000 NA
ENDBRANCH  21  24
ENDBRANCH  17  18
ENDBRANCH  16  17
ENDBRANCH   3  16
TORSDOF 6
ENDMDL
MODEL 5
REMARK VINA RESULT:    -6.183      3.280      7.062
REMARK INTER + INTRA:          -9.073
REMARK INTER:                  -8.224
REMARK INTRA:                  -0.849
REMARK UNBOUND:                -0.721
REMARK  Name = 
REMARK  9 active torsions:
REMARK  status: ('A' for Active; 'I' for Inactive)
REMARK    1  A    between atoms: C_1  and  C_2
REMARK    2  A    between atoms: C_2  and  C_3
REMARK    3  A    between atoms: C_2  and  C_4
REMARK    4  A    between atoms: C_2  and  C_5
REMARK    5  A    between atoms: C_7  and  C_8
REMARK    6  A    between atoms: C_8  and  O_9
REMARK    7  A    between atoms: O_9  and  C_10
REMARK    8  A    between atoms: C_13  and  C_14
REMARK    9  A    between atoms: C_19  and  C_20
REMARK                            x       y       z     vdW  Elec       q    Type
REMARK                         _______ _______ _______ _____ _____    ______ ____
ROOT
ATOM      1  C   UNL     1      47.528   6.699  13.021  0.00  0.00    +0.000 A 
ATOM      2  C   UNL     1      47.674   6.050  14.261  0.00  0.00    +0.000 A 
ATOM      3  C   UNL     1      46.990   4.862  14.570  0.00  0.00    +0.000 A 
ATOM      4  C   UNL     1      46.123   4.312  13.625  0.00  0.00    +0.000 A 
ATOM      5  C   UNL     1      45.940   4.942  12.391  0.00  0.00    +0.000 A 
ATOM      6  C   UNL     1      46.657   6.109  12.085  0.00  0.00    +0.000 A 
ENDROOT
BRANCH   5   7
ATOM      7  C   UNL     1      44.957   4.347  11.447  0.00  0.00    +0.000 C 
ATOM      8  N   UNL     1      44.770   2.994  11.503  0.00  0.00    +0.000 N 
ATOM      9  O   UNL     1      44.374   5.025  10.610  0.00  0.00    +0.000 OA
ATOM     10  H   UNL     1      45.373   2.376  12.026  0.00  0.00    +0.000 HD
ATOM     11  H   UNL     1      44.206   2.591  10.765  0.00  0.00    +0.000 HD
ENDBRANCH   5   7
BRANCH   1  13
ATOM     12  C   UNL     1      48.967   8.630  13.917  0.00  0.00    +0.000 C 
ATOM     13  C   UNL     1      48.285   7.996  12.683  0.00  0.00    +0.000 C 
ATOM     14  C   UNL     1      47.321   9.059  12.109  0.00  0.00    +0.000 C 
ATOM     15  C   UNL     1      49.371   7.704  11.628  0.00  0.00    +0.000 C 
ENDBRANCH   1  13
BRANCH   3  16
ATOM     16  C   UNL     1      47.146   4.232  15.934  0.00  0.00    +0.000 C 
BRANCH  16  17
ATOM     17  O   UNL     1      47.736   2.935  15.813  0.00  0.00    +0.000 OA
BRANCH  17  18
ATOM     18  C   UNL     1      48.955   2.870  16.460  0.00  0.00    +0.000 A 
ATOM     19  C   UNL     1      49.311   3.944  17.260  0.00  0.00    +0.000 A 
ATOM     20  C   UNL     1      50.539   3.896  17.922  0.00  0.00    +0.000 A 
ATOM     21  C   UNL     1      51.358   2.778  17.763  0.00  0.00    +0.000 A 
ATOM     22  C   UNL     1      50.910   1.751  16.948  0.00  0.00    +0.000 A 
ATOM     23  N   UNL     1      49.729   1.777  16.293  0.00  0.00    +0.000 NA
BRANCH  21  24
ATOM     24  C   UNL     1      52.622   2.674  18.414  0.00  0.00    +0.000 C 
ATOM     25  N   UNL     1      53.658   2.598  18.935  0.00  0.00    +0.000 NA
ENDBRANCH  21  24
ENDBRANCH  17  18
ENDBRANCH  16  17
ENDBRANCH   3  16
TORSDOF 6
ENDMDL
MODEL 6
REMARK VINA RESULT:    -5.947      3.601      6.391
REMARK INTER + INTRA:          -8.754
REMARK INTER:                  -7.962
REMARK INTRA:                  -0.792
REMARK UNBOUND:                -0.721
REMARK  Name = 
REMARK  9 active torsions:
REMARK  status: ('A' for Active; 'I' for Inactive)
REMARK    1  A    between atoms: C_1  and  C_2
REMARK    2  A    between atoms: C_2  and  C_3
REMARK    3  A    between atoms: C_2  and  C_4
REMARK    4  A    between atoms: C_2  and  C_5
REMARK    5  A    between atoms: C_7  and  C_8
REMARK    6  A    between atoms: C_8  and  O_9
REMARK    7  A    between atoms: O_9  and  C_10
REMARK    8  A    between atoms: C_13  and  C_14
REMARK    9  A    between atoms: C_19  and  C_20
REMARK                            x       y       z     vdW  Elec       q    Type
REMARK                         _______ _______ _______ _____ _____    ______ ____
ROOT
ATOM      1  C   UNL     1      45.149   4.855  12.020  0.00  0.00    +0.000 A 
ATOM      2  C   UNL     1      45.925   5.961  11.627  0.00  0.00    +0.000 A 
ATOM      3  C   UNL     1      47.082   6.350  12.323  0.00  0.00    +0.000 A 
ATOM      4  C   UNL     1      47.470   5.629  13.453  0.00  0.00    +0.000 A 
ATOM      5  C   UNL     1      46.711   4.537  13.882  0.00  0.00    +0.000 A 
ATOM      6  C   UNL     1      45.577   4.140  13.156  0.00  0.00    +0.000 A 
ENDROOT
BRANCH   5   7
ATOM      7  C   UNL     1      47.134   3.844  15.128  0.00  0.00    +0.000 C 
ATOM      8  N   UNL     1      46.752   4.401  16.317  0.00  0.00    +0.000 N 
ATOM      9  O   UNL     1      47.843   2.846  15.103  0.00  0.00    +0.000 OA
ATOM     10  H   UNL     1      46.351   5.324  16.390  0.00  0.00    +0.000 HD
ATOM     11  H   UNL     1      47.165   3.998  17.150  0.00  0.00    +0.000 HD
ENDBRANCH   5   7
BRANCH   1  13
ATOM     12  C   UNL     1      43.371   3.032  11.676  0.00  0.00    +0.000 C 
ATOM     13  C   UNL     1      43.886   4.426  11.251  0.00  0.00    +0.000 C 
ATOM     14  C   UNL     1      44.167   4.356   9.733  0.00  0.00    +0.000 C 
ATOM     15  C   UNL     1      42.759   5.451  11.491  0.00  0.00    +0.000 C 
ENDBRANCH   1  13
BRANCH   3  16
ATOM     16  C   UNL     1      47.851   7.574  11.886  0.00  0.00    +0.000 C 
BRANCH  16  17
ATOM     17  O   UNL     1      48.695   8.030  12.947  0.00  0.00    +0.000 OA
BRANCH  17  18
ATOM     18  C   UNL     1      50.011   8.135  12.539  0.00  0.00    +0.000 A 
ATOM     19  C   UNL     1      50.309   7.750  11.241  0.00  0.00    +0.000 A 
ATOM     20  C   UNL     1      51.634   7.851  10.811  0.00  0.00    +0.000 A 
ATOM     21  C   UNL     1      52.603   8.337  11.689  0.00  0.00    +0.000 A 
ATOM     22  C   UNL     1      52.204   8.704  12.963  0.00  0.00    +0.000 A 
ATOM     23  N   UNL     1      50.931   8.611  13.405  0.00  0.00    +0.000 NA
BRANCH  21  24
ATOM     24  C   UNL     1      53.970   8.460  11.304  0.00  0.00    +0.000 C 
ATOM     25  N   UNL     1      55.086   8.548  10.993  0.00  0.00    +0.000 NA
ENDBRANCH  21  24
ENDBRANCH  17  18
ENDBRANCH  16  17
ENDBRANCH   3  16
TORSDOF 6
ENDMDL
MODEL 7
REMARK VINA RESULT:    -5.899      4.453      6.726
REMARK INTER + INTRA:          -8.690
REMARK INTER:                  -7.822
REMARK INTRA:                  -0.867
REMARK UNBOUND:                -0.721
REMARK  Name = 
REMARK  9 active torsions:
REMARK  status: ('A' for Active; 'I' for Inactive)
REMARK    1  A    between atoms: C_1  and  C_2
REMARK    2  A    between atoms: C_2  and  C_3
REMARK    3  A    between atoms: C_2  and  C_4
REMARK    4  A    between atoms: C_2  and  C_5
REMARK    5  A    between atoms: C_7  and  C_8
REMARK    6  A    between atoms: C_8  and  O_9
REMARK    7  A    between atoms: O_9  and  C_10
REMARK    8  A    between atoms: C_13  and  C_14
REMARK    9  A    between atoms: C_19  and  C_20
REMARK                            x       y       z     vdW  Elec       q    Type
REMARK                         _______ _______ _______ _____ _____    ______ ____
ROOT
ATOM      1  C   UNL     1      50.586   5.043  17.974  0.00  0.00    +0.000 A 
ATOM      2  C   UNL     1      49.311   4.825  17.421  0.00  0.00    +0.000 A 
ATOM      3  C   UNL     1      48.890   3.557  16.984  0.00  0.00    +0.000 A 
ATOM      4  C   UNL     1      49.769   2.479  17.085  0.00  0.00    +0.000 A 
ATOM      5  C   UNL     1      51.050   2.665  17.611  0.00  0.00    +0.000 A 
ATOM      6  C   UNL     1      51.443   3.930  18.075  0.00  0.00    +0.000 A 
ENDROOT
BRANCH   5   7
ATOM      7  C   UNL     1      51.968   1.494  17.636  0.00  0.00    +0.000 C 
ATOM      8  N   UNL     1      51.456   0.303  18.071  0.00  0.00    +0.000 N 
ATOM      9  O   UNL     1      53.151   1.595  17.335  0.00  0.00    +0.000 OA
ATOM     10  H   UNL     1      50.557   0.222  18.521  0.00  0.00    +0.000 HD
ATOM     11  H   UNL     1      52.125  -0.443  18.214  0.00  0.00    +0.000 HD
ENDBRANCH   5   7
BRANCH   1  13
ATOM     12  C   UNL     1      50.117   7.015  19.554  0.00  0.00    +0.000 C 
ATOM     13  C   UNL     1      51.040   6.432  18.459  0.00  0.00    +0.000 C 
ATOM     14  C   UNL     1      51.046   7.445  17.292  0.00  0.00    +0.000 C 
ATOM     15  C   UNL     1      52.469   6.340  19.031  0.00  0.00    +0.000 C 
ENDBRANCH   1  13
BRANCH   3  16
ATOM     16  C   UNL     1      47.528   3.388  16.353  0.00  0.00    +0.000 C 
BRANCH  16  17
ATOM     17  O   UNL     1      47.660   3.172  14.946  0.00  0.00    +0.000 OA
BRANCH  17  18
ATOM     18  C   UNL     1      47.000   4.144  14.219  0.00  0.00    +0.000 A 
ATOM     19  C   UNL     1      47.664   5.341  14.005  0.00  0.00    +0.000 A 
ATOM     20  C   UNL     1      47.013   6.335  13.272  0.00  0.00    +0.000 A 
ATOM     21  C   UNL     1      45.731   6.092  12.778  0.00  0.00    +0.000 A 
ATOM     22  C   UNL     1      45.154   4.860  13.039  0.00  0.00    +0.000 A 
ATOM     23  N   UNL     1      45.761   3.885  13.750  0.00  0.00    +0.000 NA
BRANCH  21  24
ATOM     24  C   UNL     1      45.019   7.070  12.025  0.00  0.00    +0.000 C 
ATOM     25  N   UNL     1      44.429   7.868  11.420  0.00  0.00    +0.000 NA
ENDBRANCH  21  24
ENDBRANCH  17  18
ENDBRANCH  16  17
ENDBRANCH   3  16
TORSDOF 6
ENDMDL
MODEL 8
REMARK VINA RESULT:    -5.678      3.925      7.804
REMARK INTER + INTRA:          -8.391
REMARK INTER:                  -7.622
REMARK INTRA:                  -0.768
REMARK UNBOUND:                -0.721
REMARK  Name = 
REMARK  9 active torsions:
REMARK  status: ('A' for Active; 'I' for Inactive)
REMARK    1  A    between atoms: C_1  and  C_2
REMARK    2  A    between atoms: C_2  and  C_3
REMARK    3  A    between atoms: C_2  and  C_4
REMARK    4  A    between atoms: C_2  and  C_5
REMARK    5  A    between atoms: C_7  and  C_8
REMARK    6  A    between atoms: C_8  and  O_9
REMARK    7  A    between atoms: O_9  and  C_10
REMARK    8  A    between atoms: C_13  and  C_14
REMARK    9  A    between atoms: C_19  and  C_20
REMARK                            x       y       z     vdW  Elec       q    Type
REMARK                         _______ _______ _______ _____ _____    ______ ____
ROOT
ATOM      1  C   UNL     1      45.007   5.973  11.879  0.00  0.00    +0.000 A 
ATOM      2  C   UNL     1      46.302   5.723  12.371  0.00  0.00    +0.000 A 
ATOM      3  C   UNL     1      47.172   6.759  12.751  0.00  0.00    +0.000 A 
ATOM      4  C   UNL     1      46.749   8.082  12.623  0.00  0.00    +0.000 A 
ATOM      5  C   UNL     1      45.476   8.366  12.119  0.00  0.00    +0.000 A 
ATOM      6  C   UNL     1      44.607   7.319  11.777  0.00  0.00    +0.000 A 
ENDROOT
BRANCH   5   7
ATOM      7  C   UNL     1      45.102   9.794  11.944  0.00  0.00    +0.000 C 
ATOM      8  N   UNL     1      43.811  10.145  12.227  0.00  0.00    +0.000 N 
ATOM      9  O   UNL     1      45.894  10.621  11.509  0.00  0.00    +0.000 OA
ATOM     10  H   UNL     1      43.078   9.469  12.385  0.00  0.00    +0.000 HD
ATOM     11  H   UNL     1      43.538  11.085  11.969  0.00  0.00    +0.000 HD
ENDBRANCH   5   7
BRANCH   1  13
ATOM     12  C   UNL     1      44.340   3.515  12.224  0.00  0.00    +0.000 C 
ATOM     13  C   UNL     1      44.054   4.835  11.471  0.00  0.00    +0.000 C 
ATOM     14  C   UNL     1      44.182   4.527   9.963  0.00  0.00    +0.000 C 
ATOM     15  C   UNL     1      42.597   5.249  11.762  0.00  0.00    +0.000 C 
ENDBRANCH   1  13
BRANCH   3  16
ATOM     16  C   UNL     1      48.568   6.437  13.228  0.00  0.00    +0.000 C 
BRANCH  16  17
ATOM     17  O   UNL     1      48.957   7.343  14.263  0.00  0.00    +0.000 OA
BRANCH  17  18
ATOM     18  C   UNL     1      48.906   6.745  15.507  0.00  0.00    +0.000 A 
ATOM     19  C   UNL     1      49.226   7.528  16.605  0.00  0.00    +0.000 A 
ATOM     20  C   UNL     1      49.179   6.940  17.871  0.00  0.00    +0.000 A 
ATOM     21  C   UNL     1      48.810   5.599  17.990  0.00  0.00    +0.000 A 
ATOM     22  C   UNL     1      48.500   4.903  16.833  0.00  0.00    +0.000 A 
ATOM     23  N   UNL     1      48.543   5.447  15.597  0.00  0.00    +0.000 NA
BRANCH  21  24
ATOM     24  C   UNL     1      48.746   4.948  19.256  0.00  0.00    +0.000 C 
ATOM     25  N   UNL     1      48.692   4.405  20.282  0.00  0.00    +0.000 NA
ENDBRANCH  21  24
ENDBRANCH  17  18
ENDBRANCH  16  17
ENDBRANCH   3  16
TORSDOF 6
ENDMDL
MODEL 9
REMARK VINA RESULT:    -5.544      4.249      6.358
REMARK INTER + INTRA:          -8.209
REMARK INTER:                  -7.370
REMARK INTRA:                  -0.839
REMARK UNBOUND:                -0.721
REMARK  Name = 
REMARK  9 active torsions:
REMARK  status: ('A' for Active; 'I' for Inactive)
REMARK    1  A    between atoms: C_1  and  C_2
REMARK    2  A    between atoms: C_2  and  C_3
REMARK    3  A    between atoms: C_2  and  C_4
REMARK    4  A    between atoms: C_2  and  C_5
REMARK    5  A    between atoms: C_7  and  C_8
REMARK    6  A    between atoms: C_8  and  O_9
REMARK    7  A    between atoms: O_9  and  C_10
REMARK    8  A    between atoms: C_13  and  C_14
REMARK    9  A    between atoms: C_19  and  C_20
REMARK                            x       y       z     vdW  Elec       q    Type
REMARK                         _______ _______ _______ _____ _____    ______ ____
ROOT
ATOM      1  C   UNL     1      48.451   7.383  18.653  0.00  0.00    +0.000 A 
ATOM      2  C   UNL     1      48.524   7.698  17.284  0.00  0.00    +0.000 A 
ATOM      3  C   UNL     1      48.655   6.709  16.294  0.00  0.00    +0.000 A 
ATOM      4  C   UNL     1      48.731   5.370  16.678  0.00  0.00    +0.000 A 
ATOM      5  C   UNL     1      48.681   5.024  18.031  0.00  0.00    +0.000 A 
ATOM      6  C   UNL     1      48.516   6.021  19.005  0.00  0.00    +0.000 A 
ENDROOT
BRANCH   5   7
ATOM      7  C   UNL     1      48.831   3.588  18.387  0.00  0.00    +0.000 C 
ATOM      8  N   UNL     1      48.453   3.210  19.645  0.00  0.00    +0.000 N 
ATOM      9  O   UNL     1      49.325   2.779  17.612  0.00  0.00    +0.000 OA
ATOM     10  H   UNL     1      48.240   3.869  20.378  0.00  0.00    +0.000 HD
ATOM     11  H   UNL     1      48.692   2.264  19.916  0.00  0.00    +0.000 HD
ENDBRANCH   5   7
BRANCH   1  13
ATOM     12  C   UNL     1      47.609   7.945  21.016  0.00  0.00    +0.000 C 
ATOM     13  C   UNL     1      48.300   8.469  19.735  0.00  0.00    +0.000 C 
ATOM     14  C   UNL     1      47.445   9.646  19.214  0.00  0.00    +0.000 C 
ATOM     15  C   UNL     1      49.690   9.011  20.124  0.00  0.00    +0.000 C 
ENDBRANCH   1  13
BRANCH   3  16
ATOM     16  C   UNL     1      48.778   7.105  14.841  0.00  0.00    +0.000 C 
BRANCH  16  17
ATOM     17  O   UNL     1      48.575   5.965  14.002  0.00  0.00    +0.000 OA
BRANCH  17  18
ATOM     18  C   UNL     1      47.266   5.881  13.569  0.00  0.00    +0.000 A 
ATOM     19  C   UNL     1      46.641   4.647  13.665  0.00  0.00    +0.000 A 
ATOM     20  C   UNL     1      45.317   4.543  13.234  0.00  0.00    +0.000 A 
ATOM     21  C   UNL     1      44.670   5.672  12.730  0.00  0.00    +0.000 A 
ATOM     22  C   UNL     1      45.378   6.862  12.682  0.00  0.00    +0.000 A 
ATOM     23  N   UNL     1      46.660   6.988  13.088  0.00  0.00    +0.000 NA
BRANCH  21  24
ATOM     24  C   UNL     1      43.321   5.624  12.274  0.00  0.00    +0.000 C 
ATOM     25  N   UNL     1      42.225   5.586  11.891  0.00  0.00    +0.000 NA
ENDBRANCH  21  24
ENDBRANCH  17  18
ENDBRANCH  16  17
ENDBRANCH   3  16
TORSDOF 6
ENDMDL
