MODEL 1
REMARK VINA RESULT:    -7.012      0.000      0.000
REMARK INTER + INTRA:          -9.981
REMARK INTER:                  -9.266
REMARK INTRA:                  -0.715
REMARK UNBOUND:                -0.715
REMARK  Name = 
REMARK  7 active torsions:
REMARK  status: ('A' for Active; 'I' for Inactive)
REMARK    1  A    between atoms: C_1  and  C_2
REMARK    2  A    between atoms: C_2  and  C_3
REMARK    3  A    between atoms: C_2  and  C_17
REMARK    4  A    between atoms: C_3  and  N_4
REMARK    5  A    between atoms: C_9  and  C_10
REMARK    6  A    between atoms: C_10  and  O_11
REMARK    7  A    between atoms: C_10  and  C_12
REMARK                            x       y       z     vdW  Elec       q    Type
REMARK                         _______ _______ _______ _____ _____    ______ ____
ROOT
ATOM      1  N   UNL     1      45.116   6.059   9.909  0.00  0.00    +0.000 N 
ATOM      2  C   UNL     1      45.497   6.708  11.107  0.00  0.00    +0.000 A 
ATOM      3  C   UNL     1      44.950   7.948  11.402  0.00  0.00    +0.000 A 
ATOM      4  C   UNL     1      45.330   8.607  12.572  0.00  0.00    +0.000 A 
ATOM      5  C   UNL     1      46.248   8.003  13.426  0.00  0.00    +0.000 A 
ATOM      6  C   UNL     1      46.758   6.757  13.075  0.00  0.00    +0.000 A 
ATOM      7  N   UNL     1      46.402   6.124  11.926  0.00  0.00    +0.000 NA
ATOM      8  H   UNL     1      44.102   5.989   9.903  0.00  0.00    +0.000 HD
ENDROOT
BRANCH   1   9
ATOM      9  C   UNL     1      45.761   4.764   9.768  0.00  0.00    +0.000 C 
BRANCH   9  11
ATOM     10  C   UNL     1      43.859   3.086  10.214  0.00  0.00    +0.000 C 
ATOM     11  C   UNL     1      44.798   3.735   9.236  0.00  0.00    +0.000 C 
BRANCH  11  12
ATOM     12  C   UNL     1      45.335   2.897   8.076  0.00  0.00    +0.000 C 
ATOM     13  C   UNL     1      46.050   1.610   8.529  0.00  0.00    +0.000 C 
ATOM     14  C   UNL     1      46.711   0.866   7.368  0.00  0.00    +0.000 C 
ATOM     15  C   UNL     1      47.636   1.782   6.576  0.00  0.00    +0.000 C 
ATOM     16  C   UNL     1      46.868   2.980   6.032  0.00  0.00    +0.000 C 
ATOM     17  C   UNL     1      46.216   3.770   7.161  0.00  0.00    +0.000 C 
ENDBRANCH  11  12
ENDBRANCH   9  11
ENDBRANCH   1   9
BRANCH   6  18
ATOM     18  C   UNL     1      47.721   6.014  13.976  0.00  0.00    +0.000 C 
BRANCH  18  19
ATOM     19  C   UNL     1      47.146   4.674  14.474  0.00  0.00    +0.000 C 
ATOM     20  F   UNL     1      47.485   3.618  13.700  0.00  0.00    +0.000 F 
ATOM     21  F   UNL     1      47.603   4.403  15.725  0.00  0.00    +0.000 F 
ATOM     22  F   UNL     1      45.793   4.696  14.545  0.00  0.00    +0.000 F 
ENDBRANCH  18  19
BRANCH  18  23
ATOM     23  O   UNL     1      48.098   6.882  15.074  0.00  0.00    +0.000 OA
ATOM     24  H   UNL     1      49.033   7.114  14.893  0.00  0.00    +0.000 HD
ENDBRANCH  18  23
ENDBRANCH   6  18
TORSDOF 6
ENDMDL
MODEL 2
REMARK VINA RESULT:    -6.958      2.404      2.616
REMARK INTER + INTRA:          -9.910
REMARK INTER:                  -9.178
REMARK INTRA:                  -0.732
REMARK UNBOUND:                -0.715
REMARK  Name = 
REMARK  7 active torsions:
REMARK  status: ('A' for Active; 'I' for Inactive)
REMARK    1  A    between atoms: C_1  and  C_2
REMARK    2  A    between atoms: C_2  and  C_3
REMARK    3  A    between atoms: C_2  and  C_17
REMARK    4  A    between atoms: C_3  and  N_4
REMARK    5  A    between atoms: C_9  and  C_10
REMARK    6  A    between atoms: C_10  and  O_11
REMARK    7  A    between atoms: C_10  and  C_12
REMARK                            x       y       z     vdW  Elec       q    Type
REMARK                         _______ _______ _______ _____ _____    ______ ____
ROOT
ATOM      1  N   UNL     1      44.555   6.129  10.562  0.00  0.00    +0.000 N 
ATOM      2  C   UNL     1      45.231   7.076  11.367  0.00  0.00    +0.000 A 
ATOM      3  C   UNL     1      44.569   8.239  11.734  0.00  0.00    +0.000 A 
ATOM      4  C   UNL     1      45.229   9.190  12.513  0.00  0.00    +0.000 A 
ATOM      5  C   UNL     1      46.540   8.950  12.915  0.00  0.00    +0.000 A 
ATOM      6  C   UNL     1      47.147   7.763  12.516  0.00  0.00    +0.000 A 
ATOM      7  N   UNL     1      46.511   6.846  11.742  0.00  0.00    +0.000 NA
ATOM      8  H   UNL     1      43.686   5.887  11.031  0.00  0.00    +0.000 HD
ENDROOT
BRANCH   1   9
ATOM      9  C   UNL     1      45.382   4.963  10.293  0.00  0.00    +0.000 C 
BRANCH   9  11
ATOM     10  C   UNL     1      43.793   2.985  10.734  0.00  0.00    +0.000 C 
ATOM     11  C   UNL     1      44.554   3.828   9.749  0.00  0.00    +0.000 C 
BRANCH  11  12
ATOM     12  C   UNL     1      45.134   3.151   8.507  0.00  0.00    +0.000 C 
ATOM     13  C   UNL     1      45.800   1.794   8.803  0.00  0.00    +0.000 C 
ATOM     14  C   UNL     1      46.506   1.209   7.579  0.00  0.00    +0.000 C 
ATOM     15  C   UNL     1      47.488   2.204   6.974  0.00  0.00    +0.000 C 
ATOM     16  C   UNL     1      46.772   3.488   6.574  0.00  0.00    +0.000 C 
ATOM     17  C   UNL     1      46.078   4.124   7.773  0.00  0.00    +0.000 C 
ENDBRANCH  11  12
ENDBRANCH   9  11
ENDBRANCH   1   9
BRANCH   6  18
ATOM     18  C   UNL     1      48.552   7.408  12.954  0.00  0.00    +0.000 C 
BRANCH  18  19
ATOM     19  C   UNL     1      49.628   8.049  12.056  0.00  0.00    +0.000 C 
ATOM     20  F   UNL     1      49.124   8.858  11.098  0.00  0.00    +0.000 F 
ATOM     21  F   UNL     1      50.472   8.809  12.804  0.00  0.00    +0.000 F 
ATOM     22  F   UNL     1      50.388   7.118  11.429  0.00  0.00    +0.000 F 
ENDBRANCH  18  19
BRANCH  18  23
ATOM     23  O   UNL     1      48.677   5.965  13.003  0.00  0.00    +0.000 OA
ATOM     24  H   UNL     1      47.822   5.658  13.370  0.00  0.00    +0.000 HD
ENDBRANCH  18  23
ENDBRANCH   6  18
TORSDOF 6
ENDMDL
MODEL 3
REMARK VINA RESULT:    -6.720      3.662      6.579
REMARK INTER + INTRA:          -9.595
REMARK INTER:                  -8.929
REMARK INTRA:                  -0.666
REMARK UNBOUND:                -0.715
REMARK  Name = 
REMARK  7 active torsions:
REMARK  status: ('A' for Active; 'I' for Inactive)
REMARK    1  A    between atoms: C_1  and  C_2
REMARK    2  A    between atoms: C_2  and  C_3
REMARK    3  A    between atoms: C_2  and  C_17
REMARK    4  A    between atoms: C_3  and  N_4
REMARK    5  A    between atoms: C_9  and  C_10
REMARK    6  A    between atoms: C_10  and  O_11
REMARK    7  A    between atoms: C_10  and  C_12
REMARK                            x       y       z     vdW  Elec       q    Type
REMARK                         _______ _______ _______ _____ _____    ______ ____
ROOT
ATOM      1  N   UNL     1      45.520   6.348  13.220  0.00  0.00    +0.000 N 
ATOM      2  C   UNL     1      44.896   5.313  12.483  0.00  0.00    +0.000 A 
ATOM      3  C   UNL     1      44.118   4.384  13.158  0.00  0.00    +0.000 A 
ATOM      4  C   UNL     1      43.510   3.348  12.446  0.00  0.00    +0.000 A 
ATOM      5  C   UNL     1      43.692   3.272  11.068  0.00  0.00    +0.000 A 
ATOM      6  C   UNL     1      44.482   4.235  10.450  0.00  0.00    +0.000 A 
ATOM      7  N   UNL     1      45.089   5.232  11.146  0.00  0.00    +0.000 NA
ATOM      8  H   UNL     1      44.797   6.833  13.746  0.00  0.00    +0.000 HD
ENDROOT
BRANCH   1   9
ATOM      9  C   UNL     1      46.274   7.244  12.359  0.00  0.00    +0.000 C 
BRANCH   9  11
ATOM     10  C   UNL     1      48.252   6.638  13.892  0.00  0.00    +0.000 C 
ATOM     11  C   UNL     1      47.756   7.039  12.531  0.00  0.00    +0.000 C 
BRANCH  11  12
ATOM     12  C   UNL     1      48.632   7.958  11.679  0.00  0.00    +0.000 C 
ATOM     13  C   UNL     1      50.141   7.713  11.865  0.00  0.00    +0.000 C 
ATOM     14  C   UNL     1      50.998   8.741  11.124  0.00  0.00    +0.000 C 
ATOM     15  C   UNL     1      50.603  10.165  11.495  0.00  0.00    +0.000 C 
ATOM     16  C   UNL     1      49.134  10.414  11.178  0.00  0.00    +0.000 C 
ATOM     17  C   UNL     1      48.239   9.429  11.921  0.00  0.00    +0.000 C 
ENDBRANCH  11  12
ENDBRANCH   9  11
ENDBRANCH   1   9
BRANCH   6  18
ATOM     18  C   UNL     1      44.686   4.248   8.950  0.00  0.00    +0.000 C 
BRANCH  18  19
ATOM     19  C   UNL     1      45.158   2.884   8.409  0.00  0.00    +0.000 C 
ATOM     20  F   UNL     1      46.068   2.272   9.199  0.00  0.00    +0.000 F 
ATOM     21  F   UNL     1      44.103   2.033   8.299  0.00  0.00    +0.000 F 
ATOM     22  F   UNL     1      45.709   2.989   7.176  0.00  0.00    +0.000 F 
ENDBRANCH  18  19
BRANCH  18  23
ATOM     23  O   UNL     1      45.609   5.313   8.612  0.00  0.00    +0.000 OA
ATOM     24  H   UNL     1      45.679   5.275   7.636  0.00  0.00    +0.000 HD
ENDBRANCH  18  23
ENDBRANCH   6  18
TORSDOF 6
ENDMDL
MODEL 4
REMARK VINA RESULT:    -6.559      3.700      7.366
REMARK INTER + INTRA:          -9.382
REMARK INTER:                  -8.629
REMARK INTRA:                  -0.753
REMARK UNBOUND:                -0.715
REMARK  Name = 
REMARK  7 active torsions:
REMARK  status: ('A' for Active; 'I' for Inactive)
REMARK    1  A    between atoms: C_1  and  C_2
REMARK    2  A    between atoms: C_2  and  C_3
REMARK    3  A    between atoms: C_2  and  C_17
REMARK    4  A    between atoms: C_3  and  N_4
REMARK    5  A    between atoms: C_9  and  C_10
REMARK    6  A    between atoms: C_10  and  O_11
REMARK    7  A    between atoms: C_10  and  C_12
REMARK                            x       y       z     vdW  Elec       q    Type
REMARK                         _______ _______ _______ _____ _____    ______ ____
ROOT
ATOM      1  N   UNL     1      47.597   5.650  15.183  0.00  0.00    +0.000 N 
ATOM      2  C   UNL     1      47.085   5.722  13.866  0.00  0.00    +0.000 A 
ATOM      3  C   UNL     1      47.405   6.819  13.079  0.00  0.00    +0.000 A 
ATOM      4  C   UNL     1      46.893   6.910  11.784  0.00  0.00    +0.000 A 
ATOM      5  C   UNL     1      46.074   5.893  11.303  0.00  0.00    +0.000 A 
ATOM      6  C   UNL     1      45.793   4.819  12.140  0.00  0.00    +0.000 A 
ATOM      7  N   UNL     1      46.276   4.739  13.407  0.00  0.00    +0.000 NA
ATOM      8  H   UNL     1      48.608   5.741  15.127  0.00  0.00    +0.000 HD
ENDROOT
BRANCH   1   9
ATOM      9  C   UNL     1      47.187   4.429  15.856  0.00  0.00    +0.000 C 
BRANCH   9  11
ATOM     10  C   UNL     1      47.532   5.076  18.325  0.00  0.00    +0.000 C 
ATOM     11  C   UNL     1      47.944   4.241  17.144  0.00  0.00    +0.000 C 
BRANCH  11  12
ATOM     12  C   UNL     1      49.425   3.904  16.972  0.00  0.00    +0.000 C 
ATOM     13  C   UNL     1      49.787   2.477  17.427  0.00  0.00    +0.000 C 
ATOM     14  C   UNL     1      51.293   2.214  17.390  0.00  0.00    +0.000 C 
ATOM     15  C   UNL     1      52.061   3.272  18.172  0.00  0.00    +0.000 C 
ATOM     16  C   UNL     1      51.781   4.661  17.614  0.00  0.00    +0.000 C 
ATOM     17  C   UNL     1      50.291   4.979  17.659  0.00  0.00    +0.000 C 
ENDBRANCH  11  12
ENDBRANCH   9  11
ENDBRANCH   1   9
BRANCH   6  18
ATOM     18  C   UNL     1      44.951   3.650  11.671  0.00  0.00    +0.000 C 
BRANCH  18  19
ATOM     19  C   UNL     1      43.445   3.975  11.666  0.00  0.00    +0.000 C 
ATOM     20  F   UNL     1      43.055   4.727  10.613  0.00  0.00    +0.000 F 
ATOM     21  F   UNL     1      42.718   2.828  11.616  0.00  0.00    +0.000 F 
ATOM     22  F   UNL     1      43.063   4.635  12.787  0.00  0.00    +0.000 F 
ENDBRANCH  18  19
BRANCH  18  23
ATOM     23  O   UNL     1      45.254   2.496  12.493  0.00  0.00    +0.000 OA
ATOM     24  H   UNL     1      44.901   1.736  11.987  0.00  0.00    +0.000 HD
ENDBRANCH  18  23
ENDBRANCH   6  18
TORSDOF 6
ENDMDL
MODEL 5
REMARK VINA RESULT:    -6.538      3.235      6.684
REMARK INTER + INTRA:          -9.355
REMARK INTER:                  -8.821
REMARK INTRA:                  -0.535
REMARK UNBOUND:                -0.715
REMARK  Name = 
REMARK  7 active torsions:
REMARK  status: ('A' for Active; 'I' for Inactive)
REMARK    1  A    between atoms: C_1  and  C_2
REMARK    2  A    between atoms: C_2  and  C_3
REMARK    3  A    between atoms: C_2  and  C_17
REMARK    4  A    between atoms: C_3  and  N_4
REMARK    5  A    between atoms: C_9  and  C_10
REMARK    6  A    between atoms: C_10  and  O_11
REMARK    7  A    between atoms: C_10  and  C_12
REMARK                            x       y       z     vdW  Elec       q    Type
REMARK                         _______ _______ _______ _____ _____    ______ ____
ROOT
ATOM      1  N   UNL     1      44.375   6.741  12.817  0.00  0.00    +0.000 N 
ATOM      2  C   UNL     1      44.177   5.497  12.174  0.00  0.00    +0.000 A 
ATOM      3  C   UNL     1      43.671   4.434  12.909  0.00  0.00    +0.000 A 
ATOM      4  C   UNL     1      43.487   3.196  12.291  0.00  0.00    +0.000 A 
ATOM      5  C   UNL     1      43.809   3.053  10.944  0.00  0.00    +0.000 A 
ATOM      6  C   UNL     1      44.309   4.157  10.263  0.00  0.00    +0.000 A 
ATOM      7  N   UNL     1      44.507   5.357  10.868  0.00  0.00    +0.000 NA
ATOM      8  H   UNL     1      43.492   7.015  13.240  0.00  0.00    +0.000 HD
ENDROOT
BRANCH   1   9
ATOM      9  C   UNL     1      44.885   7.747  11.899  0.00  0.00    +0.000 C 
BRANCH   9  11
ATOM     10  C   UNL     1      45.885  10.112  12.100  0.00  0.00    +0.000 C 
ATOM     11  C   UNL     1      45.819   8.697  12.603  0.00  0.00    +0.000 C 
BRANCH  11  12
ATOM     12  C   UNL     1      47.098   8.055  13.142  0.00  0.00    +0.000 C 
ATOM     13  C   UNL     1      47.827   8.923  14.185  0.00  0.00    +0.000 C 
ATOM     14  C   UNL     1      49.178   8.334  14.596  0.00  0.00    +0.000 C 
ATOM     15  C   UNL     1      50.053   8.050  13.381  0.00  0.00    +0.000 C 
ATOM     16  C   UNL     1      49.353   7.086  12.431  0.00  0.00    +0.000 C 
ATOM     17  C   UNL     1      48.013   7.647  11.971  0.00  0.00    +0.000 C 
ENDBRANCH  11  12
ENDBRANCH   9  11
ENDBRANCH   1   9
BRANCH   6  18
ATOM     18  C   UNL     1      44.635   4.093   8.785  0.00  0.00    +0.000 C 
BRANCH  18  19
ATOM     19  C   UNL     1      45.189   2.717   8.364  0.00  0.00    +0.000 C 
ATOM     20  F   UNL     1      46.135   2.234   9.201  0.00  0.00    +0.000 F 
ATOM     21  F   UNL     1      44.189   1.797   8.334  0.00  0.00    +0.000 F 
ATOM     22  F   UNL     1      45.734   2.747   7.124  0.00  0.00    +0.000 F 
ENDBRANCH  18  19
BRANCH  18  23
ATOM     23  O   UNL     1      45.551   5.168   8.461  0.00  0.00    +0.000 OA
ATOM     24  H   UNL     1      45.095   5.673   7.757  0.00  0.00    +0.000 HD
ENDBRANCH  18  23
ENDBRANCH   6  18
TORSDOF 6
ENDMDL
MODEL 6
REMARK VINA RESULT:    -6.262      3.684      7.875
REMARK INTER + INTRA:          -8.991
REMARK INTER:                  -8.364
REMARK INTRA:                  -0.626
REMARK UNBOUND:                -0.715
REMARK  Name = 
REMARK  7 active torsions:
REMARK  status: ('A' for Active; 'I' for Inactive)
REMARK    1  A    between atoms: C_1  and  C_2
REMARK    2  A    between atoms: C_2  and  C_3
REMARK    3  A    between atoms: C_2  and  C_17
REMARK    4  A    between atoms: C_3  and  N_4
REMARK    5  A    between atoms: C_9  and  C_10
REMARK    6  A    between atoms: C_10  and  O_11
REMARK    7  A    between atoms: C_10  and  C_12
REMARK                            x       y       z     vdW  Elec       q    Type
REMARK                         _______ _______ _______ _____ _____    ______ ____
ROOT
ATOM      1  N   UNL     1      47.623   5.689  15.187  0.00  0.00    +0.000 N 
ATOM      2  C   UNL     1      47.093   5.748  13.876  0.00  0.00    +0.000 A 
ATOM      3  C   UNL     1      47.385   6.848  13.083  0.00  0.00    +0.000 A 
ATOM      4  C   UNL     1      46.854   6.927  11.794  0.00  0.00    +0.000 A 
ATOM      5  C   UNL     1      46.046   5.895  11.326  0.00  0.00    +0.000 A 
ATOM      6  C   UNL     1      45.793   4.819  12.170  0.00  0.00    +0.000 A 
ATOM      7  N   UNL     1      46.294   4.750  13.431  0.00  0.00    +0.000 NA
ATOM      8  H   UNL     1      48.632   5.796  15.118  0.00  0.00    +0.000 HD
ENDROOT
BRANCH   1   9
ATOM      9  C   UNL     1      47.241   4.463  15.869  0.00  0.00    +0.000 C 
BRANCH   9  11
ATOM     10  C   UNL     1      48.712   2.508  16.673  0.00  0.00    +0.000 C 
ATOM     11  C   UNL     1      48.356   3.966  16.752  0.00  0.00    +0.000 C 
BRANCH  11  12
ATOM     12  C   UNL     1      48.460   4.669  18.106  0.00  0.00    +0.000 C 
ATOM     13  C   UNL     1      47.138   5.316  18.564  0.00  0.00    +0.000 C 
ATOM     14  C   UNL     1      47.302   6.141  19.841  0.00  0.00    +0.000 C 
ATOM     15  C   UNL     1      48.418   7.169  19.700  0.00  0.00    +0.000 C 
ATOM     16  C   UNL     1      49.739   6.484  19.373  0.00  0.00    +0.000 C 
ATOM     17  C   UNL     1      49.631   5.672  18.087  0.00  0.00    +0.000 C 
ENDBRANCH  11  12
ENDBRANCH   9  11
ENDBRANCH   1   9
BRANCH   6  18
ATOM     18  C   UNL     1      44.965   3.635  11.715  0.00  0.00    +0.000 C 
BRANCH  18  19
ATOM     19  C   UNL     1      43.453   3.936  11.727  0.00  0.00    +0.000 C 
ATOM     20  F   UNL     1      43.041   4.604  12.828  0.00  0.00    +0.000 F 
ATOM     21  F   UNL     1      43.119   4.704  10.657  0.00  0.00    +0.000 F 
ATOM     22  F   UNL     1      42.709   2.806  11.648  0.00  0.00    +0.000 F 
ENDBRANCH  18  19
BRANCH  18  23
ATOM     23  O   UNL     1      45.295   2.489  12.538  0.00  0.00    +0.000 OA
ATOM     24  H   UNL     1      45.909   1.961  11.987  0.00  0.00    +0.000 HD
ENDBRANCH  18  23
ENDBRANCH   6  18
TORSDOF 6
ENDMDL
MODEL 7
REMARK VINA RESULT:    -6.255      2.354      4.046
REMARK INTER + INTRA:          -8.982
REMARK INTER:                  -8.371
REMARK INTRA:                  -0.611
REMARK UNBOUND:                -0.715
REMARK  Name = 
REMARK  7 active torsions:
REMARK  status: ('A' for Active; 'I' for Inactive)
REMARK    1  A    between atoms: C_1  and  C_2
REMARK    2  A    between atoms: C_2  and  C_3
REMARK    3  A    between atoms: C_2  and  C_17
REMARK    4  A    between atoms: C_3  and  N_4
REMARK    5  A    between atoms: C_9  and  C_10
REMARK    6  A    between atoms: C_10  and  O_11
REMARK    7  A    between atoms: C_10  and  C_12
REMARK                            x       y       z     vdW  Elec       q    Type
REMARK                         _______ _______ _______ _____ _____    ______ ____
ROOT
ATOM      1  N   UNL     1      47.982   6.681  12.717  0.00  0.00    +0.000 N 
ATOM      2  C   UNL     1      48.482   6.576  14.036  0.00  0.00    +0.000 A 
ATOM      3  C   UNL     1      49.506   7.421  14.436  0.00  0.00    +0.000 A 
ATOM      4  C   UNL     1      50.020   7.316  15.730  0.00  0.00    +0.000 A 
ATOM      5  C   UNL     1      49.487   6.367  16.599  0.00  0.00    +0.000 A 
ATOM      6  C   UNL     1      48.459   5.552  16.138  0.00  0.00    +0.000 A 
ATOM      7  N   UNL     1      47.972   5.641  14.873  0.00  0.00    +0.000 NA
ATOM      8  H   UNL     1      47.699   7.646  12.569  0.00  0.00    +0.000 HD
ENDROOT
BRANCH   1   9
ATOM      9  C   UNL     1      46.899   5.743  12.473  0.00  0.00    +0.000 C 
BRANCH   9  11
ATOM     10  C   UNL     1      45.177   7.613  12.062  0.00  0.00    +0.000 C 
ATOM     11  C   UNL     1      45.844   6.353  11.587  0.00  0.00    +0.000 C 
BRANCH  11  12
ATOM     12  C   UNL     1      45.014   5.343  10.793  0.00  0.00    +0.000 C 
ATOM     13  C   UNL     1      44.804   4.007  11.532  0.00  0.00    +0.000 C 
ATOM     14  C   UNL     1      44.105   2.961  10.662  0.00  0.00    +0.000 C 
ATOM     15  C   UNL     1      44.828   2.769   9.335  0.00  0.00    +0.000 C 
ATOM     16  C   UNL     1      44.905   4.085   8.571  0.00  0.00    +0.000 C 
ATOM     17  C   UNL     1      45.623   5.152   9.390  0.00  0.00    +0.000 C 
ENDBRANCH  11  12
ENDBRANCH   9  11
ENDBRANCH   1   9
BRANCH   6  18
ATOM     18  C   UNL     1      47.796   4.532  17.039  0.00  0.00    +0.000 C 
BRANCH  18  19
ATOM     19  C   UNL     1      48.621   3.237  17.169  0.00  0.00    +0.000 C 
ATOM     20  F   UNL     1      49.957   3.444  17.185  0.00  0.00    +0.000 F 
ATOM     21  F   UNL     1      48.312   2.598  18.328  0.00  0.00    +0.000 F 
ATOM     22  F   UNL     1      48.367   2.368  16.161  0.00  0.00    +0.000 F 
ENDBRANCH  18  19
BRANCH  18  23
ATOM     23  O   UNL     1      46.457   4.273  16.546  0.00  0.00    +0.000 OA
ATOM     24  H   UNL     1      46.590   3.681  15.777  0.00  0.00    +0.000 HD
ENDBRANCH  18  23
ENDBRANCH   6  18
TORSDOF 6
ENDMDL
MODEL 8
REMARK VINA RESULT:    -6.120      4.117      5.988
REMARK INTER + INTRA:          -8.803
REMARK INTER:                  -7.846
REMARK INTRA:                  -0.956
REMARK UNBOUND:                -0.715
REMARK  Name = 
REMARK  7 active torsions:
REMARK  status: ('A' for Active; 'I' for Inactive)
REMARK    1  A    between atoms: C_1  and  C_2
REMARK    2  A    between atoms: C_2  and  C_3
REMARK    3  A    between atoms: C_2  and  C_17
REMARK    4  A    between atoms: C_3  and  N_4
REMARK    5  A    between atoms: C_9  and  C_10
REMARK    6  A    between atoms: C_10  and  O_11
REMARK    7  A    between atoms: C_10  and  C_12
REMARK                            x       y       z     vdW  Elec       q    Type
REMARK                         _______ _______ _______ _____ _____    ______ ____
ROOT
ATOM      1  N   UNL     1      49.617   7.411  14.572  0.00  0.00    +0.000 N 
ATOM      2  C   UNL     1      49.860   6.619  15.719  0.00  0.00    +0.000 A 
ATOM      3  C   UNL     1      51.123   6.636  16.293  0.00  0.00    +0.000 A 
ATOM      4  C   UNL     1      51.380   5.847  17.415  0.00  0.00    +0.000 A 
ATOM      5  C   UNL     1      50.359   5.061  17.942  0.00  0.00    +0.000 A 
ATOM      6  C   UNL     1      49.114   5.090  17.323  0.00  0.00    +0.000 A 
ATOM      7  N   UNL     1      48.869   5.844  16.220  0.00  0.00    +0.000 NA
ATOM      8  H   UNL     1      49.872   8.369  14.798  0.00  0.00    +0.000 HD
ENDROOT
BRANCH   1   9
ATOM      9  C   UNL     1      48.241   7.296  14.117  0.00  0.00    +0.000 C 
BRANCH   9  11
ATOM     10  C   UNL     1      48.906   7.678  11.659  0.00  0.00    +0.000 C 
ATOM     11  C   UNL     1      48.183   6.846  12.681  0.00  0.00    +0.000 C 
BRANCH  11  12
ATOM     12  C   UNL     1      46.872   6.172  12.275  0.00  0.00    +0.000 C 
ATOM     13  C   UNL     1      45.744   7.170  11.950  0.00  0.00    +0.000 C 
ATOM     14  C   UNL     1      44.404   6.478  11.697  0.00  0.00    +0.000 C 
ATOM     15  C   UNL     1      44.030   5.552  12.848  0.00  0.00    +0.000 C 
ATOM     16  C   UNL     1      45.108   4.497  13.060  0.00  0.00    +0.000 C 
ATOM     17  C   UNL     1      46.458   5.143  13.346  0.00  0.00    +0.000 C 
ENDBRANCH  11  12
ENDBRANCH   9  11
ENDBRANCH   1   9
BRANCH   6  18
ATOM     18  C   UNL     1      47.942   4.302  17.868  0.00  0.00    +0.000 C 
BRANCH  18  19
ATOM     19  C   UNL     1      47.752   2.954  17.145  0.00  0.00    +0.000 C 
ATOM     20  F   UNL     1      48.874   2.201  17.099  0.00  0.00    +0.000 F 
ATOM     21  F   UNL     1      46.809   2.210  17.780  0.00  0.00    +0.000 F 
ATOM     22  F   UNL     1      47.331   3.117  15.867  0.00  0.00    +0.000 F 
ENDBRANCH  18  19
BRANCH  18  23
ATOM     23  O   UNL     1      46.752   5.126  17.798  0.00  0.00    +0.000 OA
ATOM     24  H   UNL     1      47.049   5.949  17.359  0.00  0.00    +0.000 HD
ENDBRANCH  18  23
ENDBRANCH   6  18
TORSDOF 6
ENDMDL
MODEL 9
REMARK VINA RESULT:    -6.014      3.096      4.732
REMARK INTER + INTRA:          -8.662
REMARK INTER:                  -7.961
REMARK INTRA:                  -0.701
REMARK UNBOUND:                -0.715
REMARK  Name = 
REMARK  7 active torsions:
REMARK  status: ('A' for Active; 'I' for Inactive)
REMARK    1  A    between atoms: C_1  and  C_2
REMARK    2  A    between atoms: C_2  and  C_3
REMARK    3  A    between atoms: C_2  and  C_17
REMARK    4  A    between atoms: C_3  and  N_4
REMARK    5  A    between atoms: C_9  and  C_10
REMARK    6  A    between atoms: C_10  and  O_11
REMARK    7  A    between atoms: C_10  and  C_12
REMARK                            x       y       z     vdW  Elec       q    Type
REMARK                         _______ _______ _______ _____ _____    ______ ____
ROOT
ATOM      1  N   UNL     1      46.244   4.076  14.573  0.00  0.00    +0.000 N 
ATOM      2  C   UNL     1      47.251   4.371  15.522  0.00  0.00    +0.000 A 
ATOM      3  C   UNL     1      47.413   3.530  16.613  0.00  0.00    +0.000 A 
ATOM      4  C   UNL     1      48.392   3.819  17.565  0.00  0.00    +0.000 A 
ATOM      5  C   UNL     1      49.194   4.943  17.397  0.00  0.00    +0.000 A 
ATOM      6  C   UNL     1      48.984   5.745  16.280  0.00  0.00    +0.000 A 
ATOM      7  N   UNL     1      48.019   5.475  15.363  0.00  0.00    +0.000 NA
ATOM      8  H   UNL     1      46.394   3.126  14.246  0.00  0.00    +0.000 HD
ENDROOT
BRANCH   1   9
ATOM      9  C   UNL     1      46.228   5.040  13.485  0.00  0.00    +0.000 C 
BRANCH   9  11
ATOM     10  C   UNL     1      43.727   4.471  13.252  0.00  0.00    +0.000 C 
ATOM     11  C   UNL     1      45.030   4.833  12.596  0.00  0.00    +0.000 C 
BRANCH  11  12
ATOM     12  C   UNL     1      45.348   4.230  11.226  0.00  0.00    +0.000 C 
ATOM     13  C   UNL     1      45.506   5.285  10.115  0.00  0.00    +0.000 C 
ATOM     14  C   UNL     1      45.670   4.657   8.730  0.00  0.00    +0.000 C 
ATOM     15  C   UNL     1      44.544   3.676   8.427  0.00  0.00    +0.000 C 
ATOM     16  C   UNL     1      44.498   2.573   9.477  0.00  0.00    +0.000 C 
ATOM     17  C   UNL     1      44.304   3.153  10.873  0.00  0.00    +0.000 C 
ENDBRANCH  11  12
ENDBRANCH   9  11
ENDBRANCH   1   9
BRANCH   6  18
ATOM     18  C   UNL     1      49.849   6.956  16.002  0.00  0.00    +0.000 C 
BRANCH  18  19
ATOM     19  C   UNL     1      49.176   8.272  16.438  0.00  0.00    +0.000 C 
ATOM     20  F   UNL     1      48.581   8.939  15.425  0.00  0.00    +0.000 F 
ATOM     21  F   UNL     1      48.210   8.022  17.361  0.00  0.00    +0.000 F 
ATOM     22  F   UNL     1      50.057   9.127  17.013  0.00  0.00    +0.000 F 
ENDBRANCH  18  19
BRANCH  18  23
ATOM     23  O   UNL     1      50.200   6.968  14.596  0.00  0.00    +0.000 OA
ATOM     24  H   UNL     1      51.166   7.126  14.586  0.00  0.00    +0.000 HD
ENDBRANCH  18  23
ENDBRANCH   6  18
TORSDOF 6
ENDMDL
