MODEL 1
REMARK VINA RESULT:    -8.790      0.000      0.000
REMARK INTER + INTRA:         -12.245
REMARK INTER:                 -11.359
REMARK INTRA:                  -0.886
REMARK UNBOUND:                -0.886
REMARK  Name = 
REMARK  5 active torsions:
REMARK  status: ('A' for Active; 'I' for Inactive)
REMARK    1  A    between atoms: C_2  and  C_4
REMARK    2  A    between atoms: C_7  and  N_8
REMARK    3  A    between atoms: N_8  and  C_9
REMARK    4  A    between atoms: C_9  and  C_10
REMARK    5  A    between atoms: C_15  and  N_16
REMARK                            x       y       z     vdW  Elec       q    Type
REMARK                         _______ _______ _______ _____ _____    ______ ____
ROOT
ATOM      1  C   UNL     1      44.078   5.245  11.418  0.00  0.00    +0.000 C 
ATOM      2  C   UNL     1      43.967   4.270  12.582  0.00  0.00    +0.000 C 
ATOM      3  C   UNL     1      42.955   5.357  12.456  0.00  0.00    +0.000 C 
ENDROOT
BRANCH   1   4
ATOM      4  C   UNL     1      45.029   6.434  11.496  0.00  0.00    +0.000 A 
ATOM      5  C   UNL     1      44.540   7.755  11.456  0.00  0.00    +0.000 A 
ATOM      6  C   UNL     1      45.308   8.811  11.939  0.00  0.00    +0.000 A 
ATOM      7  C   UNL     1      46.568   8.553  12.471  0.00  0.00    +0.000 A 
ATOM      8  F   UNL     1      47.229   9.571  13.048  0.00  0.00    +0.000 F 
ATOM      9  C   UNL     1      47.136   7.270  12.432  0.00  0.00    +0.000 A 
ATOM     10  C   UNL     1      46.372   6.250  11.857  0.00  0.00    +0.000 A 
BRANCH   9  11
ATOM     11  N   UNL     1      48.326   6.920  13.037  0.00  0.00    +0.000 N 
ATOM     12  C   UNL     1      48.395   6.589  14.463  0.00  0.00    +0.000 C 
ATOM     13  C   UNL     1      49.207   7.636  15.232  0.00  0.00    +0.000 C 
ATOM     14  O   UNL     1      50.494   7.857  14.627  0.00  0.00    +0.000 OA
ATOM     15  C   UNL     1      50.335   8.325  13.278  0.00  0.00    +0.000 C 
ATOM     16  C   UNL     1      49.597   7.287  12.409  0.00  0.00    +0.000 C 
ENDBRANCH   9  11
ENDBRANCH   1   4
BRANCH   1  17
ATOM     17  N   UNL     1      43.747   4.784  10.068  0.00  0.00    +0.000 N 
ATOM     18  H   UNL     1      42.783   4.850   9.759  0.00  0.00    +0.000 HD
BRANCH  17  22
ATOM     19  C   UNL     1      46.316   2.267   7.829  0.00  0.00    +0.000 A 
ATOM     20  C   UNL     1      45.413   1.698   8.732  0.00  0.00    +0.000 A 
ATOM     21  C   UNL     1      44.548   2.516   9.474  0.00  0.00    +0.000 A 
ATOM     22  C   UNL     1      44.538   3.906   9.300  0.00  0.00    +0.000 A 
ATOM     23  C   UNL     1      45.456   4.462   8.401  0.00  0.00    +0.000 A 
ATOM     24  C   UNL     1      46.341   3.656   7.677  0.00  0.00    +0.000 A 
BRANCH  19  26
ATOM     25  N   UNL     1      48.411   2.097   6.588  0.00  0.00    +0.000 N 
ATOM     26  C   UNL     1      47.295   1.461   7.054  0.00  0.00    +0.000 C 
ATOM     27  O   UNL     1      47.132   0.264   6.861  0.00  0.00    +0.000 OA
ATOM     28  H   UNL     1      49.112   1.501   6.157  0.00  0.00    +0.000 HD
ATOM     29  H   UNL     1      48.708   2.996   6.932  0.00  0.00    +0.000 HD
ENDBRANCH  19  26
ENDBRANCH  17  22
ENDBRANCH   1  17
TORSDOF 5
ENDMDL
MODEL 2
REMARK VINA RESULT:    -8.545      1.564      2.152
REMARK INTER + INTRA:         -11.928
REMARK INTER:                 -11.023
REMARK INTRA:                  -0.905
REMARK UNBOUND:                -0.886
REMARK  Name = 
REMARK  5 active torsions:
REMARK  status: ('A' for Active; 'I' for Inactive)
REMARK    1  A    between atoms: C_2  and  C_4
REMARK    2  A    between atoms: C_7  and  N_8
REMARK    3  A    between atoms: N_8  and  C_9
REMARK    4  A    between atoms: C_9  and  C_10
REMARK    5  A    between atoms: C_15  and  N_16
REMARK                            x       y       z     vdW  Elec       q    Type
REMARK                         _______ _______ _______ _____ _____    ______ ____
ROOT
ATOM      1  C   UNL     1      43.815   5.234  11.325  0.00  0.00    +0.000 C 
ATOM      2  C   UNL     1      42.656   4.351  11.765  0.00  0.00    +0.000 C 
ATOM      3  C   UNL     1      42.453   5.825  11.703  0.00  0.00    +0.000 C 
ENDROOT
BRANCH   1   4
ATOM      4  C   UNL     1      44.896   5.642  12.321  0.00  0.00    +0.000 A 
ATOM      5  C   UNL     1      45.364   4.734  13.291  0.00  0.00    +0.000 A 
ATOM      6  C   UNL     1      46.598   4.927  13.906  0.00  0.00    +0.000 A 
ATOM      7  C   UNL     1      47.375   6.026  13.551  0.00  0.00    +0.000 A 
ATOM      8  F   UNL     1      48.614   6.114  14.063  0.00  0.00    +0.000 F 
ATOM      9  C   UNL     1      46.900   7.010  12.670  0.00  0.00    +0.000 A 
ATOM     10  C   UNL     1      45.618   6.830  12.141  0.00  0.00    +0.000 A 
BRANCH   9  11
ATOM     11  N   UNL     1      47.653   8.062  12.188  0.00  0.00    +0.000 N 
ATOM     12  C   UNL     1      48.859   7.839  11.386  0.00  0.00    +0.000 C 
ATOM     13  C   UNL     1      50.113   8.298  12.138  0.00  0.00    +0.000 C 
ATOM     14  O   UNL     1      49.978   9.649  12.616  0.00  0.00    +0.000 OA
ATOM     15  C   UNL     1      48.862   9.748  13.516  0.00  0.00    +0.000 C 
ATOM     16  C   UNL     1      47.540   9.382  12.810  0.00  0.00    +0.000 C 
ENDBRANCH   9  11
ENDBRANCH   1   4
BRANCH   1  17
ATOM     17  N   UNL     1      44.217   5.233   9.916  0.00  0.00    +0.000 N 
ATOM     18  H   UNL     1      43.792   5.910   9.293  0.00  0.00    +0.000 HD
BRANCH  17  22
ATOM     19  C   UNL     1      46.282   2.076   7.988  0.00  0.00    +0.000 A 
ATOM     20  C   UNL     1      45.304   1.775   8.941  0.00  0.00    +0.000 A 
ATOM     21  C   UNL     1      44.605   2.809   9.583  0.00  0.00    +0.000 A 
ATOM     22  C   UNL     1      44.835   4.151   9.255  0.00  0.00    +0.000 A 
ATOM     23  C   UNL     1      45.825   4.436   8.307  0.00  0.00    +0.000 A 
ATOM     24  C   UNL     1      46.547   3.414   7.683  0.00  0.00    +0.000 A 
BRANCH  19  26
ATOM     25  N   UNL     1      46.858  -0.273   7.651  0.00  0.00    +0.000 N 
ATOM     26  C   UNL     1      47.096   1.030   7.313  0.00  0.00    +0.000 C 
ATOM     27  O   UNL     1      47.928   1.313   6.463  0.00  0.00    +0.000 OA
ATOM     28  H   UNL     1      47.350  -0.969   7.099  0.00  0.00    +0.000 HD
ATOM     29  H   UNL     1      46.028  -0.565   8.142  0.00  0.00    +0.000 HD
ENDBRANCH  19  26
ENDBRANCH  17  22
ENDBRANCH   1  17
TORSDOF 5
ENDMDL
MODEL 3
REMARK VINA RESULT:    -8.426      2.430      2.998
REMARK INTER + INTRA:         -11.774
REMARK INTER:                 -10.913
REMARK INTRA:                  -0.862
REMARK UNBOUND:                -0.886
REMARK  Name = 
REMARK  5 active torsions:
REMARK  status: ('A' for Active; 'I' for Inactive)
REMARK    1  A    between atoms: C_2  and  C_4
REMARK    2  A    between atoms: C_7  and  N_8
REMARK    3  A    between atoms: N_8  and  C_9
REMARK    4  A    between atoms: C_9  and  C_10
REMARK    5  A    between atoms: C_15  and  N_16
REMARK                            x       y       z     vdW  Elec       q    Type
REMARK                         _______ _______ _______ _____ _____    ______ ____
ROOT
ATOM      1  C   UNL     1      44.419   4.762  11.947  0.00  0.00    +0.000 C 
ATOM      2  C   UNL     1      43.379   3.874  12.614  0.00  0.00    +0.000 C 
ATOM      3  C   UNL     1      43.285   5.349  12.794  0.00  0.00    +0.000 C 
ENDROOT
BRANCH   1   4
ATOM      4  C   UNL     1      45.778   4.985  12.602  0.00  0.00    +0.000 A 
ATOM      5  C   UNL     1      46.550   6.123  12.296  0.00  0.00    +0.000 A 
ATOM      6  C   UNL     1      47.551   6.556  13.161  0.00  0.00    +0.000 A 
ATOM      7  C   UNL     1      47.783   5.857  14.343  0.00  0.00    +0.000 A 
ATOM      8  F   UNL     1      48.663   6.373  15.217  0.00  0.00    +0.000 F 
ATOM      9  C   UNL     1      47.112   4.659  14.634  0.00  0.00    +0.000 A 
ATOM     10  C   UNL     1      46.177   4.206  13.698  0.00  0.00    +0.000 A 
BRANCH   9  11
ATOM     11  N   UNL     1      47.209   3.976  15.829  0.00  0.00    +0.000 N 
ATOM     12  C   UNL     1      46.871   4.610  17.106  0.00  0.00    +0.000 C 
ATOM     13  C   UNL     1      48.114   4.770  17.987  0.00  0.00    +0.000 C 
ATOM     14  O   UNL     1      48.825   3.526  18.129  0.00  0.00    +0.000 OA
ATOM     15  C   UNL     1      49.253   3.049  16.843  0.00  0.00    +0.000 C 
ATOM     16  C   UNL     1      48.050   2.781  15.917  0.00  0.00    +0.000 C 
ENDBRANCH   9  11
ENDBRANCH   1   4
BRANCH   1  17
ATOM     17  N   UNL     1      44.378   4.938  10.493  0.00  0.00    +0.000 N 
ATOM     18  H   UNL     1      43.633   5.500  10.097  0.00  0.00    +0.000 HD
BRANCH  17  22
ATOM     19  C   UNL     1      46.527   2.539   7.741  0.00  0.00    +0.000 A 
ATOM     20  C   UNL     1      45.752   1.924   8.729  0.00  0.00    +0.000 A 
ATOM     21  C   UNL     1      45.027   2.704   9.643  0.00  0.00    +0.000 A 
ATOM     22  C   UNL     1      45.026   4.102   9.561  0.00  0.00    +0.000 A 
ATOM     23  C   UNL     1      45.816   4.704   8.574  0.00  0.00    +0.000 A 
ATOM     24  C   UNL     1      46.565   3.934   7.677  0.00  0.00    +0.000 A 
BRANCH  19  26
ATOM     25  N   UNL     1      48.446   2.403   6.237  0.00  0.00    +0.000 N 
ATOM     26  C   UNL     1      47.361   1.771   6.780  0.00  0.00    +0.000 C 
ATOM     27  O   UNL     1      47.113   0.606   6.501  0.00  0.00    +0.000 OA
ATOM     28  H   UNL     1      49.056   1.823   5.670  0.00  0.00    +0.000 HD
ATOM     29  H   UNL     1      48.829   3.251   6.621  0.00  0.00    +0.000 HD
ENDBRANCH  19  26
ENDBRANCH  17  22
ENDBRANCH   1  17
TORSDOF 5
ENDMDL
MODEL 4
REMARK VINA RESULT:    -6.643      3.761      5.977
REMARK INTER + INTRA:          -9.471
REMARK INTER:                  -8.326
REMARK INTRA:                  -1.145
REMARK UNBOUND:                -0.886
REMARK  Name = 
REMARK  5 active torsions:
REMARK  status: ('A' for Active; 'I' for Inactive)
REMARK    1  A    between atoms: C_2  and  C_4
REMARK    2  A    between atoms: C_7  and  N_8
REMARK    3  A    between atoms: N_8  and  C_9
REMARK    4  A    between atoms: C_9  and  C_10
REMARK    5  A    between atoms: C_15  and  N_16
REMARK                            x       y       z     vdW  Elec       q    Type
REMARK                         _______ _______ _______ _____ _____    ______ ____
ROOT
ATOM      1  C   UNL     1      49.069   7.743  13.589  0.00  0.00    +0.000 C 
ATOM      2  C   UNL     1      49.003   9.025  12.772  0.00  0.00    +0.000 C 
ATOM      3  C   UNL     1      50.330   8.390  13.006  0.00  0.00    +0.000 C 
ENDROOT
BRANCH   1   4
ATOM      4  C   UNL     1      49.068   7.798  15.113  0.00  0.00    +0.000 A 
ATOM      5  C   UNL     1      48.711   8.979  15.793  0.00  0.00    +0.000 A 
ATOM      6  C   UNL     1      48.300   8.936  17.123  0.00  0.00    +0.000 A 
ATOM      7  C   UNL     1      48.238   7.710  17.780  0.00  0.00    +0.000 A 
ATOM      8  F   UNL     1      47.714   7.684  19.017  0.00  0.00    +0.000 F 
ATOM      9  C   UNL     1      48.687   6.526  17.174  0.00  0.00    +0.000 A 
ATOM     10  C   UNL     1      49.178   6.622  15.869  0.00  0.00    +0.000 A 
BRANCH   9  11
ATOM     11  N   UNL     1      48.552   5.265  17.721  0.00  0.00    +0.000 N 
ATOM     12  C   UNL     1      49.705   4.531  18.249  0.00  0.00    +0.000 C 
ATOM     13  C   UNL     1      50.000   3.288  17.403  0.00  0.00    +0.000 C 
ATOM     14  O   UNL     1      48.825   2.474  17.230  0.00  0.00    +0.000 OA
ATOM     15  C   UNL     1      47.795   3.225  16.567  0.00  0.00    +0.000 C 
ATOM     16  C   UNL     1      47.377   4.455  17.398  0.00  0.00    +0.000 C 
ENDBRANCH   9  11
ENDBRANCH   1   4
BRANCH   1  17
ATOM     17  N   UNL     1      48.579   6.496  12.998  0.00  0.00    +0.000 N 
ATOM     18  H   UNL     1      49.234   5.914  12.488  0.00  0.00    +0.000 HD
BRANCH  17  22
ATOM     19  C   UNL     1      44.578   5.540  11.985  0.00  0.00    +0.000 A 
ATOM     20  C   UNL     1      45.096   5.114  13.212  0.00  0.00    +0.000 A 
ATOM     21  C   UNL     1      46.416   5.430  13.566  0.00  0.00    +0.000 A 
ATOM     22  C   UNL     1      47.225   6.209  12.729  0.00  0.00    +0.000 A 
ATOM     23  C   UNL     1      46.695   6.619  11.499  0.00  0.00    +0.000 A 
ATOM     24  C   UNL     1      45.390   6.284  11.125  0.00  0.00    +0.000 A 
BRANCH  19  26
ATOM     25  N   UNL     1      42.229   6.135  11.680  0.00  0.00    +0.000 N 
ATOM     26  C   UNL     1      43.207   5.192  11.526  0.00  0.00    +0.000 C 
ATOM     27  O   UNL     1      42.960   4.116  11.000  0.00  0.00    +0.000 OA
ATOM     28  H   UNL     1      41.331   5.912  11.261  0.00  0.00    +0.000 HD
ATOM     29  H   UNL     1      42.433   7.104  11.866  0.00  0.00    +0.000 HD
ENDBRANCH  19  26
ENDBRANCH  17  22
ENDBRANCH   1  17
TORSDOF 5
ENDMDL
MODEL 5
REMARK VINA RESULT:    -6.208      2.915      7.853
REMARK INTER + INTRA:          -8.909
REMARK INTER:                  -8.118
REMARK INTRA:                  -0.791
REMARK UNBOUND:                -0.886
REMARK  Name = 
REMARK  5 active torsions:
REMARK  status: ('A' for Active; 'I' for Inactive)
REMARK    1  A    between atoms: C_2  and  C_4
REMARK    2  A    between atoms: C_7  and  N_8
REMARK    3  A    between atoms: N_8  and  C_9
REMARK    4  A    between atoms: C_9  and  C_10
REMARK    5  A    between atoms: C_15  and  N_16
REMARK                            x       y       z     vdW  Elec       q    Type
REMARK                         _______ _______ _______ _____ _____    ______ ____
ROOT
ATOM      1  C   UNL     1      48.897   8.025  13.104  0.00  0.00    +0.000 C 
ATOM      2  C   UNL     1      49.866   7.443  12.084  0.00  0.00    +0.000 C 
ATOM      3  C   UNL     1      49.393   8.845  11.907  0.00  0.00    +0.000 C 
ENDROOT
BRANCH   1   4
ATOM      4  C   UNL     1      47.403   7.736  13.000  0.00  0.00    +0.000 A 
ATOM      5  C   UNL     1      46.465   8.786  12.961  0.00  0.00    +0.000 A 
ATOM      6  C   UNL     1      45.186   8.577  12.454  0.00  0.00    +0.000 A 
ATOM      7  C   UNL     1      44.837   7.316  11.977  0.00  0.00    +0.000 A 
ATOM      8  F   UNL     1      43.644   7.178  11.375  0.00  0.00    +0.000 F 
ATOM      9  C   UNL     1      45.703   6.218  12.097  0.00  0.00    +0.000 A 
ATOM     10  C   UNL     1      46.947   6.446  12.694  0.00  0.00    +0.000 A 
BRANCH   9  11
ATOM     11  N   UNL     1      45.471   4.972  11.549  0.00  0.00    +0.000 N 
ATOM     12  C   UNL     1      45.302   4.788  10.105  0.00  0.00    +0.000 C 
ATOM     13  C   UNL     1      43.874   4.346   9.770  0.00  0.00    +0.000 C 
ATOM     14  O   UNL     1      43.477   3.203  10.550  0.00  0.00    +0.000 OA
ATOM     15  C   UNL     1      43.526   3.517  11.951  0.00  0.00    +0.000 C 
ATOM     16  C   UNL     1      44.955   3.892  12.391  0.00  0.00    +0.000 C 
ENDBRANCH   9  11
ENDBRANCH   1   4
BRANCH   1  17
ATOM     17  N   UNL     1      49.388   8.362  14.441  0.00  0.00    +0.000 N 
ATOM     18  H   UNL     1      49.728   9.303  14.607  0.00  0.00    +0.000 HD
BRANCH  17  22
ATOM     19  C   UNL     1      50.511   5.374  17.227  0.00  0.00    +0.000 A 
ATOM     20  C   UNL     1      51.494   6.194  16.666  0.00  0.00    +0.000 A 
ATOM     21  C   UNL     1      51.138   7.195  15.749  0.00  0.00    +0.000 A 
ATOM     22  C   UNL     1      49.799   7.423  15.410  0.00  0.00    +0.000 A 
ATOM     23  C   UNL     1      48.827   6.586  15.971  0.00  0.00    +0.000 A 
ATOM     24  C   UNL     1      49.175   5.568  16.863  0.00  0.00    +0.000 A 
BRANCH  19  26
ATOM     25  N   UNL     1      49.921   3.984  19.145  0.00  0.00    +0.000 N 
ATOM     26  C   UNL     1      50.827   4.261  18.161  0.00  0.00    +0.000 C 
ATOM     27  O   UNL     1      51.844   3.592  18.041  0.00  0.00    +0.000 OA
ATOM     28  H   UNL     1      50.110   3.154  19.699  0.00  0.00    +0.000 HD
ATOM     29  H   UNL     1      48.975   4.329  19.126  0.00  0.00    +0.000 HD
ENDBRANCH  19  26
ENDBRANCH  17  22
ENDBRANCH   1  17
TORSDOF 5
ENDMDL
MODEL 6
REMARK VINA RESULT:    -6.164      2.936      7.726
REMARK INTER + INTRA:          -8.852
REMARK INTER:                  -9.014
REMARK INTRA:                   0.162
REMARK UNBOUND:                -0.886
REMARK  Name = 
REMARK  5 active torsions:
REMARK  status: ('A' for Active; 'I' for Inactive)
REMARK    1  A    between atoms: C_2  and  C_4
REMARK    2  A    between atoms: C_7  and  N_8
REMARK    3  A    between atoms: N_8  and  C_9
REMARK    4  A    between atoms: C_9  and  C_10
REMARK    5  A    between atoms: C_15  and  N_16
REMARK                            x       y       z     vdW  Elec       q    Type
REMARK                         _______ _______ _______ _____ _____    ______ ____
ROOT
ATOM      1  C   UNL     1      46.326   6.518  12.478  0.00  0.00    +0.000 C 
ATOM      2  C   UNL     1      46.011   7.677  11.544  0.00  0.00    +0.000 C 
ATOM      3  C   UNL     1      45.371   7.644  12.888  0.00  0.00    +0.000 C 
ENDROOT
BRANCH   1   4
ATOM      4  C   UNL     1      45.591   5.189  12.335  0.00  0.00    +0.000 A 
ATOM      5  C   UNL     1      44.644   4.780  13.293  0.00  0.00    +0.000 A 
ATOM      6  C   UNL     1      43.685   3.821  12.980  0.00  0.00    +0.000 A 
ATOM      7  C   UNL     1      43.664   3.267  11.702  0.00  0.00    +0.000 A 
ATOM      8  F   UNL     1      42.649   2.444  11.389  0.00  0.00    +0.000 F 
ATOM      9  C   UNL     1      44.654   3.567  10.753  0.00  0.00    +0.000 A 
ATOM     10  C   UNL     1      45.654   4.467  11.134  0.00  0.00    +0.000 A 
BRANCH   9  11
ATOM     11  N   UNL     1      44.634   3.146   9.438  0.00  0.00    +0.000 N 
ATOM     12  C   UNL     1      44.714   1.726   9.086  0.00  0.00    +0.000 C 
ATOM     13  C   UNL     1      46.025   1.415   8.355  0.00  0.00    +0.000 C 
ATOM     14  O   UNL     1      46.232   2.301   7.240  0.00  0.00    +0.000 OA
ATOM     15  C   UNL     1      46.292   3.663   7.693  0.00  0.00    +0.000 C 
ATOM     16  C   UNL     1      44.973   4.086   8.369  0.00  0.00    +0.000 C 
ENDBRANCH   9  11
ENDBRANCH   1   4
BRANCH   1  17
ATOM     17  N   UNL     1      47.647   6.449  13.108  0.00  0.00    +0.000 N 
ATOM     18  H   UNL     1      48.467   6.506  12.514  0.00  0.00    +0.000 HD
BRANCH  17  22
ATOM     19  C   UNL     1      48.331   5.083  17.059  0.00  0.00    +0.000 A 
ATOM     20  C   UNL     1      47.570   4.301  16.184  0.00  0.00    +0.000 A 
ATOM     21  C   UNL     1      47.342   4.735  14.869  0.00  0.00    +0.000 A 
ATOM     22  C   UNL     1      47.901   5.927  14.392  0.00  0.00    +0.000 A 
ATOM     23  C   UNL     1      48.651   6.704  15.284  0.00  0.00    +0.000 A 
ATOM     24  C   UNL     1      48.859   6.294  16.604  0.00  0.00    +0.000 A 
BRANCH  19  26
ATOM     25  N   UNL     1      48.237   3.434  18.858  0.00  0.00    +0.000 N 
ATOM     26  C   UNL     1      48.563   4.707  18.478  0.00  0.00    +0.000 C 
ATOM     27  O   UNL     1      49.056   5.490  19.278  0.00  0.00    +0.000 OA
ATOM     28  H   UNL     1      48.506   3.173  19.802  0.00  0.00    +0.000 HD
ATOM     29  H   UNL     1      48.075   2.695  18.195  0.00  0.00    +0.000 HD
ENDBRANCH  19  26
ENDBRANCH  17  22
ENDBRANCH   1  17
TORSDOF 5
ENDMDL
MODEL 7
REMARK VINA RESULT:    -6.087      3.112      5.044
REMARK INTER + INTRA:          -8.752
REMARK INTER:                  -7.844
REMARK INTRA:                  -0.907
REMARK UNBOUND:                -0.886
REMARK  Name = 
REMARK  5 active torsions:
REMARK  status: ('A' for Active; 'I' for Inactive)
REMARK    1  A    between atoms: C_2  and  C_4
REMARK    2  A    between atoms: C_7  and  N_8
REMARK    3  A    between atoms: N_8  and  C_9
REMARK    4  A    between atoms: C_9  and  C_10
REMARK    5  A    between atoms: C_15  and  N_16
REMARK                            x       y       z     vdW  Elec       q    Type
REMARK                         _______ _______ _______ _____ _____    ______ ____
ROOT
ATOM      1  C   UNL     1      47.972   7.690  13.698  0.00  0.00    +0.000 C 
ATOM      2  C   UNL     1      48.756   6.898  14.734  0.00  0.00    +0.000 C 
ATOM      3  C   UNL     1      48.427   8.323  15.017  0.00  0.00    +0.000 C 
ENDROOT
BRANCH   1   4
ATOM      4  C   UNL     1      48.686   8.316  12.504  0.00  0.00    +0.000 A 
ATOM      5  C   UNL     1      48.345   9.606  12.053  0.00  0.00    +0.000 A 
ATOM      6  C   UNL     1      49.232  10.344  11.275  0.00  0.00    +0.000 A 
ATOM      7  C   UNL     1      50.471   9.799  10.947  0.00  0.00    +0.000 A 
ATOM      8  F   UNL     1      51.355  10.584  10.309  0.00  0.00    +0.000 F 
ATOM      9  C   UNL     1      50.806   8.478  11.284  0.00  0.00    +0.000 A 
ATOM     10  C   UNL     1      49.853   7.736  11.988  0.00  0.00    +0.000 A 
BRANCH   9  11
ATOM     11  N   UNL     1      52.050   7.911  11.091  0.00  0.00    +0.000 N 
ATOM     12  C   UNL     1      53.210   8.312  11.892  0.00  0.00    +0.000 C 
ATOM     13  C   UNL     1      54.256   9.024  11.028  0.00  0.00    +0.000 C 
ATOM     14  O   UNL     1      54.598   8.248   9.865  0.00  0.00    +0.000 OA
ATOM     15  C   UNL     1      53.431   8.029   9.055  0.00  0.00    +0.000 C 
ATOM     16  C   UNL     1      52.355   7.239   9.827  0.00  0.00    +0.000 C 
ENDBRANCH   9  11
ENDBRANCH   1   4
BRANCH   1  17
ATOM     17  N   UNL     1      46.549   7.402  13.507  0.00  0.00    +0.000 N 
ATOM     18  H   UNL     1      45.883   7.822  14.145  0.00  0.00    +0.000 HD
BRANCH  17  22
ATOM     19  C   UNL     1      44.836   4.097  11.485  0.00  0.00    +0.000 A 
ATOM     20  C   UNL     1      45.156   5.252  10.765  0.00  0.00    +0.000 A 
ATOM     21  C   UNL     1      45.733   6.352  11.418  0.00  0.00    +0.000 A 
ATOM     22  C   UNL     1      46.039   6.305  12.783  0.00  0.00    +0.000 A 
ATOM     23  C   UNL     1      45.702   5.145  13.493  0.00  0.00    +0.000 A 
ATOM     24  C   UNL     1      45.100   4.055  12.856  0.00  0.00    +0.000 A 
BRANCH  19  26
ATOM     25  N   UNL     1      44.831   2.287   9.845  0.00  0.00    +0.000 N 
ATOM     26  C   UNL     1      44.174   2.920  10.864  0.00  0.00    +0.000 C 
ATOM     27  O   UNL     1      43.095   2.505  11.264  0.00  0.00    +0.000 OA
ATOM     28  H   UNL     1      44.408   1.426   9.514  0.00  0.00    +0.000 HD
ATOM     29  H   UNL     1      45.810   2.431   9.659  0.00  0.00    +0.000 HD
ENDBRANCH  19  26
ENDBRANCH  17  22
ENDBRANCH   1  17
TORSDOF 5
ENDMDL
