MODEL 1
REMARK VINA RESULT:    -8.541      0.000      0.000
REMARK INTER + INTRA:         -11.112
REMARK INTER:                 -10.788
REMARK INTRA:                  -0.324
REMARK UNBOUND:                -0.324
REMARK  Name = 
REMARK  5 active torsions:
REMARK  status: ('A' for Active; 'I' for Inactive)
REMARK    1  A    between atoms: C_2  and  C_4
REMARK    2  A    between atoms: C_7  and  N_8
REMARK    3  A    between atoms: N_8  and  C_9
REMARK    4  A    between atoms: C_9  and  C_10
REMARK    5  A    between atoms: C_14  and  N_15
REMARK                            x       y       z     vdW  Elec       q    Type
REMARK                         _______ _______ _______ _____ _____    ______ ____
ROOT
ATOM      1  N   UNL     1      43.780   3.635  10.634  0.00  0.00    +0.000 N 
ATOM      2  H   UNL     1      42.797   3.394  10.459  0.00  0.00    +0.000 HD
ENDROOT
BRANCH   1   6
ATOM      3  C   UNL     1      46.439   2.635   7.529  0.00  0.00    +0.000 A 
ATOM      4  C   UNL     1      46.000   3.955   7.638  0.00  0.00    +0.000 A 
ATOM      5  C   UNL     1      45.078   4.308   8.627  0.00  0.00    +0.000 A 
ATOM      6  C   UNL     1      44.545   3.352   9.489  0.00  0.00    +0.000 A 
ATOM      7  C   UNL     1      44.952   2.013   9.313  0.00  0.00    +0.000 A 
ATOM      8  C   UNL     1      45.883   1.649   8.339  0.00  0.00    +0.000 A 
BRANCH   3  10
ATOM      9  N   UNL     1      47.726   3.059   5.529  0.00  0.00    +0.000 N 
ATOM     10  C   UNL     1      47.562   2.270   6.634  0.00  0.00    +0.000 C 
ATOM     11  O   UNL     1      48.350   1.374   6.906  0.00  0.00    +0.000 OA
ATOM     12  H   UNL     1      48.594   2.943   5.023  0.00  0.00    +0.000 HD
ATOM     13  H   UNL     1      47.272   3.960   5.458  0.00  0.00    +0.000 HD
ENDBRANCH   3  10
ENDBRANCH   1   6
BRANCH   1  14
ATOM     14  C   UNL     1      43.823   4.787  11.580  0.00  0.00    +0.000 C 
ATOM     15  C   UNL     1      42.814   5.099  12.676  0.00  0.00    +0.000 C 
ATOM     16  C   UNL     1      42.810   5.897  11.408  0.00  0.00    +0.000 C 
BRANCH  14  17
ATOM     17  C   UNL     1      45.281   5.030  12.058  0.00  0.00    +0.000 A 
ATOM     18  N   UNL     1      45.810   6.272  12.044  0.00  0.00    +0.000 NA
ATOM     19  C   UNL     1      46.820   6.501  12.901  0.00  0.00    +0.000 A 
ATOM     20  C   UNL     1      47.328   5.533  13.743  0.00  0.00    +0.000 A 
ATOM     21  C   UNL     1      46.820   4.273  13.598  0.00  0.00    +0.000 A 
ATOM     22  N   UNL     1      45.831   3.994  12.746  0.00  0.00    +0.000 NA
BRANCH  21  23
ATOM     23  N   UNL     1      47.212   3.227  14.425  0.00  0.00    +0.000 N 
ATOM     24  H   UNL     1      47.336   3.506  15.389  0.00  0.00    +0.000 HD
ATOM     25  H   UNL     1      48.045   2.798  14.031  0.00  0.00    +0.000 HD
ENDBRANCH  21  23
ENDBRANCH  14  17
ENDBRANCH   1  14
TORSDOF 5
ENDMDL
MODEL 2
REMARK VINA RESULT:    -8.268      1.776      2.457
REMARK INTER + INTRA:         -10.767
REMARK INTER:                 -10.508
REMARK INTRA:                  -0.259
REMARK UNBOUND:                -0.324
REMARK  Name = 
REMARK  5 active torsions:
REMARK  status: ('A' for Active; 'I' for Inactive)
REMARK    1  A    between atoms: C_2  and  C_4
REMARK    2  A    between atoms: C_7  and  N_8
REMARK    3  A    between atoms: N_8  and  C_9
REMARK    4  A    between atoms: C_9  and  C_10
REMARK    5  A    between atoms: C_14  and  N_15
REMARK                            x       y       z     vdW  Elec       q    Type
REMARK                         _______ _______ _______ _____ _____    ______ ____
ROOT
ATOM      1  N   UNL     1      44.035   5.035  10.052  0.00  0.00    +0.000 N 
ATOM      2  H   UNL     1      44.119   5.984   9.670  0.00  0.00    +0.000 HD
ENDROOT
BRANCH   1   6
ATOM      3  C   UNL     1      46.212   2.130   7.923  0.00  0.00    +0.000 A 
ATOM      4  C   UNL     1      46.401   3.476   7.607  0.00  0.00    +0.000 A 
ATOM      5  C   UNL     1      45.656   4.461   8.261  0.00  0.00    +0.000 A 
ATOM      6  C   UNL     1      44.684   4.124   9.200  0.00  0.00    +0.000 A 
ATOM      7  C   UNL     1      44.464   2.754   9.452  0.00  0.00    +0.000 A 
ATOM      8  C   UNL     1      45.210   1.761   8.816  0.00  0.00    +0.000 A 
BRANCH   3  10
ATOM      9  N   UNL     1      46.777  -0.208   7.695  0.00  0.00    +0.000 N 
ATOM     10  C   UNL     1      47.123   1.083   7.404  0.00  0.00    +0.000 C 
ATOM     11  O   UNL     1      48.078   1.345   6.686  0.00  0.00    +0.000 OA
ATOM     12  H   UNL     1      47.274  -0.927   7.188  0.00  0.00    +0.000 HD
ATOM     13  H   UNL     1      45.849  -0.438   8.027  0.00  0.00    +0.000 HD
ENDBRANCH   3  10
ENDBRANCH   1   6
BRANCH   1  14
ATOM     14  C   UNL     1      43.995   5.126  11.541  0.00  0.00    +0.000 C 
ATOM     15  C   UNL     1      43.753   3.981  12.513  0.00  0.00    +0.000 C 
ATOM     16  C   UNL     1      42.661   4.968  12.235  0.00  0.00    +0.000 C 
BRANCH  14  17
ATOM     17  C   UNL     1      45.111   6.081  12.046  0.00  0.00    +0.000 A 
ATOM     18  N   UNL     1      46.404   5.852  11.732  0.00  0.00    +0.000 NA
ATOM     19  C   UNL     1      47.220   6.921  11.746  0.00  0.00    +0.000 A 
ATOM     20  C   UNL     1      46.794   8.190  12.083  0.00  0.00    +0.000 A 
ATOM     21  C   UNL     1      45.502   8.305  12.512  0.00  0.00    +0.000 A 
ATOM     22  N   UNL     1      44.661   7.268  12.534  0.00  0.00    +0.000 NA
BRANCH  21  23
ATOM     23  N   UNL     1      44.943   9.537  12.827  0.00  0.00    +0.000 N 
ATOM     24  H   UNL     1      43.933   9.542  12.773  0.00  0.00    +0.000 HD
ATOM     25  H   UNL     1      45.370  10.247  12.238  0.00  0.00    +0.000 HD
ENDBRANCH  21  23
ENDBRANCH  14  17
ENDBRANCH   1  14
TORSDOF 5
ENDMDL
MODEL 3
REMARK VINA RESULT:    -6.744      3.164      6.236
REMARK INTER + INTRA:          -8.841
REMARK INTER:                  -8.811
REMARK INTRA:                  -0.031
REMARK UNBOUND:                -0.324
REMARK  Name = 
REMARK  5 active torsions:
REMARK  status: ('A' for Active; 'I' for Inactive)
REMARK    1  A    between atoms: C_2  and  C_4
REMARK    2  A    between atoms: C_7  and  N_8
REMARK    3  A    between atoms: N_8  and  C_9
REMARK    4  A    between atoms: C_9  and  C_10
REMARK    5  A    between atoms: C_14  and  N_15
REMARK                            x       y       z     vdW  Elec       q    Type
REMARK                         _______ _______ _______ _____ _____    ______ ____
ROOT
ATOM      1  N   UNL     1      44.500   5.450  10.532  0.00  0.00    +0.000 N 
ATOM      2  H   UNL     1      43.499   5.667  10.607  0.00  0.00    +0.000 HD
ENDROOT
BRANCH   1   6
ATOM      3  C   UNL     1      46.943   7.992  12.830  0.00  0.00    +0.000 A 
ATOM      4  C   UNL     1      45.557   8.147  12.901  0.00  0.00    +0.000 A 
ATOM      5  C   UNL     1      44.722   7.352  12.112  0.00  0.00    +0.000 A 
ATOM      6  C   UNL     1      45.247   6.428  11.212  0.00  0.00    +0.000 A 
ATOM      7  C   UNL     1      46.650   6.339  11.109  0.00  0.00    +0.000 A 
ATOM      8  C   UNL     1      47.496   7.117  11.900  0.00  0.00    +0.000 A 
BRANCH   3  10
ATOM      9  N   UNL     1      47.304   8.936  15.025  0.00  0.00    +0.000 N 
ATOM     10  C   UNL     1      47.842   8.666  13.796  0.00  0.00    +0.000 C 
ATOM     11  O   UNL     1      49.018   8.891  13.546  0.00  0.00    +0.000 OA
ATOM     12  H   UNL     1      47.958   9.213  15.745  0.00  0.00    +0.000 HD
ATOM     13  H   UNL     1      46.447   8.494  15.328  0.00  0.00    +0.000 HD
ENDBRANCH   3  10
ENDBRANCH   1   6
BRANCH   1  14
ATOM     14  C   UNL     1      44.659   3.968  10.465  0.00  0.00    +0.000 C 
ATOM     15  C   UNL     1      43.724   2.928  11.065  0.00  0.00    +0.000 C 
ATOM     16  C   UNL     1      45.033   3.228  11.730  0.00  0.00    +0.000 C 
BRANCH  14  17
ATOM     17  C   UNL     1      45.154   3.548   9.054  0.00  0.00    +0.000 A 
ATOM     18  N   UNL     1      45.625   4.471   8.190  0.00  0.00    +0.000 NA
ATOM     19  C   UNL     1      46.474   4.027   7.246  0.00  0.00    +0.000 A 
ATOM     20  C   UNL     1      46.841   2.702   7.126  0.00  0.00    +0.000 A 
ATOM     21  C   UNL     1      46.216   1.819   7.960  0.00  0.00    +0.000 A 
ATOM     22  N   UNL     1      45.351   2.211   8.899  0.00  0.00    +0.000 NA
BRANCH  21  23
ATOM     23  N   UNL     1      46.540   0.468   7.971  0.00  0.00    +0.000 N 
ATOM     24  H   UNL     1      46.666   0.081   7.045  0.00  0.00    +0.000 HD
ATOM     25  H   UNL     1      45.838  -0.029   8.511  0.00  0.00    +0.000 HD
ENDBRANCH  21  23
ENDBRANCH  14  17
ENDBRANCH   1  14
TORSDOF 5
ENDMDL
MODEL 4
REMARK VINA RESULT:    -6.209      3.376      6.774
REMARK INTER + INTRA:          -8.166
REMARK INTER:                  -7.628
REMARK INTRA:                  -0.538
REMARK UNBOUND:                -0.324
REMARK  Name = 
REMARK  5 active torsions:
REMARK  status: ('A' for Active; 'I' for Inactive)
REMARK    1  A    between atoms: C_2  and  C_4
REMARK    2  A    between atoms: C_7  and  N_8
REMARK    3  A    between atoms: N_8  and  C_9
REMARK    4  A    between atoms: C_9  and  C_10
REMARK    5  A    between atoms: C_14  and  N_15
REMARK                            x       y       z     vdW  Elec       q    Type
REMARK                         _______ _______ _______ _____ _____    ______ ____
ROOT
ATOM      1  N   UNL     1      46.944   5.909  12.277  0.00  0.00    +0.000 N 
ATOM      2  H   UNL     1      47.668   6.450  11.788  0.00  0.00    +0.000 HD
ENDROOT
BRANCH   1   6
ATOM      3  C   UNL     1      47.806   4.931  16.278  0.00  0.00    +0.000 A 
ATOM      4  C   UNL     1      48.386   6.074  15.726  0.00  0.00    +0.000 A 
ATOM      5  C   UNL     1      48.160   6.398  14.386  0.00  0.00    +0.000 A 
ATOM      6  C   UNL     1      47.396   5.572  13.565  0.00  0.00    +0.000 A 
ATOM      7  C   UNL     1      46.878   4.387  14.128  0.00  0.00    +0.000 A 
ATOM      8  C   UNL     1      47.085   4.059  15.468  0.00  0.00    +0.000 A 
BRANCH   3  10
ATOM      9  N   UNL     1      46.866   5.255  18.480  0.00  0.00    +0.000 N 
ATOM     10  C   UNL     1      47.855   4.671  17.736  0.00  0.00    +0.000 C 
ATOM     11  O   UNL     1      48.673   3.913  18.238  0.00  0.00    +0.000 OA
ATOM     12  H   UNL     1      46.776   4.930  19.433  0.00  0.00    +0.000 HD
ATOM     13  H   UNL     1      46.035   5.630  18.042  0.00  0.00    +0.000 HD
ENDBRANCH   3  10
ENDBRANCH   1   6
BRANCH   1  14
ATOM     14  C   UNL     1      45.607   6.368  11.797  0.00  0.00    +0.000 C 
ATOM     15  C   UNL     1      45.232   7.780  11.372  0.00  0.00    +0.000 C 
ATOM     16  C   UNL     1      44.785   7.256  12.703  0.00  0.00    +0.000 C 
BRANCH  14  17
ATOM     17  C   UNL     1      44.985   5.301  10.855  0.00  0.00    +0.000 A 
ATOM     18  N   UNL     1      45.460   5.131   9.603  0.00  0.00    +0.000 NA
ATOM     19  C   UNL     1      45.258   3.924   9.045  0.00  0.00    +0.000 A 
ATOM     20  C   UNL     1      44.583   2.903   9.684  0.00  0.00    +0.000 A 
ATOM     21  C   UNL     1      44.025   3.205  10.894  0.00  0.00    +0.000 A 
ATOM     22  N   UNL     1      44.182   4.396  11.477  0.00  0.00    +0.000 NA
BRANCH  21  23
ATOM     23  N   UNL     1      43.369   2.247  11.656  0.00  0.00    +0.000 N 
ATOM     24  H   UNL     1      43.719   2.183  12.603  0.00  0.00    +0.000 HD
ATOM     25  H   UNL     1      43.407   1.359  11.163  0.00  0.00    +0.000 HD
ENDBRANCH  21  23
ENDBRANCH  14  17
ENDBRANCH   1  14
TORSDOF 5
ENDMDL
MODEL 5
REMARK VINA RESULT:    -6.124      2.489      4.243
REMARK INTER + INTRA:          -8.058
REMARK INTER:                  -8.089
REMARK INTRA:                   0.031
REMARK UNBOUND:                -0.324
REMARK  Name = 
REMARK  5 active torsions:
REMARK  status: ('A' for Active; 'I' for Inactive)
REMARK    1  A    between atoms: C_2  and  C_4
REMARK    2  A    between atoms: C_7  and  N_8
REMARK    3  A    between atoms: N_8  and  C_9
REMARK    4  A    between atoms: C_9  and  C_10
REMARK    5  A    between atoms: C_14  and  N_15
REMARK                            x       y       z     vdW  Elec       q    Type
REMARK                         _______ _______ _______ _____ _____    ______ ____
ROOT
ATOM      1  N   UNL     1      46.289   5.887  13.681  0.00  0.00    +0.000 N 
ATOM      2  H   UNL     1      45.654   6.581  14.092  0.00  0.00    +0.000 HD
ENDROOT
BRANCH   1   6
ATOM      3  C   UNL     1      44.881   3.810  10.303  0.00  0.00    +0.000 A 
ATOM      4  C   UNL     1      45.108   5.184  10.201  0.00  0.00    +0.000 A 
ATOM      5  C   UNL     1      45.527   5.910  11.319  0.00  0.00    +0.000 A 
ATOM      6  C   UNL     1      45.682   5.296  12.559  0.00  0.00    +0.000 A 
ATOM      7  C   UNL     1      45.380   3.922  12.652  0.00  0.00    +0.000 A 
ATOM      8  C   UNL     1      44.974   3.182  11.541  0.00  0.00    +0.000 A 
BRANCH   3  10
ATOM      9  N   UNL     1      44.418   3.664   7.936  0.00  0.00    +0.000 N 
ATOM     10  C   UNL     1      44.639   2.980   9.100  0.00  0.00    +0.000 C 
ATOM     11  O   UNL     1      44.717   1.759   9.122  0.00  0.00    +0.000 OA
ATOM     12  H   UNL     1      44.447   3.117   7.086  0.00  0.00    +0.000 HD
ATOM     13  H   UNL     1      44.643   4.647   7.857  0.00  0.00    +0.000 HD
ENDBRANCH   3  10
ENDBRANCH   1   6
BRANCH   1  14
ATOM     14  C   UNL     1      47.693   6.337  13.912  0.00  0.00    +0.000 C 
ATOM     15  C   UNL     1      48.219   7.761  13.798  0.00  0.00    +0.000 C 
ATOM     16  C   UNL     1      48.515   6.767  12.717  0.00  0.00    +0.000 C 
BRANCH  14  17
ATOM     17  C   UNL     1      48.295   5.600  15.140  0.00  0.00    +0.000 A 
ATOM     18  N   UNL     1      49.298   6.157  15.850  0.00  0.00    +0.000 NA
ATOM     19  C   UNL     1      49.421   5.755  17.127  0.00  0.00    +0.000 A 
ATOM     20  C   UNL     1      48.597   4.808  17.702  0.00  0.00    +0.000 A 
ATOM     21  C   UNL     1      47.693   4.205  16.873  0.00  0.00    +0.000 A 
ATOM     22  N   UNL     1      47.550   4.556  15.593  0.00  0.00    +0.000 NA
BRANCH  21  23
ATOM     23  N   UNL     1      46.774   3.276  17.346  0.00  0.00    +0.000 N 
ATOM     24  H   UNL     1      47.200   2.531  17.882  0.00  0.00    +0.000 HD
ATOM     25  H   UNL     1      46.228   2.932  16.561  0.00  0.00    +0.000 HD
ENDBRANCH  21  23
ENDBRANCH  14  17
ENDBRANCH   1  14
TORSDOF 5
ENDMDL
MODEL 6
REMARK VINA RESULT:    -5.868      3.232      6.547
REMARK INTER + INTRA:          -7.735
REMARK INTER:                  -7.469
REMARK INTRA:                  -0.266
REMARK UNBOUND:                -0.324
REMARK  Name = 
REMARK  5 active torsions:
REMARK  status: ('A' for Active; 'I' for Inactive)
REMARK    1  A    between atoms: C_2  and  C_4
REMARK    2  A    between atoms: C_7  and  N_8
REMARK    3  A    between atoms: N_8  and  C_9
REMARK    4  A    between atoms: C_9  and  C_10
REMARK    5  A    between atoms: C_14  and  N_15
REMARK                            x       y       z     vdW  Elec       q    Type
REMARK                         _______ _______ _______ _____ _____    ______ ____
ROOT
ATOM      1  N   UNL     1      45.687   3.956  13.077  0.00  0.00    +0.000 N 
ATOM      2  H   UNL     1      46.112   3.215  12.507  0.00  0.00    +0.000 HD
ENDROOT
BRANCH   1   6
ATOM      3  C   UNL     1      48.355   6.270  15.366  0.00  0.00    +0.000 A 
ATOM      4  C   UNL     1      48.086   6.657  14.052  0.00  0.00    +0.000 A 
ATOM      5  C   UNL     1      47.244   5.882  13.251  0.00  0.00    +0.000 A 
ATOM      6  C   UNL     1      46.696   4.692  13.724  0.00  0.00    +0.000 A 
ATOM      7  C   UNL     1      47.038   4.287  15.030  0.00  0.00    +0.000 A 
ATOM      8  C   UNL     1      47.866   5.059  15.846  0.00  0.00    +0.000 A 
BRANCH   3  10
ATOM      9  N   UNL     1      48.333   8.203  16.817  0.00  0.00    +0.000 N 
ATOM     10  C   UNL     1      49.069   7.170  16.302  0.00  0.00    +0.000 C 
ATOM     11  O   UNL     1      50.218   6.958  16.663  0.00  0.00    +0.000 OA
ATOM     12  H   UNL     1      48.747   8.699  17.594  0.00  0.00    +0.000 HD
ATOM     13  H   UNL     1      47.324   8.207  16.753  0.00  0.00    +0.000 HD
ENDBRANCH   3  10
ENDBRANCH   1   6
BRANCH   1  14
ATOM     14  C   UNL     1      44.425   4.397  12.415  0.00  0.00    +0.000 C 
ATOM     15  C   UNL     1      43.577   5.604  12.791  0.00  0.00    +0.000 C 
ATOM     16  C   UNL     1      43.123   4.226  13.164  0.00  0.00    +0.000 C 
BRANCH  14  17
ATOM     17  C   UNL     1      44.549   4.242  10.874  0.00  0.00    +0.000 A 
ATOM     18  N   UNL     1      45.173   5.186  10.138  0.00  0.00    +0.000 NA
ATOM     19  C   UNL     1      45.685   4.784   8.962  0.00  0.00    +0.000 A 
ATOM     20  C   UNL     1      45.573   3.490   8.494  0.00  0.00    +0.000 A 
ATOM     21  C   UNL     1      44.815   2.635   9.243  0.00  0.00    +0.000 A 
ATOM     22  N   UNL     1      44.270   2.995  10.407  0.00  0.00    +0.000 NA
BRANCH  21  23
ATOM     23  N   UNL     1      44.673   1.295   8.904  0.00  0.00    +0.000 N 
ATOM     24  H   UNL     1      43.711   0.983   8.907  0.00  0.00    +0.000 HD
ATOM     25  H   UNL     1      45.266   0.742   9.516  0.00  0.00    +0.000 HD
ENDBRANCH  21  23
ENDBRANCH  14  17
ENDBRANCH   1  14
TORSDOF 5
ENDMDL
MODEL 7
REMARK VINA RESULT:    -5.813      4.290      6.172
REMARK INTER + INTRA:          -7.666
REMARK INTER:                  -7.382
REMARK INTRA:                  -0.283
REMARK UNBOUND:                -0.324
REMARK  Name = 
REMARK  5 active torsions:
REMARK  status: ('A' for Active; 'I' for Inactive)
REMARK    1  A    between atoms: C_2  and  C_4
REMARK    2  A    between atoms: C_7  and  N_8
REMARK    3  A    between atoms: N_8  and  C_9
REMARK    4  A    between atoms: C_9  and  C_10
REMARK    5  A    between atoms: C_14  and  N_15
REMARK                            x       y       z     vdW  Elec       q    Type
REMARK                         _______ _______ _______ _____ _____    ______ ____
ROOT
ATOM      1  N   UNL     1      48.141   5.897  14.172  0.00  0.00    +0.000 N 
ATOM      2  H   UNL     1      48.541   4.976  13.958  0.00  0.00    +0.000 HD
ENDROOT
BRANCH   1   6
ATOM      3  C   UNL     1      44.385   5.790  12.275  0.00  0.00    +0.000 A 
ATOM      4  C   UNL     1      45.078   7.001  12.327  0.00  0.00    +0.000 A 
ATOM      5  C   UNL     1      46.303   7.080  12.993  0.00  0.00    +0.000 A 
ATOM      6  C   UNL     1      46.835   5.976  13.655  0.00  0.00    +0.000 A 
ATOM      7  C   UNL     1      46.084   4.783  13.646  0.00  0.00    +0.000 A 
ATOM      8  C   UNL     1      44.865   4.686  12.973  0.00  0.00    +0.000 A 
BRANCH   3  10
ATOM      9  N   UNL     1      42.064   6.276  11.812  0.00  0.00    +0.000 N 
ATOM     10  C   UNL     1      43.196   5.621  11.408  0.00  0.00    +0.000 C 
ATOM     11  O   UNL     1      43.240   5.008  10.350  0.00  0.00    +0.000 OA
ATOM     12  H   UNL     1      41.315   6.327  11.136  0.00  0.00    +0.000 HD
ATOM     13  H   UNL     1      42.105   7.008  12.509  0.00  0.00    +0.000 HD
ENDBRANCH   3  10
ENDBRANCH   1   6
BRANCH   1  14
ATOM     14  C   UNL     1      48.711   6.372  15.466  0.00  0.00    +0.000 C 
ATOM     15  C   UNL     1      48.611   7.778  16.040  0.00  0.00    +0.000 C 
ATOM     16  C   UNL     1      49.896   7.311  15.427  0.00  0.00    +0.000 C 
BRANCH  14  17
ATOM     17  C   UNL     1      48.516   5.290  16.564  0.00  0.00    +0.000 A 
ATOM     18  N   UNL     1      47.288   4.799  16.832  0.00  0.00    +0.000 NA
ATOM     19  C   UNL     1      47.242   3.572  17.381  0.00  0.00    +0.000 A 
ATOM     20  C   UNL     1      48.372   2.841  17.688  0.00  0.00    +0.000 A 
ATOM     21  C   UNL     1      49.572   3.468  17.502  0.00  0.00    +0.000 A 
ATOM     22  N   UNL     1      49.665   4.693  16.979  0.00  0.00    +0.000 NA
BRANCH  21  23
ATOM     23  N   UNL     1      50.779   2.817  17.724  0.00  0.00    +0.000 N 
ATOM     24  H   UNL     1      50.995   2.701  18.705  0.00  0.00    +0.000 HD
ATOM     25  H   UNL     1      51.510   3.308  17.217  0.00  0.00    +0.000 HD
ENDBRANCH  21  23
ENDBRANCH  14  17
ENDBRANCH   1  14
TORSDOF 5
ENDMDL
