MODEL 1
REMARK VINA RESULT:    -7.116      0.000      0.000
REMARK INTER + INTRA:          -9.764
REMARK INTER:                  -9.196
REMARK INTRA:                  -0.568
REMARK UNBOUND:                -0.568
REMARK  Name = 
REMARK  6 active torsions:
REMARK  status: ('A' for Active; 'I' for Inactive)
REMARK    1  A    between atoms: C_1  and  C_2
REMARK    2  A    between atoms: C_2  and  C_3
REMARK    3  A    between atoms: C_2  and  C_16
REMARK    4  A    between atoms: C_3  and  N_4
REMARK    5  A    between atoms: C_9  and  O_10
REMARK    6  A    between atoms: O_10  and  C_11
REMARK                            x       y       z     vdW  Elec       q    Type
REMARK                         _______ _______ _______ _____ _____    ______ ____
ROOT
ATOM      1  N   UNL     1      45.187   5.079  12.001  0.00  0.00    +0.000 N 
ATOM      2  C   UNL     1      45.619   6.370  12.358  0.00  0.00    +0.000 A 
ATOM      3  C   UNL     1      46.769   6.486  13.136  0.00  0.00    +0.000 A 
ATOM      4  C   UNL     1      47.226   7.748  13.505  0.00  0.00    +0.000 A 
ATOM      5  C   UNL     1      46.511   8.868  13.100  0.00  0.00    +0.000 A 
ATOM      6  C   UNL     1      45.376   8.664  12.337  0.00  0.00    +0.000 A 
ATOM      7  N   UNL     1      44.918   7.453  11.965  0.00  0.00    +0.000 NA
ATOM      8  H   UNL     1      45.963   4.608  11.543  0.00  0.00    +0.000 HD
ENDROOT
BRANCH   1   9
ATOM      9  C   UNL     1      43.984   5.067  11.166  0.00  0.00    +0.000 C 
BRANCH   9  11
ATOM     10  C   UNL     1      43.611   2.572  11.515  0.00  0.00    +0.000 C 
ATOM     11  C   UNL     1      43.761   3.698  10.485  0.00  0.00    +0.000 C 
BRANCH  11  12
ATOM     12  C   UNL     1      44.800   3.426   9.402  0.00  0.00    +0.000 A 
ATOM     13  C   UNL     1      45.394   4.452   8.651  0.00  0.00    +0.000 A 
ATOM     14  C   UNL     1      46.335   4.163   7.661  0.00  0.00    +0.000 A 
ATOM     15  C   UNL     1      46.696   2.842   7.402  0.00  0.00    +0.000 A 
ATOM     16  C   UNL     1      46.107   1.814   8.131  0.00  0.00    +0.000 A 
ATOM     17 CL   UNL     1      46.544   0.181   7.810  0.00  0.00    +0.000 Cl
ATOM     18  C   UNL     1      45.163   2.098   9.121  0.00  0.00    +0.000 A 
ENDBRANCH  11  12
ENDBRANCH   9  11
ENDBRANCH   1   9
BRANCH   6  19
ATOM     19  O   UNL     1      44.672   9.785  11.950  0.00  0.00    +0.000 OA
BRANCH  19  20
ATOM     20  C   UNL     1      44.018   9.705  10.661  0.00  0.00    +0.000 C 
ATOM     21  C   UNL     1      43.876  11.051   9.925  0.00  0.00    +0.000 C 
ATOM     22  N   UNL     1      42.483  10.725   9.578  0.00  0.00    +0.000 NA
ATOM     23  C   UNL     1      42.476   9.664  10.604  0.00  0.00    +0.000 C 
ATOM     24  H   UNL     1      42.370  10.375   8.627  0.00  0.00    +0.000 HD
ENDBRANCH  19  20
ENDBRANCH   6  19
TORSDOF 5
ENDMDL
MODEL 2
REMARK VINA RESULT:    -7.073      2.677      3.147
REMARK INTER + INTRA:          -9.708
REMARK INTER:                  -9.034
REMARK INTRA:                  -0.675
REMARK UNBOUND:                -0.568
REMARK  Name = 
REMARK  6 active torsions:
REMARK  status: ('A' for Active; 'I' for Inactive)
REMARK    1  A    between atoms: C_1  and  C_2
REMARK    2  A    between atoms: C_2  and  C_3
REMARK    3  A    between atoms: C_2  and  C_16
REMARK    4  A    between atoms: C_3  and  N_4
REMARK    5  A    between atoms: C_9  and  O_10
REMARK    6  A    between atoms: O_10  and  C_11
REMARK                            x       y       z     vdW  Elec       q    Type
REMARK                         _______ _______ _______ _____ _____    ______ ____
ROOT
ATOM      1  N   UNL     1      44.999   4.663  12.310  0.00  0.00    +0.000 N 
ATOM      2  C   UNL     1      46.158   5.368  12.683  0.00  0.00    +0.000 A 
ATOM      3  C   UNL     1      46.700   5.120  13.942  0.00  0.00    +0.000 A 
ATOM      4  C   UNL     1      47.849   5.798  14.343  0.00  0.00    +0.000 A 
ATOM      5  C   UNL     1      48.421   6.722  13.478  0.00  0.00    +0.000 A 
ATOM      6  C   UNL     1      47.816   6.913  12.250  0.00  0.00    +0.000 A 
ATOM      7  N   UNL     1      46.707   6.266  11.840  0.00  0.00    +0.000 NA
ATOM      8  H   UNL     1      45.192   3.670  12.414  0.00  0.00    +0.000 HD
ENDROOT
BRANCH   1   9
ATOM      9  C   UNL     1      44.523   4.978  10.961  0.00  0.00    +0.000 C 
BRANCH   9  11
ATOM     10  C   UNL     1      43.716   2.569  11.136  0.00  0.00    +0.000 C 
ATOM     11  C   UNL     1      44.088   3.714  10.187  0.00  0.00    +0.000 C 
BRANCH  11  12
ATOM     12  C   UNL     1      45.096   3.333   9.107  0.00  0.00    +0.000 A 
ATOM     13  C   UNL     1      45.712   4.286   8.280  0.00  0.00    +0.000 A 
ATOM     14  C   UNL     1      46.623   3.898   7.296  0.00  0.00    +0.000 A 
ATOM     15  C   UNL     1      46.931   2.551   7.119  0.00  0.00    +0.000 A 
ATOM     16  C   UNL     1      46.320   1.595   7.923  0.00  0.00    +0.000 A 
ATOM     17 CL   UNL     1      46.691  -0.071   7.702  0.00  0.00    +0.000 Cl
ATOM     18  C   UNL     1      45.406   1.977   8.908  0.00  0.00    +0.000 A 
ENDBRANCH  11  12
ENDBRANCH   9  11
ENDBRANCH   1   9
BRANCH   6  19
ATOM     19  O   UNL     1      48.391   7.840  11.405  0.00  0.00    +0.000 OA
BRANCH  19  20
ATOM     20  C   UNL     1      48.897   9.039  12.038  0.00  0.00    +0.000 C 
ATOM     21  C   UNL     1      48.353  10.357  11.452  0.00  0.00    +0.000 C 
ATOM     22  N   UNL     1      49.708  10.932  11.464  0.00  0.00    +0.000 NA
ATOM     23  C   UNL     1      50.281   9.581  11.619  0.00  0.00    +0.000 C 
ATOM     24  H   UNL     1      49.885  11.545  12.260  0.00  0.00    +0.000 HD
ENDBRANCH  19  20
ENDBRANCH   6  19
TORSDOF 5
ENDMDL
MODEL 3
REMARK VINA RESULT:    -7.057      3.712      7.355
REMARK INTER + INTRA:          -9.689
REMARK INTER:                  -9.154
REMARK INTRA:                  -0.535
REMARK UNBOUND:                -0.568
REMARK  Name = 
REMARK  6 active torsions:
REMARK  status: ('A' for Active; 'I' for Inactive)
REMARK    1  A    between atoms: C_1  and  C_2
REMARK    2  A    between atoms: C_2  and  C_3
REMARK    3  A    between atoms: C_2  and  C_16
REMARK    4  A    between atoms: C_3  and  N_4
REMARK    5  A    between atoms: C_9  and  O_10
REMARK    6  A    between atoms: O_10  and  C_11
REMARK                            x       y       z     vdW  Elec       q    Type
REMARK                         _______ _______ _______ _____ _____    ______ ____
ROOT
ATOM      1  N   UNL     1      44.922   5.415  11.602  0.00  0.00    +0.000 N 
ATOM      2  C   UNL     1      44.911   4.461  10.568  0.00  0.00    +0.000 A 
ATOM      3  C   UNL     1      44.197   3.282  10.770  0.00  0.00    +0.000 A 
ATOM      4  C   UNL     1      44.163   2.317   9.767  0.00  0.00    +0.000 A 
ATOM      5  C   UNL     1      44.860   2.548   8.586  0.00  0.00    +0.000 A 
ATOM      6  C   UNL     1      45.548   3.741   8.471  0.00  0.00    +0.000 A 
ATOM      7  N   UNL     1      45.592   4.689   9.427  0.00  0.00    +0.000 NA
ATOM      8  H   UNL     1      43.956   5.632  11.835  0.00  0.00    +0.000 HD
ENDROOT
BRANCH   1   9
ATOM      9  C   UNL     1      45.681   6.626  11.282  0.00  0.00    +0.000 C 
BRANCH   9  11
ATOM     10  C   UNL     1      47.067   5.958  13.312  0.00  0.00    +0.000 C 
ATOM     11  C   UNL     1      47.084   6.622  11.929  0.00  0.00    +0.000 C 
BRANCH  11  12
ATOM     12  C   UNL     1      47.727   8.004  11.903  0.00  0.00    +0.000 A 
ATOM     13  C   UNL     1      47.008   9.176  12.188  0.00  0.00    +0.000 A 
ATOM     14  C   UNL     1      47.630  10.426  12.145  0.00  0.00    +0.000 A 
ATOM     15  C   UNL     1      48.979  10.526  11.811  0.00  0.00    +0.000 A 
ATOM     16  C   UNL     1      49.700   9.374  11.514  0.00  0.00    +0.000 A 
ATOM     17 CL   UNL     1      51.365   9.493  11.095  0.00  0.00    +0.000 Cl
ATOM     18  C   UNL     1      49.083   8.121  11.554  0.00  0.00    +0.000 A 
ENDBRANCH  11  12
ENDBRANCH   9  11
ENDBRANCH   1   9
BRANCH   6  19
ATOM     19  O   UNL     1      46.242   3.952   7.297  0.00  0.00    +0.000 OA
BRANCH  19  20
ATOM     20  C   UNL     1      46.621   2.761   6.567  0.00  0.00    +0.000 C 
ATOM     21  C   UNL     1      48.009   2.197   6.929  0.00  0.00    +0.000 C 
ATOM     22  N   UNL     1      48.314   2.007   5.501  0.00  0.00    +0.000 NA
ATOM     23  C   UNL     1      47.201   2.908   5.143  0.00  0.00    +0.000 C 
ATOM     24  H   UNL     1      48.184   1.049   5.179  0.00  0.00    +0.000 HD
ENDBRANCH  19  20
ENDBRANCH   6  19
TORSDOF 5
ENDMDL
MODEL 4
REMARK VINA RESULT:    -6.987      3.633      7.272
REMARK INTER + INTRA:          -9.597
REMARK INTER:                  -9.074
REMARK INTRA:                  -0.523
REMARK UNBOUND:                -0.568
REMARK  Name = 
REMARK  6 active torsions:
REMARK  status: ('A' for Active; 'I' for Inactive)
REMARK    1  A    between atoms: C_1  and  C_2
REMARK    2  A    between atoms: C_2  and  C_3
REMARK    3  A    between atoms: C_2  and  C_16
REMARK    4  A    between atoms: C_3  and  N_4
REMARK    5  A    between atoms: C_9  and  O_10
REMARK    6  A    between atoms: O_10  and  C_11
REMARK                            x       y       z     vdW  Elec       q    Type
REMARK                         _______ _______ _______ _____ _____    ______ ____
ROOT
ATOM      1  N   UNL     1      44.855   5.641  11.504  0.00  0.00    +0.000 N 
ATOM      2  C   UNL     1      44.888   4.643  10.513  0.00  0.00    +0.000 A 
ATOM      3  C   UNL     1      44.187   3.462  10.747  0.00  0.00    +0.000 A 
ATOM      4  C   UNL     1      44.196   2.454   9.786  0.00  0.00    +0.000 A 
ATOM      5  C   UNL     1      44.921   2.646   8.616  0.00  0.00    +0.000 A 
ATOM      6  C   UNL     1      45.595   3.843   8.467  0.00  0.00    +0.000 A 
ATOM      7  N   UNL     1      45.598   4.833   9.382  0.00  0.00    +0.000 NA
ATOM      8  H   UNL     1      43.880   5.852  11.700  0.00  0.00    +0.000 HD
ENDROOT
BRANCH   1   9
ATOM      9  C   UNL     1      45.605   6.850  11.152  0.00  0.00    +0.000 C 
BRANCH   9  11
ATOM     10  C   UNL     1      45.265   9.066  12.362  0.00  0.00    +0.000 C 
ATOM     11  C   UNL     1      45.958   7.698  12.394  0.00  0.00    +0.000 C 
BRANCH  11  12
ATOM     12  C   UNL     1      47.463   7.761  12.630  0.00  0.00    +0.000 A 
ATOM     13  C   UNL     1      48.362   8.211  11.651  0.00  0.00    +0.000 A 
ATOM     14  C   UNL     1      49.736   8.246  11.901  0.00  0.00    +0.000 A 
ATOM     15  C   UNL     1      50.234   7.828  13.133  0.00  0.00    +0.000 A 
ATOM     16  C   UNL     1      49.356   7.369  14.109  0.00  0.00    +0.000 A 
ATOM     17 CL   UNL     1      49.968   6.845  15.629  0.00  0.00    +0.000 Cl
ATOM     18  C   UNL     1      47.981   7.330  13.863  0.00  0.00    +0.000 A 
ENDBRANCH  11  12
ENDBRANCH   9  11
ENDBRANCH   1   9
BRANCH   6  19
ATOM     19  O   UNL     1      46.318   4.014   7.305  0.00  0.00    +0.000 OA
BRANCH  19  20
ATOM     20  C   UNL     1      46.666   2.802   6.595  0.00  0.00    +0.000 C 
ATOM     21  C   UNL     1      48.080   2.265   6.890  0.00  0.00    +0.000 C 
ATOM     22  N   UNL     1      48.299   2.027   5.453  0.00  0.00    +0.000 NA
ATOM     23  C   UNL     1      47.154   2.903   5.134  0.00  0.00    +0.000 C 
ATOM     24  H   UNL     1      48.162   1.056   5.175  0.00  0.00    +0.000 HD
ENDBRANCH  19  20
ENDBRANCH   6  19
TORSDOF 5
ENDMDL
MODEL 5
REMARK VINA RESULT:    -6.962      2.926      5.110
REMARK INTER + INTRA:          -9.565
REMARK INTER:                  -8.910
REMARK INTRA:                  -0.655
REMARK UNBOUND:                -0.568
REMARK  Name = 
REMARK  6 active torsions:
REMARK  status: ('A' for Active; 'I' for Inactive)
REMARK    1  A    between atoms: C_1  and  C_2
REMARK    2  A    between atoms: C_2  and  C_3
REMARK    3  A    between atoms: C_2  and  C_16
REMARK    4  A    between atoms: C_3  and  N_4
REMARK    5  A    between atoms: C_9  and  O_10
REMARK    6  A    between atoms: O_10  and  C_11
REMARK                            x       y       z     vdW  Elec       q    Type
REMARK                         _______ _______ _______ _____ _____    ______ ____
ROOT
ATOM      1  N   UNL     1      46.074   6.908  11.762  0.00  0.00    +0.000 N 
ATOM      2  C   UNL     1      47.211   7.005  12.585  0.00  0.00    +0.000 A 
ATOM      3  C   UNL     1      48.194   7.930  12.240  0.00  0.00    +0.000 A 
ATOM      4  C   UNL     1      49.331   8.054  13.034  0.00  0.00    +0.000 A 
ATOM      5  C   UNL     1      49.467   7.236  14.149  0.00  0.00    +0.000 A 
ATOM      6  C   UNL     1      48.448   6.340  14.415  0.00  0.00    +0.000 A 
ATOM      7  N   UNL     1      47.338   6.205  13.663  0.00  0.00    +0.000 NA
ATOM      8  H   UNL     1      45.664   7.835  11.688  0.00  0.00    +0.000 HD
ENDROOT
BRANCH   1   9
ATOM      9  C   UNL     1      45.092   5.923  12.223  0.00  0.00    +0.000 C 
BRANCH   9  11
ATOM     10  C   UNL     1      42.625   5.497  11.753  0.00  0.00    +0.000 C 
ATOM     11  C   UNL     1      44.028   5.614  11.146  0.00  0.00    +0.000 C 
BRANCH  11  12
ATOM     12  C   UNL     1      44.434   4.434  10.268  0.00  0.00    +0.000 A 
ATOM     13  C   UNL     1      44.029   3.118  10.540  0.00  0.00    +0.000 A 
ATOM     14  C   UNL     1      44.429   2.062   9.718  0.00  0.00    +0.000 A 
ATOM     15  C   UNL     1      45.243   2.303   8.614  0.00  0.00    +0.000 A 
ATOM     16  C   UNL     1      45.662   3.601   8.339  0.00  0.00    +0.000 A 
ATOM     17 CL   UNL     1      46.673   3.903   6.980  0.00  0.00    +0.000 Cl
ATOM     18  C   UNL     1      45.267   4.661   9.159  0.00  0.00    +0.000 A 
ENDBRANCH  11  12
ENDBRANCH   9  11
ENDBRANCH   1   9
BRANCH   6  19
ATOM     19  O   UNL     1      48.602   5.529  15.520  0.00  0.00    +0.000 OA
BRANCH  19  20
ATOM     20  C   UNL     1      47.439   4.756  15.900  0.00  0.00    +0.000 C 
ATOM     21  C   UNL     1      47.154   4.721  17.414  0.00  0.00    +0.000 C 
ATOM     22  N   UNL     1      46.904   3.272  17.343  0.00  0.00    +0.000 NA
ATOM     23  C   UNL     1      47.566   3.222  16.025  0.00  0.00    +0.000 C 
ATOM     24  H   UNL     1      45.914   3.029  17.313  0.00  0.00    +0.000 HD
ENDBRANCH  19  20
ENDBRANCH   6  19
TORSDOF 5
ENDMDL
MODEL 6
REMARK VINA RESULT:    -6.715      5.099      7.581
REMARK INTER + INTRA:          -9.246
REMARK INTER:                  -8.683
REMARK INTRA:                  -0.563
REMARK UNBOUND:                -0.568
REMARK  Name = 
REMARK  6 active torsions:
REMARK  status: ('A' for Active; 'I' for Inactive)
REMARK    1  A    between atoms: C_1  and  C_2
REMARK    2  A    between atoms: C_2  and  C_3
REMARK    3  A    between atoms: C_2  and  C_16
REMARK    4  A    between atoms: C_3  and  N_4
REMARK    5  A    between atoms: C_9  and  O_10
REMARK    6  A    between atoms: O_10  and  C_11
REMARK                            x       y       z     vdW  Elec       q    Type
REMARK                         _______ _______ _______ _____ _____    ______ ____
ROOT
ATOM      1  N   UNL     1      47.871   5.442  15.207  0.00  0.00    +0.000 N 
ATOM      2  C   UNL     1      47.467   5.861  13.925  0.00  0.00    +0.000 A 
ATOM      3  C   UNL     1      48.175   6.897  13.320  0.00  0.00    +0.000 A 
ATOM      4  C   UNL     1      47.804   7.335  12.051  0.00  0.00    +0.000 A 
ATOM      5  C   UNL     1      46.720   6.734  11.422  0.00  0.00    +0.000 A 
ATOM      6  C   UNL     1      46.069   5.718  12.096  0.00  0.00    +0.000 A 
ATOM      7  N   UNL     1      46.412   5.277  13.322  0.00  0.00    +0.000 NA
ATOM      8  H   UNL     1      48.859   5.205  15.159  0.00  0.00    +0.000 HD
ENDROOT
BRANCH   1   9
ATOM      9  C   UNL     1      47.078   4.334  15.744  0.00  0.00    +0.000 C 
BRANCH   9  11
ATOM     10  C   UNL     1      47.118   5.148  18.158  0.00  0.00    +0.000 C 
ATOM     11  C   UNL     1      47.462   3.998  17.203  0.00  0.00    +0.000 C 
BRANCH  11  12
ATOM     12  C   UNL     1      48.899   3.499  17.312  0.00  0.00    +0.000 A 
ATOM     13  C   UNL     1      49.290   2.223  16.876  0.00  0.00    +0.000 A 
ATOM     14  C   UNL     1      50.614   1.798  17.001  0.00  0.00    +0.000 A 
ATOM     15  C   UNL     1      51.569   2.638  17.569  0.00  0.00    +0.000 A 
ATOM     16  C   UNL     1      51.194   3.900  18.017  0.00  0.00    +0.000 A 
ATOM     17 CL   UNL     1      52.368   4.939  18.726  0.00  0.00    +0.000 Cl
ATOM     18  C   UNL     1      49.870   4.331  17.896  0.00  0.00    +0.000 A 
ENDBRANCH  11  12
ENDBRANCH   9  11
ENDBRANCH   1   9
BRANCH   6  19
ATOM     19  O   UNL     1      44.990   5.138  11.462  0.00  0.00    +0.000 OA
BRANCH  19  20
ATOM     20  C   UNL     1      44.704   3.768  11.832  0.00  0.00    +0.000 C 
ATOM     21  C   UNL     1      44.091   2.911  10.707  0.00  0.00    +0.000 C 
ATOM     22  N   UNL     1      43.104   2.361  11.651  0.00  0.00    +0.000 NA
ATOM     23  C   UNL     1      43.401   3.454  12.597  0.00  0.00    +0.000 C 
ATOM     24  H   UNL     1      43.349   1.436  12.005  0.00  0.00    +0.000 HD
ENDBRANCH  19  20
ENDBRANCH   6  19
TORSDOF 5
ENDMDL
MODEL 7
REMARK VINA RESULT:    -6.548      3.615      6.234
REMARK INTER + INTRA:          -9.031
REMARK INTER:                  -8.309
REMARK INTRA:                  -0.721
REMARK UNBOUND:                -0.568
REMARK  Name = 
REMARK  6 active torsions:
REMARK  status: ('A' for Active; 'I' for Inactive)
REMARK    1  A    between atoms: C_1  and  C_2
REMARK    2  A    between atoms: C_2  and  C_3
REMARK    3  A    between atoms: C_2  and  C_16
REMARK    4  A    between atoms: C_3  and  N_4
REMARK    5  A    between atoms: C_9  and  O_10
REMARK    6  A    between atoms: O_10  and  C_11
REMARK                            x       y       z     vdW  Elec       q    Type
REMARK                         _______ _______ _______ _____ _____    ______ ____
ROOT
ATOM      1  N   UNL     1      48.229   7.525  12.711  0.00  0.00    +0.000 N 
ATOM      2  C   UNL     1      48.870   7.444  13.961  0.00  0.00    +0.000 A 
ATOM      3  C   UNL     1      49.644   8.527  14.374  0.00  0.00    +0.000 A 
ATOM      4  C   UNL     1      50.290   8.481  15.607  0.00  0.00    +0.000 A 
ATOM      5  C   UNL     1      50.160   7.343  16.394  0.00  0.00    +0.000 A 
ATOM      6  C   UNL     1      49.380   6.311  15.906  0.00  0.00    +0.000 A 
ATOM      7  N   UNL     1      48.744   6.335  14.718  0.00  0.00    +0.000 NA
ATOM      8  H   UNL     1      47.668   8.373  12.705  0.00  0.00    +0.000 HD
ENDROOT
BRANCH   1   9
ATOM      9  C   UNL     1      47.425   6.346  12.381  0.00  0.00    +0.000 C 
BRANCH   9  11
ATOM     10  C   UNL     1      45.460   7.953  12.601  0.00  0.00    +0.000 C 
ATOM     11  C   UNL     1      46.019   6.727  11.867  0.00  0.00    +0.000 C 
BRANCH  11  12
ATOM     12  C   UNL     1      45.078   5.527  11.841  0.00  0.00    +0.000 A 
ATOM     13  C   UNL     1      44.178   5.251  12.882  0.00  0.00    +0.000 A 
ATOM     14  C   UNL     1      43.338   4.137  12.827  0.00  0.00    +0.000 A 
ATOM     15  C   UNL     1      43.387   3.276  11.732  0.00  0.00    +0.000 A 
ATOM     16  C   UNL     1      44.283   3.531  10.698  0.00  0.00    +0.000 A 
ATOM     17 CL   UNL     1      44.352   2.467   9.348  0.00  0.00    +0.000 Cl
ATOM     18  C   UNL     1      45.127   4.643  10.749  0.00  0.00    +0.000 A 
ENDBRANCH  11  12
ENDBRANCH   9  11
ENDBRANCH   1   9
BRANCH   6  19
ATOM     19  O   UNL     1      49.268   5.185  16.694  0.00  0.00    +0.000 OA
BRANCH  19  20
ATOM     20  C   UNL     1      48.040   4.432  16.546  0.00  0.00    +0.000 C 
ATOM     21  C   UNL     1      47.098   4.490  17.764  0.00  0.00    +0.000 C 
ATOM     22  N   UNL     1      46.872   3.038  17.670  0.00  0.00    +0.000 NA
ATOM     23  C   UNL     1      48.059   2.910  16.803  0.00  0.00    +0.000 C 
ATOM     24  H   UNL     1      45.998   2.790  17.206  0.00  0.00    +0.000 HD
ENDBRANCH  19  20
ENDBRANCH   6  19
TORSDOF 5
ENDMDL
MODEL 8
REMARK VINA RESULT:    -6.050      5.572      8.192
REMARK INTER + INTRA:          -8.387
REMARK INTER:                  -7.913
REMARK INTRA:                  -0.474
REMARK UNBOUND:                -0.568
REMARK  Name = 
REMARK  6 active torsions:
REMARK  status: ('A' for Active; 'I' for Inactive)
REMARK    1  A    between atoms: C_1  and  C_2
REMARK    2  A    between atoms: C_2  and  C_3
REMARK    3  A    between atoms: C_2  and  C_16
REMARK    4  A    between atoms: C_3  and  N_4
REMARK    5  A    between atoms: C_9  and  O_10
REMARK    6  A    between atoms: O_10  and  C_11
REMARK                            x       y       z     vdW  Elec       q    Type
REMARK                         _______ _______ _______ _____ _____    ______ ____
ROOT
ATOM      1  N   UNL     1      46.607   4.611  15.334  0.00  0.00    +0.000 N 
ATOM      2  C   UNL     1      47.435   4.062  16.330  0.00  0.00    +0.000 A 
ATOM      3  C   UNL     1      47.178   4.399  17.658  0.00  0.00    +0.000 A 
ATOM      4  C   UNL     1      47.977   3.871  18.669  0.00  0.00    +0.000 A 
ATOM      5  C   UNL     1      49.027   3.028  18.327  0.00  0.00    +0.000 A 
ATOM      6  C   UNL     1      49.217   2.751  16.986  0.00  0.00    +0.000 A 
ATOM      7  N   UNL     1      48.455   3.247  15.991  0.00  0.00    +0.000 NA
ATOM      8  H   UNL     1      45.645   4.381  15.569  0.00  0.00    +0.000 HD
ENDROOT
BRANCH   1   9
ATOM      9  C   UNL     1      46.946   4.178  13.977  0.00  0.00    +0.000 C 
BRANCH   9  11
ATOM     10  C   UNL     1      47.050   6.685  13.539  0.00  0.00    +0.000 C 
ATOM     11  C   UNL     1      46.749   5.306  12.940  0.00  0.00    +0.000 C 
BRANCH  11  12
ATOM     12  C   UNL     1      45.398   5.206  12.240  0.00  0.00    +0.000 A 
ATOM     13  C   UNL     1      44.188   5.494  12.891  0.00  0.00    +0.000 A 
ATOM     14  C   UNL     1      42.969   5.382  12.220  0.00  0.00    +0.000 A 
ATOM     15  C   UNL     1      42.938   4.975  10.888  0.00  0.00    +0.000 A 
ATOM     16  C   UNL     1      44.128   4.675  10.233  0.00  0.00    +0.000 A 
ATOM     17 CL   UNL     1      44.094   4.165   8.590  0.00  0.00    +0.000 Cl
ATOM     18  C   UNL     1      45.350   4.783  10.901  0.00  0.00    +0.000 A 
ENDBRANCH  11  12
ENDBRANCH   9  11
ENDBRANCH   1   9
BRANCH   6  19
ATOM     19  O   UNL     1      50.269   1.919  16.661  0.00  0.00    +0.000 OA
BRANCH  19  20
ATOM     20  C   UNL     1      51.306   1.795  17.663  0.00  0.00    +0.000 C 
ATOM     21  C   UNL     1      52.443   2.828  17.546  0.00  0.00    +0.000 C 
ATOM     22  N   UNL     1      53.442   1.768  17.763  0.00  0.00    +0.000 NA
ATOM     23  C   UNL     1      52.420   0.745  17.462  0.00  0.00    +0.000 C 
ATOM     24  H   UNL     1      53.792   1.726  18.719  0.00  0.00    +0.000 HD
ENDBRANCH  19  20
ENDBRANCH   6  19
TORSDOF 5
ENDMDL
MODEL 9
REMARK VINA RESULT:    -6.041      5.046      7.158
REMARK INTER + INTRA:          -8.375
REMARK INTER:                  -7.852
REMARK INTRA:                  -0.523
REMARK UNBOUND:                -0.568
REMARK  Name = 
REMARK  6 active torsions:
REMARK  status: ('A' for Active; 'I' for Inactive)
REMARK    1  A    between atoms: C_1  and  C_2
REMARK    2  A    between atoms: C_2  and  C_3
REMARK    3  A    between atoms: C_2  and  C_16
REMARK    4  A    between atoms: C_3  and  N_4
REMARK    5  A    between atoms: C_9  and  O_10
REMARK    6  A    between atoms: O_10  and  C_11
REMARK                            x       y       z     vdW  Elec       q    Type
REMARK                         _______ _______ _______ _____ _____    ______ ____
ROOT
ATOM      1  N   UNL     1      46.572   3.965  14.767  0.00  0.00    +0.000 N 
ATOM      2  C   UNL     1      46.280   4.608  13.550  0.00  0.00    +0.000 A 
ATOM      3  C   UNL     1      45.393   3.985  12.675  0.00  0.00    +0.000 A 
ATOM      4  C   UNL     1      45.079   4.594  11.462  0.00  0.00    +0.000 A 
ATOM      5  C   UNL     1      45.675   5.809  11.146  0.00  0.00    +0.000 A 
ATOM      6  C   UNL     1      46.549   6.355  12.067  0.00  0.00    +0.000 A 
ATOM      7  N   UNL     1      46.865   5.785  13.246  0.00  0.00    +0.000 NA
ATOM      8  H   UNL     1      45.691   3.782  15.240  0.00  0.00    +0.000 HD
ENDROOT
BRANCH   1   9
ATOM      9  C   UNL     1      47.497   4.712  15.623  0.00  0.00    +0.000 C 
BRANCH   9  11
ATOM     10  C   UNL     1      47.151   4.948  18.136  0.00  0.00    +0.000 C 
ATOM     11  C   UNL     1      47.671   4.049  17.008  0.00  0.00    +0.000 C 
BRANCH  11  12
ATOM     12  C   UNL     1      49.092   3.535  17.218  0.00  0.00    +0.000 A 
ATOM     13  C   UNL     1      49.447   2.193  17.011  0.00  0.00    +0.000 A 
ATOM     14  C   UNL     1      50.757   1.758  17.223  0.00  0.00    +0.000 A 
ATOM     15  C   UNL     1      51.733   2.657  17.649  0.00  0.00    +0.000 A 
ATOM     16  C   UNL     1      51.393   3.987  17.870  0.00  0.00    +0.000 A 
ATOM     17 CL   UNL     1      52.593   5.099  18.403  0.00  0.00    +0.000 Cl
ATOM     18  C   UNL     1      50.083   4.427  17.661  0.00  0.00    +0.000 A 
ENDBRANCH  11  12
ENDBRANCH   9  11
ENDBRANCH   1   9
BRANCH   6  19
ATOM     19  O   UNL     1      47.139   7.556  11.734  0.00  0.00    +0.000 OA
BRANCH  19  20
ATOM     20  C   UNL     1      46.788   8.684  12.571  0.00  0.00    +0.000 C 
ATOM     21  C   UNL     1      45.459   9.372  12.202  0.00  0.00    +0.000 C 
ATOM     22  N   UNL     1      46.093  10.693  12.342  0.00  0.00    +0.000 NA
ATOM     23  C   UNL     1      47.425  10.060  12.281  0.00  0.00    +0.000 C 
ATOM     24  H   UNL     1      45.897  11.148  13.233  0.00  0.00    +0.000 HD
ENDBRANCH  19  20
ENDBRANCH   6  19
TORSDOF 5
ENDMDL
