MODEL 1
REMARK VINA RESULT:    -7.970      0.000      0.000
REMARK INTER + INTRA:         -12.687
REMARK INTER:                 -11.697
REMARK INTRA:                  -0.990
REMARK UNBOUND:                -0.990
REMARK  Name = 
REMARK  9 active torsions:
REMARK  status: ('A' for Active; 'I' for Inactive)
REMARK    1  A    between atoms: C_1  and  C_2
REMARK    2  A    between atoms: C_2  and  C_3
REMARK    3  A    between atoms: C_3  and  N_4
REMARK    4  A    between atoms: C_3  and  C_26
REMARK    5  A    between atoms: N_4  and  C_5
REMARK    6  A    between atoms: C_5  and  C_6
REMARK    7  A    between atoms: C_9  and  C_10
REMARK    8  A    between atoms: C_10  and  N_11
REMARK    9  A    between atoms: C_12  and  C_14
REMARK                            x       y       z     vdW  Elec       q    Type
REMARK                         _______ _______ _______ _____ _____    ______ ____
ROOT
ATOM      1  C   UNL     1      43.861   6.371  11.431  0.00  0.00    +0.000 C 
ATOM      2  C   UNL     1      44.096   6.094  12.925  0.00  0.00    +0.000 C 
ATOM      3  C   UNL     1      45.294   5.178  13.161  0.00  0.00    +0.000 C 
ATOM      4  C   UNL     1      46.579   5.743  12.533  0.00  0.00    +0.000 C 
ATOM      5  C   UNL     1      46.372   6.000  11.035  0.00  0.00    +0.000 C 
ATOM      6  C   UNL     1      45.153   6.882  10.753  0.00  0.00    +0.000 C 
ENDROOT
BRANCH   1   7
ATOM      7  C   UNL     1      43.339   5.147  10.652  0.00  0.00    +0.000 C 
BRANCH   7   8
ATOM      8  N   UNL     1      44.232   4.710   9.575  0.00  0.00    +0.000 NA
ATOM      9  H   UNL     1      43.865   5.023   8.679  0.00  0.00    +0.000 HD
BRANCH   8  10
ATOM     10  C   UNL     1      44.374   3.235   9.529  0.00  0.00    +0.000 C 
BRANCH  10  11
ATOM     11  C   UNL     1      45.396   2.785   8.478  0.00  0.00    +0.000 A 
ATOM     12  C   UNL     1      45.904   3.705   7.562  0.00  0.00    +0.000 A 
ATOM     13  C   UNL     1      46.901   3.293   6.678  0.00  0.00    +0.000 A 
ATOM     14  C   UNL     1      47.376   1.990   6.747  0.00  0.00    +0.000 A 
ATOM     15  C   UNL     1      46.831   1.142   7.693  0.00  0.00    +0.000 A 
ATOM     16  N   UNL     1      45.856   1.507   8.549  0.00  0.00    +0.000 NA
ENDBRANCH  10  11
BRANCH  10  18
ATOM     17  C   UNL     1      43.431   2.318  11.757  0.00  0.00    +0.000 C 
ATOM     18  C   UNL     1      44.662   2.572  10.901  0.00  0.00    +0.000 C 
ENDBRANCH  10  18
ENDBRANCH   8  10
ENDBRANCH   7   8
ENDBRANCH   1   7
BRANCH   4  19
ATOM     19  C   UNL     1      47.059   7.020  13.245  0.00  0.00    +0.000 C 
BRANCH  19  20
ATOM     20  N   UNL     1      47.539   6.703  14.565  0.00  0.00    +0.000 N 
ATOM     21  C   UNL     1      48.856   6.704  14.940  0.00  0.00    +0.000 C 
ATOM     22  O   UNL     1      49.772   7.046  14.199  0.00  0.00    +0.000 OA
ATOM     23  H   UNL     1      46.851   6.306  15.190  0.00  0.00    +0.000 HD
BRANCH  21  24
ATOM     24  C   UNL     1      49.086   6.343  16.342  0.00  0.00    +0.000 A 
ATOM     25  C   UNL     1      49.718   7.222  17.207  0.00  0.00    +0.000 A 
ATOM     26  S   UNL     1      49.775   6.657  18.819  0.00  0.00    +0.000 S 
ATOM     27  C   UNL     1      48.996   5.201  18.398  0.00  0.00    +0.000 A 
ATOM     28  N   UNL     1      48.702   4.259  19.336  0.00  0.00    +0.000 NA
ATOM     29  C   UNL     1      48.130   3.200  18.868  0.00  0.00    +0.000 A 
ATOM     30  N   UNL     1      47.840   2.988  17.543  0.00  0.00    +0.000 N 
ATOM     31  C   UNL     1      48.103   3.913  16.568  0.00  0.00    +0.000 A 
ATOM     32  O   UNL     1      47.788   3.704  15.401  0.00  0.00    +0.000 OA
ATOM     33  C   UNL     1      48.721   5.136  17.048  0.00  0.00    +0.000 A 
ATOM     34  H   UNL     1      47.392   2.136  17.237  0.00  0.00    +0.000 HD
ENDBRANCH  21  24
ENDBRANCH  19  20
ENDBRANCH   4  19
TORSDOF 8
ENDMDL
MODEL 2
REMARK VINA RESULT:    -7.763      1.727      2.311
REMARK INTER + INTRA:         -12.383
REMARK INTER:                 -11.243
REMARK INTRA:                  -1.140
REMARK UNBOUND:                -0.990
REMARK  Name = 
REMARK  9 active torsions:
REMARK  status: ('A' for Active; 'I' for Inactive)
REMARK    1  A    between atoms: C_1  and  C_2
REMARK    2  A    between atoms: C_2  and  C_3
REMARK    3  A    between atoms: C_3  and  N_4
REMARK    4  A    between atoms: C_3  and  C_26
REMARK    5  A    between atoms: N_4  and  C_5
REMARK    6  A    between atoms: C_5  and  C_6
REMARK    7  A    between atoms: C_9  and  C_10
REMARK    8  A    between atoms: C_10  and  N_11
REMARK    9  A    between atoms: C_12  and  C_14
REMARK                            x       y       z     vdW  Elec       q    Type
REMARK                         _______ _______ _______ _____ _____    ______ ____
ROOT
ATOM      1  C   UNL     1      45.550   6.427  11.785  0.00  0.00    +0.000 C 
ATOM      2  C   UNL     1      45.980   5.724  13.084  0.00  0.00    +0.000 C 
ATOM      3  C   UNL     1      47.488   5.501  13.148  0.00  0.00    +0.000 C 
ATOM      4  C   UNL     1      48.268   6.817  12.993  0.00  0.00    +0.000 C 
ATOM      5  C   UNL     1      47.874   7.520  11.688  0.00  0.00    +0.000 C 
ATOM      6  C   UNL     1      46.361   7.724  11.565  0.00  0.00    +0.000 C 
ENDROOT
BRANCH   1   7
ATOM      7  C   UNL     1      45.680   5.538  10.532  0.00  0.00    +0.000 C 
BRANCH   7   8
ATOM      8  N   UNL     1      44.392   5.141   9.956  0.00  0.00    +0.000 NA
ATOM      9  H   UNL     1      43.635   5.484  10.542  0.00  0.00    +0.000 HD
BRANCH   8  10
ATOM     10  C   UNL     1      44.259   3.668   9.843  0.00  0.00    +0.000 C 
BRANCH  10  11
ATOM     11  C   UNL     1      45.156   3.089   8.743  0.00  0.00    +0.000 A 
ATOM     12  C   UNL     1      45.597   3.907   7.703  0.00  0.00    +0.000 A 
ATOM     13  C   UNL     1      46.487   3.381   6.766  0.00  0.00    +0.000 A 
ATOM     14  C   UNL     1      46.928   2.071   6.906  0.00  0.00    +0.000 A 
ATOM     15  C   UNL     1      46.455   1.330   7.973  0.00  0.00    +0.000 A 
ATOM     16  N   UNL     1      45.583   1.805   8.884  0.00  0.00    +0.000 NA
ENDBRANCH  10  11
BRANCH  10  18
ATOM     17  C   UNL     1      43.385   3.167  12.227  0.00  0.00    +0.000 C 
ATOM     18  C   UNL     1      44.452   2.899  11.176  0.00  0.00    +0.000 C 
ENDBRANCH  10  18
ENDBRANCH   8  10
ENDBRANCH   7   8
ENDBRANCH   1   7
BRANCH   4  19
ATOM     19  C   UNL     1      48.071   7.753  14.199  0.00  0.00    +0.000 C 
BRANCH  19  20
ATOM     20  N   UNL     1      48.041   6.992  15.421  0.00  0.00    +0.000 N 
ATOM     21  C   UNL     1      49.142   6.474  16.048  0.00  0.00    +0.000 C 
ATOM     22  O   UNL     1      50.292   6.664  15.666  0.00  0.00    +0.000 OA
ATOM     23  H   UNL     1      47.121   6.704  15.725  0.00  0.00    +0.000 HD
BRANCH  21  24
ATOM     24  C   UNL     1      48.845   5.734  17.278  0.00  0.00    +0.000 A 
ATOM     25  C   UNL     1      49.049   4.366  17.351  0.00  0.00    +0.000 A 
ATOM     26  S   UNL     1      48.758   3.722  18.907  0.00  0.00    +0.000 S 
ATOM     27  C   UNL     1      48.308   5.248  19.518  0.00  0.00    +0.000 A 
ATOM     28  N   UNL     1      47.963   5.414  20.824  0.00  0.00    +0.000 NA
ATOM     29  C   UNL     1      47.626   6.621  21.139  0.00  0.00    +0.000 A 
ATOM     30  N   UNL     1      47.585   7.675  20.262  0.00  0.00    +0.000 N 
ATOM     31  C   UNL     1      47.938   7.559  18.943  0.00  0.00    +0.000 A 
ATOM     32  O   UNL     1      47.931   8.536  18.202  0.00  0.00    +0.000 OA
ATOM     33  C   UNL     1      48.354   6.225  18.546  0.00  0.00    +0.000 A 
ATOM     34  H   UNL     1      47.311   8.598  20.567  0.00  0.00    +0.000 HD
ENDBRANCH  21  24
ENDBRANCH  19  20
ENDBRANCH   4  19
TORSDOF 8
ENDMDL
MODEL 3
REMARK VINA RESULT:    -7.622      2.070      2.407
REMARK INTER + INTRA:         -12.177
REMARK INTER:                 -11.340
REMARK INTRA:                  -0.837
REMARK UNBOUND:                -0.990
REMARK  Name = 
REMARK  9 active torsions:
REMARK  status: ('A' for Active; 'I' for Inactive)
REMARK    1  A    between atoms: C_1  and  C_2
REMARK    2  A    between atoms: C_2  and  C_3
REMARK    3  A    between atoms: C_3  and  N_4
REMARK    4  A    between atoms: C_3  and  C_26
REMARK    5  A    between atoms: N_4  and  C_5
REMARK    6  A    between atoms: C_5  and  C_6
REMARK    7  A    between atoms: C_9  and  C_10
REMARK    8  A    between atoms: C_10  and  N_11
REMARK    9  A    between atoms: C_12  and  C_14
REMARK                            x       y       z     vdW  Elec       q    Type
REMARK                         _______ _______ _______ _____ _____    ______ ____
ROOT
ATOM      1  C   UNL     1      45.120   6.146  12.766  0.00  0.00    +0.000 C 
ATOM      2  C   UNL     1      45.766   5.074  13.660  0.00  0.00    +0.000 C 
ATOM      3  C   UNL     1      47.266   4.942  13.411  0.00  0.00    +0.000 C 
ATOM      4  C   UNL     1      47.997   6.280  13.603  0.00  0.00    +0.000 C 
ATOM      5  C   UNL     1      47.385   7.357  12.698  0.00  0.00    +0.000 C 
ATOM      6  C   UNL     1      45.871   7.491  12.887  0.00  0.00    +0.000 C 
ENDROOT
BRANCH   1   7
ATOM      7  C   UNL     1      45.047   5.746  11.279  0.00  0.00    +0.000 C 
BRANCH   7   8
ATOM      8  N   UNL     1      45.517   4.384  11.012  0.00  0.00    +0.000 NA
ATOM      9  H   UNL     1      46.450   4.417  10.610  0.00  0.00    +0.000 HD
BRANCH   8  10
ATOM     10  C   UNL     1      44.631   3.660  10.069  0.00  0.00    +0.000 C 
BRANCH  10  11
ATOM     11  C   UNL     1      45.401   3.092   8.872  0.00  0.00    +0.000 A 
ATOM     12  C   UNL     1      45.950   3.954   7.923  0.00  0.00    +0.000 A 
ATOM     13  C   UNL     1      46.725   3.418   6.896  0.00  0.00    +0.000 A 
ATOM     14  C   UNL     1      46.950   2.048   6.856  0.00  0.00    +0.000 A 
ATOM     15  C   UNL     1      46.384   1.261   7.842  0.00  0.00    +0.000 A 
ATOM     16  N   UNL     1      45.617   1.749   8.837  0.00  0.00    +0.000 NA
ENDBRANCH  10  11
BRANCH  10  18
ATOM     17  C   UNL     1      43.391   2.827  12.182  0.00  0.00    +0.000 C 
ATOM     18  C   UNL     1      43.743   2.570  10.724  0.00  0.00    +0.000 C 
ENDBRANCH  10  18
ENDBRANCH   8  10
ENDBRANCH   7   8
ENDBRANCH   1   7
BRANCH   4  19
ATOM     19  C   UNL     1      47.996   6.736  15.072  0.00  0.00    +0.000 C 
BRANCH  19  20
ATOM     20  N   UNL     1      49.087   6.124  15.785  0.00  0.00    +0.000 N 
ATOM     21  C   UNL     1      48.949   5.201  16.787  0.00  0.00    +0.000 C 
ATOM     22  O   UNL     1      47.867   4.742  17.141  0.00  0.00    +0.000 OA
ATOM     23  H   UNL     1      49.994   6.539  15.621  0.00  0.00    +0.000 HD
BRANCH  21  24
ATOM     24  C   UNL     1      50.215   4.731  17.356  0.00  0.00    +0.000 A 
ATOM     25  C   UNL     1      51.051   5.599  18.039  0.00  0.00    +0.000 A 
ATOM     26  S   UNL     1      52.411   4.824  18.725  0.00  0.00    +0.000 S 
ATOM     27  C   UNL     1      51.943   3.313  18.092  0.00  0.00    +0.000 A 
ATOM     28  N   UNL     1      52.668   2.187  18.336  0.00  0.00    +0.000 NA
ATOM     29  C   UNL     1      52.205   1.120  17.776  0.00  0.00    +0.000 A 
ATOM     30  N   UNL     1      51.090   1.078  16.977  0.00  0.00    +0.000 N 
ATOM     31  C   UNL     1      50.321   2.181  16.716  0.00  0.00    +0.000 A 
ATOM     32  O   UNL     1      49.306   2.094  16.033  0.00  0.00    +0.000 OA
ATOM     33  C   UNL     1      50.785   3.403  17.348  0.00  0.00    +0.000 A 
ATOM     34  H   UNL     1      50.776   0.212  16.563  0.00  0.00    +0.000 HD
ENDBRANCH  21  24
ENDBRANCH  19  20
ENDBRANCH   4  19
TORSDOF 8
ENDMDL
MODEL 4
REMARK VINA RESULT:    -7.408      3.068      8.357
REMARK INTER + INTRA:         -11.863
REMARK INTER:                 -10.393
REMARK INTRA:                  -1.470
REMARK UNBOUND:                -0.990
REMARK  Name = 
REMARK  9 active torsions:
REMARK  status: ('A' for Active; 'I' for Inactive)
REMARK    1  A    between atoms: C_1  and  C_2
REMARK    2  A    between atoms: C_2  and  C_3
REMARK    3  A    between atoms: C_3  and  N_4
REMARK    4  A    between atoms: C_3  and  C_26
REMARK    5  A    between atoms: N_4  and  C_5
REMARK    6  A    between atoms: C_5  and  C_6
REMARK    7  A    between atoms: C_9  and  C_10
REMARK    8  A    between atoms: C_10  and  N_11
REMARK    9  A    between atoms: C_12  and  C_14
REMARK                            x       y       z     vdW  Elec       q    Type
REMARK                         _______ _______ _______ _____ _____    ______ ____
ROOT
ATOM      1  C   UNL     1      48.928   7.928  15.082  0.00  0.00    +0.000 C 
ATOM      2  C   UNL     1      48.620   9.248  14.354  0.00  0.00    +0.000 C 
ATOM      3  C   UNL     1      49.085   9.228  12.901  0.00  0.00    +0.000 C 
ATOM      4  C   UNL     1      48.471   8.055  12.120  0.00  0.00    +0.000 C 
ATOM      5  C   UNL     1      48.792   6.725  12.816  0.00  0.00    +0.000 C 
ATOM      6  C   UNL     1      48.379   6.720  14.291  0.00  0.00    +0.000 C 
ENDROOT
BRANCH   1   7
ATOM      7  C   UNL     1      50.431   7.709  15.350  0.00  0.00    +0.000 C 
BRANCH   7   8
ATOM      8  N   UNL     1      50.767   6.331  15.722  0.00  0.00    +0.000 NA
ATOM      9  H   UNL     1      50.227   5.683  15.154  0.00  0.00    +0.000 HD
BRANCH   8  10
ATOM     10  C   UNL     1      50.478   6.050  17.149  0.00  0.00    +0.000 C 
BRANCH  10  11
ATOM     11  C   UNL     1      49.417   4.957  17.319  0.00  0.00    +0.000 A 
ATOM     12  C   UNL     1      48.112   5.301  17.673  0.00  0.00    +0.000 A 
ATOM     13  C   UNL     1      47.144   4.299  17.730  0.00  0.00    +0.000 A 
ATOM     14  C   UNL     1      47.496   2.993  17.412  0.00  0.00    +0.000 A 
ATOM     15  C   UNL     1      48.807   2.735  17.056  0.00  0.00    +0.000 A 
ATOM     16  N   UNL     1      49.767   3.680  17.008  0.00  0.00    +0.000 NA
ENDBRANCH  10  11
BRANCH  10  18
ATOM     17  C   UNL     1      52.996   5.461  17.221  0.00  0.00    +0.000 C 
ATOM     18  C   UNL     1      51.729   5.746  18.013  0.00  0.00    +0.000 C 
ENDBRANCH  10  18
ENDBRANCH   8  10
ENDBRANCH   7   8
ENDBRANCH   1   7
BRANCH   4  19
ATOM     19  C   UNL     1      46.953   8.217  11.927  0.00  0.00    +0.000 C 
BRANCH  19  20
ATOM     20  N   UNL     1      46.331   6.929  11.767  0.00  0.00    +0.000 N 
ATOM     21  C   UNL     1      44.996   6.727  11.537  0.00  0.00    +0.000 C 
ATOM     22  O   UNL     1      44.191   7.638  11.372  0.00  0.00    +0.000 OA
ATOM     23  H   UNL     1      46.914   6.137  12.002  0.00  0.00    +0.000 HD
BRANCH  21  24
ATOM     24  C   UNL     1      44.610   5.318  11.414  0.00  0.00    +0.000 A 
ATOM     25  C   UNL     1      43.910   4.684  12.427  0.00  0.00    +0.000 A 
ATOM     26  S   UNL     1      43.453   3.085  12.032  0.00  0.00    +0.000 S 
ATOM     27  C   UNL     1      44.216   3.181  10.511  0.00  0.00    +0.000 A 
ATOM     28  N   UNL     1      44.178   2.141   9.634  0.00  0.00    +0.000 NA
ATOM     29  C   UNL     1      44.817   2.349   8.530  0.00  0.00    +0.000 A 
ATOM     30  N   UNL     1      45.506   3.497   8.230  0.00  0.00    +0.000 N 
ATOM     31  C   UNL     1      45.559   4.574   9.075  0.00  0.00    +0.000 A 
ATOM     32  O   UNL     1      46.149   5.599   8.752  0.00  0.00    +0.000 OA
ATOM     33  C   UNL     1      44.831   4.400  10.320  0.00  0.00    +0.000 A 
ATOM     34  H   UNL     1      45.989   3.601   7.350  0.00  0.00    +0.000 HD
ENDBRANCH  21  24
ENDBRANCH  19  20
ENDBRANCH   4  19
TORSDOF 8
ENDMDL
MODEL 5
REMARK VINA RESULT:    -7.201      1.936      2.459
REMARK INTER + INTRA:         -11.559
REMARK INTER:                  -9.863
REMARK INTRA:                  -1.695
REMARK UNBOUND:                -0.990
REMARK  Name = 
REMARK  9 active torsions:
REMARK  status: ('A' for Active; 'I' for Inactive)
REMARK    1  A    between atoms: C_1  and  C_2
REMARK    2  A    between atoms: C_2  and  C_3
REMARK    3  A    between atoms: C_3  and  N_4
REMARK    4  A    between atoms: C_3  and  C_26
REMARK    5  A    between atoms: N_4  and  C_5
REMARK    6  A    between atoms: C_5  and  C_6
REMARK    7  A    between atoms: C_9  and  C_10
REMARK    8  A    between atoms: C_10  and  N_11
REMARK    9  A    between atoms: C_12  and  C_14
REMARK                            x       y       z     vdW  Elec       q    Type
REMARK                         _______ _______ _______ _____ _____    ______ ____
ROOT
ATOM      1  C   UNL     1      45.337   6.827  10.819  0.00  0.00    +0.000 C 
ATOM      2  C   UNL     1      45.096   8.279  11.267  0.00  0.00    +0.000 C 
ATOM      3  C   UNL     1      45.115   8.425  12.787  0.00  0.00    +0.000 C 
ATOM      4  C   UNL     1      46.430   7.911  13.394  0.00  0.00    +0.000 C 
ATOM      5  C   UNL     1      46.674   6.454  12.981  0.00  0.00    +0.000 C 
ATOM      6  C   UNL     1      46.621   6.257  11.464  0.00  0.00    +0.000 C 
ENDROOT
BRANCH   1   7
ATOM      7  C   UNL     1      44.159   5.883  11.131  0.00  0.00    +0.000 C 
BRANCH   7   8
ATOM      8  N   UNL     1      43.706   5.106   9.974  0.00  0.00    +0.000 NA
ATOM      9  H   UNL     1      42.695   5.175   9.890  0.00  0.00    +0.000 HD
BRANCH   8  10
ATOM     10  C   UNL     1      44.064   3.671  10.088  0.00  0.00    +0.000 C 
BRANCH  10  11
ATOM     11  C   UNL     1      45.040   3.229   8.991  0.00  0.00    +0.000 A 
ATOM     12  C   UNL     1      45.647   4.183   8.174  0.00  0.00    +0.000 A 
ATOM     13  C   UNL     1      46.600   3.764   7.247  0.00  0.00    +0.000 A 
ATOM     14  C   UNL     1      46.938   2.418   7.177  0.00  0.00    +0.000 A 
ATOM     15  C   UNL     1      46.302   1.537   8.032  0.00  0.00    +0.000 A 
ATOM     16  N   UNL     1      45.365   1.910   8.926  0.00  0.00    +0.000 NA
ENDBRANCH  10  11
BRANCH  10  18
ATOM     17  C   UNL     1      43.516   2.634  12.394  0.00  0.00    +0.000 C 
ATOM     18  C   UNL     1      44.575   3.243  11.488  0.00  0.00    +0.000 C 
ENDBRANCH  10  18
ENDBRANCH   8  10
ENDBRANCH   7   8
ENDBRANCH   1   7
BRANCH   4  19
ATOM     19  C   UNL     1      47.630   8.795  13.013  0.00  0.00    +0.000 C 
BRANCH  19  20
ATOM     20  N   UNL     1      48.741   8.531  13.890  0.00  0.00    +0.000 N 
ATOM     21  C   UNL     1      49.884   7.867  13.530  0.00  0.00    +0.000 C 
ATOM     22  O   UNL     1      50.112   7.483  12.387  0.00  0.00    +0.000 OA
ATOM     23  H   UNL     1      48.571   8.720  14.869  0.00  0.00    +0.000 HD
BRANCH  21  24
ATOM     24  C   UNL     1      50.866   7.724  14.608  0.00  0.00    +0.000 A 
ATOM     25  C   UNL     1      52.112   8.322  14.516  0.00  0.00    +0.000 A 
ATOM     26  S   UNL     1      53.056   8.135  15.929  0.00  0.00    +0.000 S 
ATOM     27  C   UNL     1      51.841   7.211  16.688  0.00  0.00    +0.000 A 
ATOM     28  N   UNL     1      51.994   6.748  17.958  0.00  0.00    +0.000 NA
ATOM     29  C   UNL     1      51.001   6.046  18.395  0.00  0.00    +0.000 A 
ATOM     30  N   UNL     1      49.874   5.751  17.670  0.00  0.00    +0.000 N 
ATOM     31  C   UNL     1      49.669   6.208  16.395  0.00  0.00    +0.000 A 
ATOM     32  O   UNL     1      48.629   5.959  15.796  0.00  0.00    +0.000 OA
ATOM     33  C   UNL     1      50.747   7.027  15.868  0.00  0.00    +0.000 A 
ATOM     34  H   UNL     1      49.129   5.195  18.065  0.00  0.00    +0.000 HD
ENDBRANCH  21  24
ENDBRANCH  19  20
ENDBRANCH   4  19
TORSDOF 8
ENDMDL
MODEL 6
REMARK VINA RESULT:    -7.173      1.917      2.537
REMARK INTER + INTRA:         -11.518
REMARK INTER:                 -10.374
REMARK INTRA:                  -1.144
REMARK UNBOUND:                -0.990
REMARK  Name = 
REMARK  9 active torsions:
REMARK  status: ('A' for Active; 'I' for Inactive)
REMARK    1  A    between atoms: C_1  and  C_2
REMARK    2  A    between atoms: C_2  and  C_3
REMARK    3  A    between atoms: C_3  and  N_4
REMARK    4  A    between atoms: C_3  and  C_26
REMARK    5  A    between atoms: N_4  and  C_5
REMARK    6  A    between atoms: C_5  and  C_6
REMARK    7  A    between atoms: C_9  and  C_10
REMARK    8  A    between atoms: C_10  and  N_11
REMARK    9  A    between atoms: C_12  and  C_14
REMARK                            x       y       z     vdW  Elec       q    Type
REMARK                         _______ _______ _______ _____ _____    ______ ____
ROOT
ATOM      1  C   UNL     1      45.726   6.198  12.433  0.00  0.00    +0.000 C 
ATOM      2  C   UNL     1      46.697   5.756  13.540  0.00  0.00    +0.000 C 
ATOM      3  C   UNL     1      48.121   6.246  13.290  0.00  0.00    +0.000 C 
ATOM      4  C   UNL     1      48.180   7.774  13.134  0.00  0.00    +0.000 C 
ATOM      5  C   UNL     1      47.238   8.233  12.013  0.00  0.00    +0.000 C 
ATOM      6  C   UNL     1      45.806   7.725  12.205  0.00  0.00    +0.000 C 
ENDROOT
BRANCH   1   7
ATOM      7  C   UNL     1      45.957   5.480  11.088  0.00  0.00    +0.000 C 
BRANCH   7   8
ATOM      8  N   UNL     1      44.843   5.622  10.146  0.00  0.00    +0.000 NA
ATOM      9  H   UNL     1      44.085   6.136  10.588  0.00  0.00    +0.000 HD
BRANCH   8  10
ATOM     10  C   UNL     1      44.315   4.309   9.701  0.00  0.00    +0.000 C 
BRANCH  10  11
ATOM     11  C   UNL     1      45.298   3.570   8.787  0.00  0.00    +0.000 A 
ATOM     12  C   UNL     1      45.481   2.195   8.929  0.00  0.00    +0.000 A 
ATOM     13  C   UNL     1      46.310   1.530   8.026  0.00  0.00    +0.000 A 
ATOM     14  C   UNL     1      46.910   2.247   6.998  0.00  0.00    +0.000 A 
ATOM     15  C   UNL     1      46.667   3.605   6.916  0.00  0.00    +0.000 A 
ATOM     16  N   UNL     1      45.885   4.277   7.784  0.00  0.00    +0.000 NA
ENDBRANCH  10  11
BRANCH  10  18
ATOM     17  C   UNL     1      42.891   4.054  11.847  0.00  0.00    +0.000 C 
ATOM     18  C   UNL     1      43.826   3.388  10.849  0.00  0.00    +0.000 C 
ENDBRANCH  10  18
ENDBRANCH   8  10
ENDBRANCH   7   8
ENDBRANCH   1   7
BRANCH   4  19
ATOM     19  C   UNL     1      47.860   8.505  14.449  0.00  0.00    +0.000 C 
BRANCH  19  20
ATOM     20  N   UNL     1      48.232   7.689  15.576  0.00  0.00    +0.000 N 
ATOM     21  C   UNL     1      48.408   8.150  16.853  0.00  0.00    +0.000 C 
ATOM     22  O   UNL     1      48.196   9.311  17.190  0.00  0.00    +0.000 OA
ATOM     23  H   UNL     1      48.530   6.750  15.347  0.00  0.00    +0.000 HD
BRANCH  21  24
ATOM     24  C   UNL     1      48.790   7.119  17.821  0.00  0.00    +0.000 A 
ATOM     25  C   UNL     1      48.015   6.877  18.944  0.00  0.00    +0.000 A 
ATOM     26  S   UNL     1      48.570   5.555  19.875  0.00  0.00    +0.000 S 
ATOM     27  C   UNL     1      49.888   5.295  18.826  0.00  0.00    +0.000 A 
ATOM     28  N   UNL     1      50.765   4.275  19.031  0.00  0.00    +0.000 NA
ATOM     29  C   UNL     1      51.724   4.213  18.169  0.00  0.00    +0.000 A 
ATOM     30  N   UNL     1      51.898   5.090  17.128  0.00  0.00    +0.000 N 
ATOM     31  C   UNL     1      51.033   6.122  16.874  0.00  0.00    +0.000 A 
ATOM     32  O   UNL     1      51.198   6.858  15.907  0.00  0.00    +0.000 OA
ATOM     33  C   UNL     1      49.919   6.216  17.800  0.00  0.00    +0.000 A 
ATOM     34  H   UNL     1      52.671   4.992  16.485  0.00  0.00    +0.000 HD
ENDBRANCH  21  24
ENDBRANCH  19  20
ENDBRANCH   4  19
TORSDOF 8
ENDMDL
MODEL 7
REMARK VINA RESULT:    -6.796      2.298      3.045
REMARK INTER + INTRA:         -10.964
REMARK INTER:                  -9.966
REMARK INTRA:                  -0.998
REMARK UNBOUND:                -0.990
REMARK  Name = 
REMARK  9 active torsions:
REMARK  status: ('A' for Active; 'I' for Inactive)
REMARK    1  A    between atoms: C_1  and  C_2
REMARK    2  A    between atoms: C_2  and  C_3
REMARK    3  A    between atoms: C_3  and  N_4
REMARK    4  A    between atoms: C_3  and  C_26
REMARK    5  A    between atoms: N_4  and  C_5
REMARK    6  A    between atoms: C_5  and  C_6
REMARK    7  A    between atoms: C_9  and  C_10
REMARK    8  A    between atoms: C_10  and  N_11
REMARK    9  A    between atoms: C_12  and  C_14
REMARK                            x       y       z     vdW  Elec       q    Type
REMARK                         _______ _______ _______ _____ _____    ______ ____
ROOT
ATOM      1  C   UNL     1      46.034   7.445  12.875  0.00  0.00    +0.000 C 
ATOM      2  C   UNL     1      46.988   6.438  13.540  0.00  0.00    +0.000 C 
ATOM      3  C   UNL     1      48.294   6.282  12.765  0.00  0.00    +0.000 C 
ATOM      4  C   UNL     1      49.014   7.627  12.580  0.00  0.00    +0.000 C 
ATOM      5  C   UNL     1      48.087   8.637  11.892  0.00  0.00    +0.000 C 
ATOM      6  C   UNL     1      46.746   8.792  12.616  0.00  0.00    +0.000 C 
ENDROOT
BRANCH   1   7
ATOM      7  C   UNL     1      45.428   6.937  11.551  0.00  0.00    +0.000 C 
BRANCH   7   8
ATOM      8  N   UNL     1      45.522   5.485  11.380  0.00  0.00    +0.000 NA
ATOM      9  H   UNL     1      46.429   5.245  10.987  0.00  0.00    +0.000 HD
BRANCH   8  10
ATOM     10  C   UNL     1      44.470   4.958  10.477  0.00  0.00    +0.000 C 
BRANCH  10  11
ATOM     11  C   UNL     1      45.040   4.007   9.419  0.00  0.00    +0.000 A 
ATOM     12  C   UNL     1      45.797   4.514   8.362  0.00  0.00    +0.000 A 
ATOM     13  C   UNL     1      46.382   3.621   7.466  0.00  0.00    +0.000 A 
ATOM     14  C   UNL     1      46.217   2.255   7.658  0.00  0.00    +0.000 A 
ATOM     15  C   UNL     1      45.465   1.831   8.738  0.00  0.00    +0.000 A 
ATOM     16  N   UNL     1      44.874   2.671   9.612  0.00  0.00    +0.000 NA
ENDBRANCH  10  11
BRANCH  10  18
ATOM     17  C   UNL     1      43.478   4.035  12.682  0.00  0.00    +0.000 C 
ATOM     18  C   UNL     1      43.259   4.316  11.203  0.00  0.00    +0.000 C 
ENDBRANCH  10  18
ENDBRANCH   8  10
ENDBRANCH   7   8
ENDBRANCH   1   7
BRANCH   4  19
ATOM     19  C   UNL     1      49.543   8.190  13.910  0.00  0.00    +0.000 C 
BRANCH  19  20
ATOM     20  N   UNL     1      49.810   7.118  14.834  0.00  0.00    +0.000 N 
ATOM     21  C   UNL     1      49.386   7.082  16.135  0.00  0.00    +0.000 C 
ATOM     22  O   UNL     1      48.666   7.939  16.638  0.00  0.00    +0.000 OA
ATOM     23  H   UNL     1      50.489   6.439  14.520  0.00  0.00    +0.000 HD
BRANCH  21  24
ATOM     24  C   UNL     1      49.791   5.881  16.871  0.00  0.00    +0.000 A 
ATOM     25  C   UNL     1      48.845   5.008  17.381  0.00  0.00    +0.000 A 
ATOM     26  S   UNL     1      49.528   3.613  18.093  0.00  0.00    +0.000 S 
ATOM     27  C   UNL     1      51.112   4.157  17.778  0.00  0.00    +0.000 A 
ATOM     28  N   UNL     1      52.198   3.407  18.112  0.00  0.00    +0.000 NA
ATOM     29  C   UNL     1      53.334   3.955  17.831  0.00  0.00    +0.000 A 
ATOM     30  N   UNL     1      53.484   5.195  17.263  0.00  0.00    +0.000 N 
ATOM     31  C   UNL     1      52.421   5.978  16.896  0.00  0.00    +0.000 A 
ATOM     32  O   UNL     1      52.597   7.062  16.350  0.00  0.00    +0.000 OA
ATOM     33  C   UNL     1      51.119   5.392  17.165  0.00  0.00    +0.000 A 
ATOM     34  H   UNL     1      54.400   5.573  17.068  0.00  0.00    +0.000 HD
ENDBRANCH  21  24
ENDBRANCH  19  20
ENDBRANCH   4  19
TORSDOF 8
ENDMDL
MODEL 8
REMARK VINA RESULT:    -6.665      3.562      9.495
REMARK INTER + INTRA:         -10.772
REMARK INTER:                  -9.314
REMARK INTRA:                  -1.458
REMARK UNBOUND:                -0.990
REMARK  Name = 
REMARK  9 active torsions:
REMARK  status: ('A' for Active; 'I' for Inactive)
REMARK    1  A    between atoms: C_1  and  C_2
REMARK    2  A    between atoms: C_2  and  C_3
REMARK    3  A    between atoms: C_3  and  N_4
REMARK    4  A    between atoms: C_3  and  C_26
REMARK    5  A    between atoms: N_4  and  C_5
REMARK    6  A    between atoms: C_5  and  C_6
REMARK    7  A    between atoms: C_9  and  C_10
REMARK    8  A    between atoms: C_10  and  N_11
REMARK    9  A    between atoms: C_12  and  C_14
REMARK                            x       y       z     vdW  Elec       q    Type
REMARK                         _______ _______ _______ _____ _____    ______ ____
ROOT
ATOM      1  C   UNL     1      50.450   5.033  17.580  0.00  0.00    +0.000 C 
ATOM      2  C   UNL     1      50.121   3.546  17.800  0.00  0.00    +0.000 C 
ATOM      3  C   UNL     1      48.792   3.349  18.524  0.00  0.00    +0.000 C 
ATOM      4  C   UNL     1      47.630   4.028  17.782  0.00  0.00    +0.000 C 
ATOM      5  C   UNL     1      47.927   5.519  17.577  0.00  0.00    +0.000 C 
ATOM      6  C   UNL     1      49.274   5.762  16.890  0.00  0.00    +0.000 C 
ENDROOT
BRANCH   1   7
ATOM      7  C   UNL     1      50.810   5.783  18.878  0.00  0.00    +0.000 C 
BRANCH   7   8
ATOM      8  N   UNL     1      50.691   7.239  18.769  0.00  0.00    +0.000 NA
ATOM      9  H   UNL     1      51.616   7.653  18.684  0.00  0.00    +0.000 HD
BRANCH   8  10
ATOM     10  C   UNL     1      50.022   7.836  19.950  0.00  0.00    +0.000 C 
BRANCH  10  11
ATOM     11  C   UNL     1      49.189   9.069  19.582  0.00  0.00    +0.000 A 
ATOM     12  C   UNL     1      48.461   9.088  18.392  0.00  0.00    +0.000 A 
ATOM     13  C   UNL     1      47.638  10.181  18.124  0.00  0.00    +0.000 A 
ATOM     14  C   UNL     1      47.546  11.208  19.055  0.00  0.00    +0.000 A 
ATOM     15  C   UNL     1      48.287  11.109  20.218  0.00  0.00    +0.000 A 
ATOM     16  N   UNL     1      49.104  10.073  20.496  0.00  0.00    +0.000 NA
ENDBRANCH  10  11
BRANCH  10  18
ATOM     17  C   UNL     1      47.694   7.120  20.824  0.00  0.00    +0.000 C 
ATOM     18  C   UNL     1      49.188   6.837  20.793  0.00  0.00    +0.000 C 
ENDBRANCH  10  18
ENDBRANCH   8  10
ENDBRANCH   7   8
ENDBRANCH   1   7
BRANCH   4  19
ATOM     19  C   UNL     1      47.321   3.344  16.438  0.00  0.00    +0.000 C 
BRANCH  19  20
ATOM     20  N   UNL     1      46.746   4.291  15.518  0.00  0.00    +0.000 N 
ATOM     21  C   UNL     1      46.840   4.213  14.154  0.00  0.00    +0.000 C 
ATOM     22  O   UNL     1      47.373   3.279  13.563  0.00  0.00    +0.000 OA
ATOM     23  H   UNL     1      46.393   5.139  15.939  0.00  0.00    +0.000 HD
BRANCH  21  24
ATOM     24  C   UNL     1      46.171   5.303  13.439  0.00  0.00    +0.000 A 
ATOM     25  C   UNL     1      46.791   6.531  13.276  0.00  0.00    +0.000 A 
ATOM     26  S   UNL     1      45.893   7.618  12.310  0.00  0.00    +0.000 S 
ATOM     27  C   UNL     1      44.628   6.492  12.118  0.00  0.00    +0.000 A 
ATOM     28  N   UNL     1      43.534   6.778  11.359  0.00  0.00    +0.000 NA
ATOM     29  C   UNL     1      42.649   5.839  11.321  0.00  0.00    +0.000 A 
ATOM     30  N   UNL     1      42.748   4.643  11.987  0.00  0.00    +0.000 N 
ATOM     31  C   UNL     1      43.836   4.305  12.749  0.00  0.00    +0.000 A 
ATOM     32  O   UNL     1      43.907   3.209  13.293  0.00  0.00    +0.000 OA
ATOM     33  C   UNL     1      44.875   5.319  12.800  0.00  0.00    +0.000 A 
ATOM     34  H   UNL     1      42.021   3.946  11.921  0.00  0.00    +0.000 HD
ENDBRANCH  21  24
ENDBRANCH  19  20
ENDBRANCH   4  19
TORSDOF 8
ENDMDL
MODEL 9
REMARK VINA RESULT:    -6.562      3.265      8.156
REMARK INTER + INTRA:         -10.622
REMARK INTER:                  -8.732
REMARK INTRA:                  -1.890
REMARK UNBOUND:                -0.990
REMARK  Name = 
REMARK  9 active torsions:
REMARK  status: ('A' for Active; 'I' for Inactive)
REMARK    1  A    between atoms: C_1  and  C_2
REMARK    2  A    between atoms: C_2  and  C_3
REMARK    3  A    between atoms: C_3  and  N_4
REMARK    4  A    between atoms: C_3  and  C_26
REMARK    5  A    between atoms: N_4  and  C_5
REMARK    6  A    between atoms: C_5  and  C_6
REMARK    7  A    between atoms: C_9  and  C_10
REMARK    8  A    between atoms: C_10  and  N_11
REMARK    9  A    between atoms: C_12  and  C_14
REMARK                            x       y       z     vdW  Elec       q    Type
REMARK                         _______ _______ _______ _____ _____    ______ ____
ROOT
ATOM      1  C   UNL     1      51.421   7.479  16.138  0.00  0.00    +0.000 C 
ATOM      2  C   UNL     1      50.184   6.827  15.496  0.00  0.00    +0.000 C 
ATOM      3  C   UNL     1      48.925   7.025  16.336  0.00  0.00    +0.000 C 
ATOM      4  C   UNL     1      48.643   8.512  16.603  0.00  0.00    +0.000 C 
ATOM      5  C   UNL     1      49.856   9.174  17.270  0.00  0.00    +0.000 C 
ATOM      6  C   UNL     1      51.150   8.962  16.478  0.00  0.00    +0.000 C 
ENDROOT
BRANCH   1   7
ATOM      7  C   UNL     1      51.907   6.755  17.410  0.00  0.00    +0.000 C 
BRANCH   7   8
ATOM      8  N   UNL     1      52.206   5.335  17.201  0.00  0.00    +0.000 NA
ATOM      9  H   UNL     1      51.775   5.019  16.336  0.00  0.00    +0.000 HD
BRANCH   8  10
ATOM     10  C   UNL     1      51.700   4.488  18.309  0.00  0.00    +0.000 C 
BRANCH  10  11
ATOM     11  C   UNL     1      50.344   3.854  17.979  0.00  0.00    +0.000 A 
ATOM     12  C   UNL     1      49.182   4.348  18.570  0.00  0.00    +0.000 A 
ATOM     13  C   UNL     1      47.953   3.817  18.183  0.00  0.00    +0.000 A 
ATOM     14  C   UNL     1      47.914   2.829  17.206  0.00  0.00    +0.000 A 
ATOM     15  C   UNL     1      49.110   2.403  16.657  0.00  0.00    +0.000 A 
ATOM     16  N   UNL     1      50.314   2.886  17.023  0.00  0.00    +0.000 NA
ENDBRANCH  10  11
BRANCH  10  18
ATOM     17  C   UNL     1      53.871   3.148  17.875  0.00  0.00    +0.000 C 
ATOM     18  C   UNL     1      52.704   3.419  18.813  0.00  0.00    +0.000 C 
ENDBRANCH  10  18
ENDBRANCH   8  10
ENDBRANCH   7   8
ENDBRANCH   1   7
BRANCH   4  19
ATOM     19  C   UNL     1      48.246   9.266  15.322  0.00  0.00    +0.000 C 
BRANCH  19  20
ATOM     20  N   UNL     1      47.256   8.519  14.590  0.00  0.00    +0.000 N 
ATOM     21  C   UNL     1      47.442   7.983  13.344  0.00  0.00    +0.000 C 
ATOM     22  O   UNL     1      48.509   8.025  12.740  0.00  0.00    +0.000 OA
ATOM     23  H   UNL     1      46.324   8.544  14.980  0.00  0.00    +0.000 HD
BRANCH  21  24
ATOM     24  C   UNL     1      46.278   7.269  12.813  0.00  0.00    +0.000 A 
ATOM     25  C   UNL     1      45.260   7.951  12.167  0.00  0.00    +0.000 A 
ATOM     26  S   UNL     1      44.061   6.920  11.518  0.00  0.00    +0.000 S 
ATOM     27  C   UNL     1      44.846   5.532  12.122  0.00  0.00    +0.000 A 
ATOM     28  N   UNL     1      44.355   4.284  11.891  0.00  0.00    +0.000 NA
ATOM     29  C   UNL     1      45.043   3.331  12.425  0.00  0.00    +0.000 A 
ATOM     30  N   UNL     1      46.171   3.513  13.186  0.00  0.00    +0.000 N 
ATOM     31  C   UNL     1      46.710   4.748  13.432  0.00  0.00    +0.000 A 
ATOM     32  O   UNL     1      47.744   4.865  14.080  0.00  0.00    +0.000 OA
ATOM     33  C   UNL     1      45.987   5.853  12.827  0.00  0.00    +0.000 A 
ATOM     34  H   UNL     1      46.667   2.726  13.581  0.00  0.00    +0.000 HD
ENDBRANCH  21  24
ENDBRANCH  19  20
ENDBRANCH   4  19
TORSDOF 8
ENDMDL
