MODEL 1
REMARK VINA RESULT:    -7.619      0.000      0.000
REMARK INTER + INTRA:         -10.535
REMARK INTER:                 -10.069
REMARK INTRA:                  -0.466
REMARK UNBOUND:                -0.466
REMARK  Name = 
REMARK  7 active torsions:
REMARK  status: ('A' for Active; 'I' for Inactive)
REMARK    1  A    between atoms: N_1  and  C_2
REMARK    2  A    between atoms: C_2  and  C_3
REMARK    3  A    between atoms: C_6  and  O_7
REMARK    4  A    between atoms: O_7  and  C_8
REMARK    5  A    between atoms: C_8  and  C_9
REMARK    6  A    between atoms: C_9  and  O_10
REMARK    7  A    between atoms: C_13  and  O_14
REMARK                            x       y       z     vdW  Elec       q    Type
REMARK                         _______ _______ _______ _____ _____    ______ ____
ROOT
ATOM      1  O   UNL     1      43.786   4.566   9.499  0.00  0.00    +0.000 OA
ENDROOT
BRANCH   1   5
ATOM      2  C   UNL     1      46.607   2.087   7.658  0.00  0.00    +0.000 A 
ATOM      3  C   UNL     1      46.621   3.461   7.375  0.00  0.00    +0.000 A 
ATOM      4  C   UNL     1      45.704   4.331   7.975  0.00  0.00    +0.000 A 
ATOM      5  C   UNL     1      44.753   3.838   8.865  0.00  0.00    +0.000 A 
ATOM      6  C   UNL     1      44.745   2.475   9.166  0.00  0.00    +0.000 A 
ATOM      7  C   UNL     1      45.661   1.604   8.569  0.00  0.00    +0.000 A 
BRANCH   2   8
ATOM      8  C   UNL     1      47.558   1.143   6.966  0.00  0.00    +0.000 C 
BRANCH   8   9
ATOM      9  N   UNL     1      48.343   1.815   5.938  0.00  0.00    +0.000 NA
ATOM     10  H   UNL     1      47.878   1.701   5.039  0.00  0.00    +0.000 HD
ATOM     11  H   UNL     1      49.243   1.345   5.855  0.00  0.00    +0.000 HD
ENDBRANCH   8   9
ENDBRANCH   2   8
ENDBRANCH   1   5
BRANCH   1  12
ATOM     12  C   UNL     1      43.487   4.239  10.865  0.00  0.00    +0.000 C 
BRANCH  12  13
ATOM     13  C   UNL     1      43.547   5.552  11.686  0.00  0.00    +0.000 C 
ATOM     14  C   UNL     1      44.565   6.559  11.119  0.00  0.00    +0.000 C 
ATOM     15  C   UNL     1      46.013   6.132  11.359  0.00  0.00    +0.000 C 
ATOM     16  C   UNL     1      46.299   5.847  12.833  0.00  0.00    +0.000 C 
ATOM     17  C   UNL     1      45.281   4.895  13.462  0.00  0.00    +0.000 C 
ATOM     18  C   UNL     1      43.834   5.292  13.173  0.00  0.00    +0.000 C 
BRANCH  13  19
ATOM     19  O   UNL     1      42.253   6.173  11.617  0.00  0.00    +0.000 OA
ATOM     20  H   UNL     1      42.415   7.132  11.522  0.00  0.00    +0.000 HD
ENDBRANCH  13  19
BRANCH  16  21
ATOM     21  O   UNL     1      46.337   7.072  13.566  0.00  0.00    +0.000 OA
ATOM     22  H   UNL     1      46.835   6.932  14.388  0.00  0.00    +0.000 HD
ENDBRANCH  16  21
ENDBRANCH  12  13
ENDBRANCH   1  12
TORSDOF 7
ENDMDL
MODEL 2
REMARK VINA RESULT:    -5.752      4.933      7.503
REMARK INTER + INTRA:          -8.068
REMARK INTER:                  -7.707
REMARK INTRA:                  -0.361
REMARK UNBOUND:                -0.466
REMARK  Name = 
REMARK  7 active torsions:
REMARK  status: ('A' for Active; 'I' for Inactive)
REMARK    1  A    between atoms: N_1  and  C_2
REMARK    2  A    between atoms: C_2  and  C_3
REMARK    3  A    between atoms: C_6  and  O_7
REMARK    4  A    between atoms: O_7  and  C_8
REMARK    5  A    between atoms: C_8  and  C_9
REMARK    6  A    between atoms: C_9  and  O_10
REMARK    7  A    between atoms: C_13  and  O_14
REMARK                            x       y       z     vdW  Elec       q    Type
REMARK                         _______ _______ _______ _____ _____    ______ ____
ROOT
ATOM      1  O   UNL     1      46.990   3.251  14.283  0.00  0.00    +0.000 OA
ENDROOT
BRANCH   1   5
ATOM      2  C   UNL     1      48.543   4.146  18.062  0.00  0.00    +0.000 A 
ATOM      3  C   UNL     1      48.757   2.868  17.524  0.00  0.00    +0.000 A 
ATOM      4  C   UNL     1      48.266   2.525  16.259  0.00  0.00    +0.000 A 
ATOM      5  C   UNL     1      47.547   3.457  15.513  0.00  0.00    +0.000 A 
ATOM      6  C   UNL     1      47.347   4.737  16.034  0.00  0.00    +0.000 A 
ATOM      7  C   UNL     1      47.837   5.082  17.297  0.00  0.00    +0.000 A 
BRANCH   2   8
ATOM      8  C   UNL     1      49.022   4.493  19.449  0.00  0.00    +0.000 C 
BRANCH   8   9
ATOM      9  N   UNL     1      48.443   3.619  20.462  0.00  0.00    +0.000 NA
ATOM     10  H   UNL     1      48.054   4.191  21.210  0.00  0.00    +0.000 HD
ATOM     11  H   UNL     1      49.189   3.068  20.882  0.00  0.00    +0.000 HD
ENDBRANCH   8   9
ENDBRANCH   2   8
ENDBRANCH   1   5
BRANCH   1  12
ATOM     12  C   UNL     1      46.521   4.398  13.558  0.00  0.00    +0.000 C 
BRANCH  12  13
ATOM     13  C   UNL     1      45.411   3.918  12.587  0.00  0.00    +0.000 C 
ATOM     14  C   UNL     1      45.626   4.421  11.148  0.00  0.00    +0.000 C 
ATOM     15  C   UNL     1      45.355   5.919  11.000  0.00  0.00    +0.000 C 
ATOM     16  C   UNL     1      43.970   6.313  11.510  0.00  0.00    +0.000 C 
ATOM     17  C   UNL     1      43.683   5.788  12.917  0.00  0.00    +0.000 C 
ATOM     18  C   UNL     1      44.007   4.303  13.079  0.00  0.00    +0.000 C 
BRANCH  13  19
ATOM     19  O   UNL     1      45.455   2.482  12.545  0.00  0.00    +0.000 OA
ATOM     20  H   UNL     1      45.544   2.185  13.472  0.00  0.00    +0.000 HD
ENDBRANCH  13  19
BRANCH  16  21
ATOM     21  O   UNL     1      42.969   5.848  10.604  0.00  0.00    +0.000 OA
ATOM     22  H   UNL     1      42.145   6.338  10.766  0.00  0.00    +0.000 HD
ENDBRANCH  16  21
ENDBRANCH  12  13
ENDBRANCH   1  12
TORSDOF 7
ENDMDL
MODEL 3
REMARK VINA RESULT:    -5.721      3.027      5.629
REMARK INTER + INTRA:          -8.027
REMARK INTER:                  -7.635
REMARK INTRA:                  -0.392
REMARK UNBOUND:                -0.466
REMARK  Name = 
REMARK  7 active torsions:
REMARK  status: ('A' for Active; 'I' for Inactive)
REMARK    1  A    between atoms: N_1  and  C_2
REMARK    2  A    between atoms: C_2  and  C_3
REMARK    3  A    between atoms: C_6  and  O_7
REMARK    4  A    between atoms: O_7  and  C_8
REMARK    5  A    between atoms: C_8  and  C_9
REMARK    6  A    between atoms: C_9  and  O_10
REMARK    7  A    between atoms: C_13  and  O_14
REMARK                            x       y       z     vdW  Elec       q    Type
REMARK                         _______ _______ _______ _____ _____    ______ ____
ROOT
ATOM      1  O   UNL     1      45.789   6.033  13.452  0.00  0.00    +0.000 OA
ENDROOT
BRANCH   1   5
ATOM      2  C   UNL     1      49.529   7.600  12.427  0.00  0.00    +0.000 A 
ATOM      3  C   UNL     1      49.301   7.197  13.751  0.00  0.00    +0.000 A 
ATOM      4  C   UNL     1      48.069   6.656  14.139  0.00  0.00    +0.000 A 
ATOM      5  C   UNL     1      47.043   6.516  13.207  0.00  0.00    +0.000 A 
ATOM      6  C   UNL     1      47.270   6.899  11.883  0.00  0.00    +0.000 A 
ATOM      7  C   UNL     1      48.499   7.437  11.493  0.00  0.00    +0.000 A 
BRANCH   2   8
ATOM      8  C   UNL     1      50.836   8.236  12.025  0.00  0.00    +0.000 C 
BRANCH   8   9
ATOM      9  N   UNL     1      51.505   7.489  10.966  0.00  0.00    +0.000 NA
ATOM     10  H   UNL     1      50.835   6.855  10.534  0.00  0.00    +0.000 HD
ATOM     11  H   UNL     1      52.224   6.902  11.386  0.00  0.00    +0.000 HD
ENDBRANCH   8   9
ENDBRANCH   2   8
ENDBRANCH   1   5
BRANCH   1  12
ATOM     12  C   UNL     1      44.735   6.419  12.558  0.00  0.00    +0.000 C 
BRANCH  12  13
ATOM     13  C   UNL     1      43.692   5.272  12.538  0.00  0.00    +0.000 C 
ATOM     14  C   UNL     1      44.279   3.930  13.013  0.00  0.00    +0.000 C 
ATOM     15  C   UNL     1      45.242   3.314  11.997  0.00  0.00    +0.000 C 
ATOM     16  C   UNL     1      44.611   3.168  10.613  0.00  0.00    +0.000 C 
ATOM     17  C   UNL     1      43.962   4.461  10.116  0.00  0.00    +0.000 C 
ATOM     18  C   UNL     1      43.043   5.105  11.155  0.00  0.00    +0.000 C 
BRANCH  13  19
ATOM     19  O   UNL     1      42.638   5.620  13.450  0.00  0.00    +0.000 OA
ATOM     20  H   UNL     1      43.067   5.783  14.313  0.00  0.00    +0.000 HD
ENDBRANCH  13  19
BRANCH  16  21
ATOM     21  O   UNL     1      43.648   2.114  10.627  0.00  0.00    +0.000 OA
ATOM     22  H   UNL     1      43.098   2.201  11.422  0.00  0.00    +0.000 HD
ENDBRANCH  16  21
ENDBRANCH  12  13
ENDBRANCH   1  12
TORSDOF 7
ENDMDL
MODEL 4
REMARK VINA RESULT:    -5.697      2.946      5.860
REMARK INTER + INTRA:          -7.994
REMARK INTER:                  -7.476
REMARK INTRA:                  -0.519
REMARK UNBOUND:                -0.466
REMARK  Name = 
REMARK  7 active torsions:
REMARK  status: ('A' for Active; 'I' for Inactive)
REMARK    1  A    between atoms: N_1  and  C_2
REMARK    2  A    between atoms: C_2  and  C_3
REMARK    3  A    between atoms: C_6  and  O_7
REMARK    4  A    between atoms: O_7  and  C_8
REMARK    5  A    between atoms: C_8  and  C_9
REMARK    6  A    between atoms: C_9  and  O_10
REMARK    7  A    between atoms: C_13  and  O_14
REMARK                            x       y       z     vdW  Elec       q    Type
REMARK                         _______ _______ _______ _____ _____    ______ ____
ROOT
ATOM      1  O   UNL     1      44.645   4.476  12.914  0.00  0.00    +0.000 OA
ENDROOT
BRANCH   1   5
ATOM      2  C   UNL     1      47.710   7.261  13.500  0.00  0.00    +0.000 A 
ATOM      3  C   UNL     1      46.498   7.692  12.939  0.00  0.00    +0.000 A 
ATOM      4  C   UNL     1      45.440   6.799  12.734  0.00  0.00    +0.000 A 
ATOM      5  C   UNL     1      45.581   5.457  13.083  0.00  0.00    +0.000 A 
ATOM      6  C   UNL     1      46.778   5.026  13.659  0.00  0.00    +0.000 A 
ATOM      7  C   UNL     1      47.835   5.916  13.866  0.00  0.00    +0.000 A 
BRANCH   2   8
ATOM      8  C   UNL     1      48.868   8.213  13.666  0.00  0.00    +0.000 C 
BRANCH   8   9
ATOM      9  N   UNL     1      50.153   7.529  13.586  0.00  0.00    +0.000 NA
ATOM     10  H   UNL     1      50.056   6.708  12.991  0.00  0.00    +0.000 HD
ATOM     11  H   UNL     1      50.396   7.182  14.513  0.00  0.00    +0.000 HD
ENDBRANCH   8   9
ENDBRANCH   2   8
ENDBRANCH   1   5
BRANCH   1  12
ATOM     12  C   UNL     1      44.984   3.364  12.071  0.00  0.00    +0.000 C 
BRANCH  12  13
ATOM     13  C   UNL     1      43.972   3.340  10.897  0.00  0.00    +0.000 C 
ATOM     14  C   UNL     1      44.167   2.125   9.973  0.00  0.00    +0.000 C 
ATOM     15  C   UNL     1      45.430   2.230   9.117  0.00  0.00    +0.000 C 
ATOM     16  C   UNL     1      45.484   3.531   8.317  0.00  0.00    +0.000 C 
ATOM     17  C   UNL     1      45.240   4.770   9.181  0.00  0.00    +0.000 C 
ATOM     18  C   UNL     1      44.008   4.640  10.077  0.00  0.00    +0.000 C 
BRANCH  13  19
ATOM     19  O   UNL     1      42.652   3.240  11.456  0.00  0.00    +0.000 OA
ATOM     20  H   UNL     1      42.324   4.157  11.546  0.00  0.00    +0.000 HD
ENDBRANCH  13  19
BRANCH  16  21
ATOM     21  O   UNL     1      44.535   3.486   7.252  0.00  0.00    +0.000 OA
ATOM     22  H   UNL     1      44.259   4.393   7.037  0.00  0.00    +0.000 HD
ENDBRANCH  16  21
ENDBRANCH  12  13
ENDBRANCH   1  12
TORSDOF 7
ENDMDL
MODEL 5
REMARK VINA RESULT:    -5.659      4.505      6.372
REMARK INTER + INTRA:          -7.945
REMARK INTER:                  -7.633
REMARK INTRA:                  -0.313
REMARK UNBOUND:                -0.466
REMARK  Name = 
REMARK  7 active torsions:
REMARK  status: ('A' for Active; 'I' for Inactive)
REMARK    1  A    between atoms: N_1  and  C_2
REMARK    2  A    between atoms: C_2  and  C_3
REMARK    3  A    between atoms: C_6  and  O_7
REMARK    4  A    between atoms: O_7  and  C_8
REMARK    5  A    between atoms: C_8  and  C_9
REMARK    6  A    between atoms: C_9  and  O_10
REMARK    7  A    between atoms: C_13  and  O_14
REMARK                            x       y       z     vdW  Elec       q    Type
REMARK                         _______ _______ _______ _____ _____    ______ ____
ROOT
ATOM      1  O   UNL     1      47.324   3.878  14.629  0.00  0.00    +0.000 OA
ENDROOT
BRANCH   1   5
ATOM      2  C   UNL     1      44.515   4.754  11.657  0.00  0.00    +0.000 A 
ATOM      3  C   UNL     1      45.074   5.808  12.395  0.00  0.00    +0.000 A 
ATOM      4  C   UNL     1      46.026   5.565  13.392  0.00  0.00    +0.000 A 
ATOM      5  C   UNL     1      46.429   4.260  13.670  0.00  0.00    +0.000 A 
ATOM      6  C   UNL     1      45.889   3.209  12.926  0.00  0.00    +0.000 A 
ATOM      7  C   UNL     1      44.940   3.449  11.929  0.00  0.00    +0.000 A 
BRANCH   2   8
ATOM      8  C   UNL     1      43.447   5.014  10.624  0.00  0.00    +0.000 C 
BRANCH   8   9
ATOM      9  N   UNL     1      43.860   4.589   9.292  0.00  0.00    +0.000 NA
ATOM     10  H   UNL     1      43.065   4.161   8.820  0.00  0.00    +0.000 HD
ATOM     11  H   UNL     1      44.563   3.858   9.386  0.00  0.00    +0.000 HD
ENDBRANCH   8   9
ENDBRANCH   2   8
ENDBRANCH   1   5
BRANCH   1  12
ATOM     12  C   UNL     1      47.649   4.824  15.659  0.00  0.00    +0.000 C 
BRANCH  12  13
ATOM     13  C   UNL     1      47.602   4.075  17.016  0.00  0.00    +0.000 C 
ATOM     14  C   UNL     1      47.488   5.032  18.216  0.00  0.00    +0.000 C 
ATOM     15  C   UNL     1      48.782   5.802  18.482  0.00  0.00    +0.000 C 
ATOM     16  C   UNL     1      49.988   4.876  18.641  0.00  0.00    +0.000 C 
ATOM     17  C   UNL     1      50.115   3.866  17.501  0.00  0.00    +0.000 C 
ATOM     18  C   UNL     1      48.806   3.136  17.199  0.00  0.00    +0.000 C 
BRANCH  13  19
ATOM     19  O   UNL     1      46.428   3.246  17.020  0.00  0.00    +0.000 OA
ATOM     20  H   UNL     1      46.101   3.231  16.099  0.00  0.00    +0.000 HD
ENDBRANCH  13  19
BRANCH  16  21
ATOM     21  O   UNL     1      49.913   4.191  19.892  0.00  0.00    +0.000 OA
ATOM     22  H   UNL     1      49.156   3.583  19.873  0.00  0.00    +0.000 HD
ENDBRANCH  16  21
ENDBRANCH  12  13
ENDBRANCH   1  12
TORSDOF 7
ENDMDL
MODEL 6
REMARK VINA RESULT:    -5.440      4.637      7.382
REMARK INTER + INTRA:          -7.655
REMARK INTER:                  -7.269
REMARK INTRA:                  -0.386
REMARK UNBOUND:                -0.466
REMARK  Name = 
REMARK  7 active torsions:
REMARK  status: ('A' for Active; 'I' for Inactive)
REMARK    1  A    between atoms: N_1  and  C_2
REMARK    2  A    between atoms: C_2  and  C_3
REMARK    3  A    between atoms: C_6  and  O_7
REMARK    4  A    between atoms: O_7  and  C_8
REMARK    5  A    between atoms: C_8  and  C_9
REMARK    6  A    between atoms: C_9  and  O_10
REMARK    7  A    between atoms: C_13  and  O_14
REMARK                            x       y       z     vdW  Elec       q    Type
REMARK                         _______ _______ _______ _____ _____    ______ ____
ROOT
ATOM      1  O   UNL     1      46.460   4.243  14.232  0.00  0.00    +0.000 OA
ENDROOT
BRANCH   1   5
ATOM      2  C   UNL     1      48.576   4.565  17.826  0.00  0.00    +0.000 A 
ATOM      3  C   UNL     1      48.723   5.570  16.858  0.00  0.00    +0.000 A 
ATOM      4  C   UNL     1      48.027   5.512  15.644  0.00  0.00    +0.000 A 
ATOM      5  C   UNL     1      47.176   4.441  15.379  0.00  0.00    +0.000 A 
ATOM      6  C   UNL     1      47.011   3.447  16.346  0.00  0.00    +0.000 A 
ATOM      7  C   UNL     1      47.704   3.504  17.558  0.00  0.00    +0.000 A 
BRANCH   2   8
ATOM      8  C   UNL     1      49.372   4.602  19.106  0.00  0.00    +0.000 C 
BRANCH   8   9
ATOM      9  N   UNL     1      48.668   3.951  20.205  0.00  0.00    +0.000 NA
ATOM     10  H   UNL     1      48.774   2.942  20.115  0.00  0.00    +0.000 HD
ATOM     11  H   UNL     1      47.672   4.143  20.114  0.00  0.00    +0.000 HD
ENDBRANCH   8   9
ENDBRANCH   2   8
ENDBRANCH   1   5
BRANCH   1  12
ATOM     12  C   UNL     1      46.685   5.143  13.137  0.00  0.00    +0.000 C 
BRANCH  12  13
ATOM     13  C   UNL     1      45.300   5.560  12.579  0.00  0.00    +0.000 C 
ATOM     14  C   UNL     1      44.362   4.358  12.366  0.00  0.00    +0.000 C 
ATOM     15  C   UNL     1      44.777   3.489  11.178  0.00  0.00    +0.000 C 
ATOM     16  C   UNL     1      44.923   4.296   9.889  0.00  0.00    +0.000 C 
ATOM     17  C   UNL     1      45.802   5.536  10.061  0.00  0.00    +0.000 C 
ATOM     18  C   UNL     1      45.421   6.374  11.281  0.00  0.00    +0.000 C 
BRANCH  13  19
ATOM     19  O   UNL     1      44.676   6.418  13.549  0.00  0.00    +0.000 OA
ATOM     20  H   UNL     1      44.224   7.120  13.041  0.00  0.00    +0.000 HD
ENDBRANCH  13  19
BRANCH  16  21
ATOM     21  O   UNL     1      43.635   4.676   9.406  0.00  0.00    +0.000 OA
ATOM     22  H   UNL     1      43.551   4.399   8.479  0.00  0.00    +0.000 HD
ENDBRANCH  16  21
ENDBRANCH  12  13
ENDBRANCH   1  12
TORSDOF 7
ENDMDL
MODEL 7
REMARK VINA RESULT:    -5.265      2.827      4.732
REMARK INTER + INTRA:          -7.424
REMARK INTER:                  -6.816
REMARK INTRA:                  -0.609
REMARK UNBOUND:                -0.466
REMARK  Name = 
REMARK  7 active torsions:
REMARK  status: ('A' for Active; 'I' for Inactive)
REMARK    1  A    between atoms: N_1  and  C_2
REMARK    2  A    between atoms: C_2  and  C_3
REMARK    3  A    between atoms: C_6  and  O_7
REMARK    4  A    between atoms: O_7  and  C_8
REMARK    5  A    between atoms: C_8  and  C_9
REMARK    6  A    between atoms: C_9  and  O_10
REMARK    7  A    between atoms: C_13  and  O_14
REMARK                            x       y       z     vdW  Elec       q    Type
REMARK                         _______ _______ _______ _____ _____    ______ ____
ROOT
ATOM      1  O   UNL     1      45.291   7.380  13.041  0.00  0.00    +0.000 OA
ENDROOT
BRANCH   1   5
ATOM      2  C   UNL     1      44.637   3.967  10.712  0.00  0.00    +0.000 A 
ATOM      3  C   UNL     1      44.255   3.953  12.062  0.00  0.00    +0.000 A 
ATOM      4  C   UNL     1      44.444   5.074  12.878  0.00  0.00    +0.000 A 
ATOM      5  C   UNL     1      45.024   6.228  12.356  0.00  0.00    +0.000 A 
ATOM      6  C   UNL     1      45.389   6.256  11.008  0.00  0.00    +0.000 A 
ATOM      7  C   UNL     1      45.200   5.138  10.191  0.00  0.00    +0.000 A 
BRANCH   2   8
ATOM      8  C   UNL     1      44.486   2.738   9.851  0.00  0.00    +0.000 C 
BRANCH   8   9
ATOM      9  N   UNL     1      44.400   3.071   8.434  0.00  0.00    +0.000 NA
ATOM     10  H   UNL     1      45.317   3.371   8.108  0.00  0.00    +0.000 HD
ATOM     11  H   UNL     1      43.781   3.873   8.325  0.00  0.00    +0.000 HD
ENDBRANCH   8   9
ENDBRANCH   2   8
ENDBRANCH   1   5
BRANCH   1  12
ATOM     12  C   UNL     1      46.167   8.338  12.427  0.00  0.00    +0.000 C 
BRANCH  12  13
ATOM     13  C   UNL     1      47.374   8.546  13.377  0.00  0.00    +0.000 C 
ATOM     14  C   UNL     1      48.405   9.541  12.814  0.00  0.00    +0.000 C 
ATOM     15  C   UNL     1      49.200   8.967  11.640  0.00  0.00    +0.000 C 
ATOM     16  C   UNL     1      49.865   7.635  11.984  0.00  0.00    +0.000 C 
ATOM     17  C   UNL     1      48.894   6.628  12.601  0.00  0.00    +0.000 C 
ATOM     18  C   UNL     1      48.061   7.220  13.738  0.00  0.00    +0.000 C 
BRANCH  13  19
ATOM     19  O   UNL     1      46.876   9.102  14.605  0.00  0.00    +0.000 OA
ATOM     20  H   UNL     1      45.910   8.954  14.599  0.00  0.00    +0.000 HD
ENDBRANCH  13  19
BRANCH  16  21
ATOM     21  O   UNL     1      50.964   7.856  12.868  0.00  0.00    +0.000 OA
ATOM     22  H   UNL     1      51.318   8.747  12.715  0.00  0.00    +0.000 HD
ENDBRANCH  16  21
ENDBRANCH  12  13
ENDBRANCH   1  12
TORSDOF 7
ENDMDL
MODEL 8
REMARK VINA RESULT:    -5.054      4.934      7.136
REMARK INTER + INTRA:          -7.146
REMARK INTER:                  -6.811
REMARK INTRA:                  -0.334
REMARK UNBOUND:                -0.466
REMARK  Name = 
REMARK  7 active torsions:
REMARK  status: ('A' for Active; 'I' for Inactive)
REMARK    1  A    between atoms: N_1  and  C_2
REMARK    2  A    between atoms: C_2  and  C_3
REMARK    3  A    between atoms: C_6  and  O_7
REMARK    4  A    between atoms: O_7  and  C_8
REMARK    5  A    between atoms: C_8  and  C_9
REMARK    6  A    between atoms: C_9  and  O_10
REMARK    7  A    between atoms: C_13  and  O_14
REMARK                            x       y       z     vdW  Elec       q    Type
REMARK                         _______ _______ _______ _____ _____    ______ ____
ROOT
ATOM      1  O   UNL     1      46.912   4.008  15.048  0.00  0.00    +0.000 OA
ENDROOT
BRANCH   1   5
ATOM      2  C   UNL     1      45.356   6.740  12.290  0.00  0.00    +0.000 A 
ATOM      3  C   UNL     1      46.667   6.918  12.757  0.00  0.00    +0.000 A 
ATOM      4  C   UNL     1      47.235   6.023  13.672  0.00  0.00    +0.000 A 
ATOM      5  C   UNL     1      46.495   4.939  14.139  0.00  0.00    +0.000 A 
ATOM      6  C   UNL     1      45.197   4.746  13.664  0.00  0.00    +0.000 A 
ATOM      7  C   UNL     1      44.628   5.637  12.749  0.00  0.00    +0.000 A 
BRANCH   2   8
ATOM      8  C   UNL     1      44.728   7.738  11.350  0.00  0.00    +0.000 C 
BRANCH   8   9
ATOM      9  N   UNL     1      43.346   7.395  11.033  0.00  0.00    +0.000 NA
ATOM     10  H   UNL     1      43.330   6.844  10.177  0.00  0.00    +0.000 HD
ATOM     11  H   UNL     1      42.836   8.253  10.831  0.00  0.00    +0.000 HD
ENDBRANCH   8   9
ENDBRANCH   2   8
ENDBRANCH   1   5
BRANCH   1  12
ATOM     12  C   UNL     1      47.545   4.479  16.248  0.00  0.00    +0.000 C 
BRANCH  12  13
ATOM     13  C   UNL     1      47.734   3.261  17.188  0.00  0.00    +0.000 C 
ATOM     14  C   UNL     1      48.609   3.588  18.411  0.00  0.00    +0.000 C 
ATOM     15  C   UNL     1      50.085   3.765  18.052  0.00  0.00    +0.000 C 
ATOM     16  C   UNL     1      50.647   2.566  17.291  0.00  0.00    +0.000 C 
ATOM     17  C   UNL     1      49.782   2.163  16.095  0.00  0.00    +0.000 C 
ATOM     18  C   UNL     1      48.299   2.040  16.444  0.00  0.00    +0.000 C 
BRANCH  13  19
ATOM     19  O   UNL     1      46.439   2.881  17.681  0.00  0.00    +0.000 OA
ATOM     20  H   UNL     1      46.076   2.246  17.033  0.00  0.00    +0.000 HD
ENDBRANCH  13  19
BRANCH  16  21
ATOM     21  O   UNL     1      50.799   1.456  18.177  0.00  0.00    +0.000 OA
ATOM     22  H   UNL     1      50.189   1.565  18.925  0.00  0.00    +0.000 HD
ENDBRANCH  16  21
ENDBRANCH  12  13
ENDBRANCH   1  12
TORSDOF 7
ENDMDL
MODEL 9
REMARK VINA RESULT:    -4.983      3.860      6.323
REMARK INTER + INTRA:          -7.051
REMARK INTER:                  -6.733
REMARK INTRA:                  -0.319
REMARK UNBOUND:                -0.466
REMARK  Name = 
REMARK  7 active torsions:
REMARK  status: ('A' for Active; 'I' for Inactive)
REMARK    1  A    between atoms: N_1  and  C_2
REMARK    2  A    between atoms: C_2  and  C_3
REMARK    3  A    between atoms: C_6  and  O_7
REMARK    4  A    between atoms: O_7  and  C_8
REMARK    5  A    between atoms: C_8  and  C_9
REMARK    6  A    between atoms: C_9  and  O_10
REMARK    7  A    between atoms: C_13  and  O_14
REMARK                            x       y       z     vdW  Elec       q    Type
REMARK                         _______ _______ _______ _____ _____    ______ ____
ROOT
ATOM      1  O   UNL     1      46.096   6.732  11.568  0.00  0.00    +0.000 OA
ENDROOT
BRANCH   1   5
ATOM      2  C   UNL     1      48.865   9.729  12.488  0.00  0.00    +0.000 A 
ATOM      3  C   UNL     1      49.333   8.490  12.022  0.00  0.00    +0.000 A 
ATOM      4  C   UNL     1      48.444   7.461  11.691  0.00  0.00    +0.000 A 
ATOM      5  C   UNL     1      47.071   7.654  11.827  0.00  0.00    +0.000 A 
ATOM      6  C   UNL     1      46.598   8.890  12.272  0.00  0.00    +0.000 A 
ATOM      7  C   UNL     1      47.483   9.920  12.601  0.00  0.00    +0.000 A 
BRANCH   2   8
ATOM      8  C   UNL     1      49.827  10.815  12.899  0.00  0.00    +0.000 C 
BRANCH   8   9
ATOM      9  N   UNL     1      50.911  10.978  11.937  0.00  0.00    +0.000 NA
ATOM     10  H   UNL     1      50.810  10.279  11.203  0.00  0.00    +0.000 HD
ATOM     11  H   UNL     1      51.794  10.778  12.404  0.00  0.00    +0.000 HD
ENDBRANCH   8   9
ENDBRANCH   2   8
ENDBRANCH   1   5
BRANCH   1  12
ATOM     12  C   UNL     1      44.998   6.640  12.488  0.00  0.00    +0.000 C 
BRANCH  12  13
ATOM     13  C   UNL     1      43.808   5.992  11.736  0.00  0.00    +0.000 C 
ATOM     14  C   UNL     1      42.827   5.277  12.683  0.00  0.00    +0.000 C 
ATOM     15  C   UNL     1      43.401   3.981  13.258  0.00  0.00    +0.000 C 
ATOM     16  C   UNL     1      43.892   3.029  12.168  0.00  0.00    +0.000 C 
ATOM     17  C   UNL     1      44.827   3.705  11.165  0.00  0.00    +0.000 C 
ATOM     18  C   UNL     1      44.276   5.029  10.633  0.00  0.00    +0.000 C 
BRANCH  13  19
ATOM     19  O   UNL     1      43.076   7.043  11.083  0.00  0.00    +0.000 OA
ATOM     20  H   UNL     1      42.176   7.025  11.463  0.00  0.00    +0.000 HD
ENDBRANCH  13  19
BRANCH  16  21
ATOM     21  O   UNL     1      42.777   2.456  11.484  0.00  0.00    +0.000 OA
ATOM     22  H   UNL     1      43.090   2.035  10.667  0.00  0.00    +0.000 HD
ENDBRANCH  16  21
ENDBRANCH  12  13
ENDBRANCH   1  12
TORSDOF 7
ENDMDL
