MODEL 1
REMARK VINA RESULT:    -7.491      0.000      0.000
REMARK INTER + INTRA:         -10.519
REMARK INTER:                  -9.680
REMARK INTRA:                  -0.838
REMARK UNBOUND:                -0.838
REMARK  Name = 
REMARK  6 active torsions:
REMARK  status: ('A' for Active; 'I' for Inactive)
REMARK    1  A    between atoms: C_1  and  C_2
REMARK    2  A    between atoms: C_2  and  C_3
REMARK    3  A    between atoms: C_2  and  C_14
REMARK    4  A    between atoms: C_3  and  N_4
REMARK    5  A    between atoms: N_4  and  C_5
REMARK    6  A    between atoms: C_8  and  C_9
REMARK                            x       y       z     vdW  Elec       q    Type
REMARK                         _______ _______ _______ _____ _____    ______ ____
ROOT
ATOM      1  N   UNL     1      43.643   3.211  10.418  0.00  0.00    +0.000 N 
ATOM      2  H   UNL     1      43.084   4.036  10.207  0.00  0.00    +0.000 HD
ENDROOT
BRANCH   1   3
ATOM      3  C   UNL     1      44.643   3.014   9.455  0.00  0.00    +0.000 A 
ATOM      4  C   UNL     1      45.026   4.079   8.633  0.00  0.00    +0.000 A 
ATOM      5  C   UNL     1      45.989   3.897   7.640  0.00  0.00    +0.000 A 
ATOM      6  C   UNL     1      46.521   2.627   7.472  0.00  0.00    +0.000 A 
ATOM      7  N   UNL     1      46.143   1.546   8.202  0.00  0.00    +0.000 NA
ATOM      8  C   UNL     1      45.205   1.771   9.150  0.00  0.00    +0.000 A 
BRANCH   6   9
ATOM      9  C   UNL     1      47.574   2.387   6.435  0.00  0.00    +0.000 C 
ATOM     10  N   UNL     1      47.457   3.146   5.301  0.00  0.00    +0.000 N 
ATOM     11  O   UNL     1      48.472   1.569   6.578  0.00  0.00    +0.000 OA
ATOM     12  H   UNL     1      46.696   3.813   5.228  0.00  0.00    +0.000 HD
ATOM     13  H   UNL     1      48.129   3.041   4.557  0.00  0.00    +0.000 HD
ENDBRANCH   6   9
ENDBRANCH   1   3
BRANCH   1  14
ATOM     14  C   UNL     1      44.063   3.210  11.819  0.00  0.00    +0.000 C 
BRANCH  14  16
ATOM     15  C   UNL     1      42.787   5.427  12.071  0.00  0.00    +0.000 C 
ATOM     16  C   UNL     1      44.030   4.627  12.304  0.00  0.00    +0.000 C 
BRANCH  16  17
ATOM     17  C   UNL     1      45.313   5.311  12.514  0.00  0.00    +0.000 A 
ATOM     18  C   UNL     1      46.109   5.020  13.627  0.00  0.00    +0.000 A 
ATOM     19  C   UNL     1      47.375   5.599  13.759  0.00  0.00    +0.000 A 
ATOM     20  C   UNL     1      47.850   6.468  12.779  0.00  0.00    +0.000 A 
ATOM     21  C   UNL     1      47.053   6.784  11.683  0.00  0.00    +0.000 A 
ATOM     22  C   UNL     1      45.785   6.217  11.557  0.00  0.00    +0.000 A 
ENDBRANCH  16  17
ENDBRANCH  14  16
ENDBRANCH   1  14
TORSDOF 5
ENDMDL
MODEL 2
REMARK VINA RESULT:    -7.338      1.497      1.983
REMARK INTER + INTRA:         -10.321
REMARK INTER:                  -9.746
REMARK INTRA:                  -0.575
REMARK UNBOUND:                -0.838
REMARK  Name = 
REMARK  6 active torsions:
REMARK  status: ('A' for Active; 'I' for Inactive)
REMARK    1  A    between atoms: C_1  and  C_2
REMARK    2  A    between atoms: C_2  and  C_3
REMARK    3  A    between atoms: C_2  and  C_14
REMARK    4  A    between atoms: C_3  and  N_4
REMARK    5  A    between atoms: N_4  and  C_5
REMARK    6  A    between atoms: C_8  and  C_9
REMARK                            x       y       z     vdW  Elec       q    Type
REMARK                         _______ _______ _______ _____ _____    ______ ____
ROOT
ATOM      1  N   UNL     1      43.818   4.902   9.869  0.00  0.00    +0.000 N 
ATOM      2  H   UNL     1      44.032   5.840   9.533  0.00  0.00    +0.000 HD
ENDROOT
BRANCH   1   3
ATOM      3  C   UNL     1      44.646   3.944   9.266  0.00  0.00    +0.000 A 
ATOM      4  C   UNL     1      45.612   4.354   8.340  0.00  0.00    +0.000 A 
ATOM      5  C   UNL     1      46.420   3.417   7.697  0.00  0.00    +0.000 A 
ATOM      6  C   UNL     1      46.209   2.074   7.974  0.00  0.00    +0.000 A 
ATOM      7  N   UNL     1      45.250   1.618   8.819  0.00  0.00    +0.000 NA
ATOM      8  C   UNL     1      44.489   2.564   9.417  0.00  0.00    +0.000 A 
BRANCH   6   9
ATOM      9  C   UNL     1      47.067   1.032   7.326  0.00  0.00    +0.000 C 
ATOM     10  N   UNL     1      46.780  -0.259   7.681  0.00  0.00    +0.000 N 
ATOM     11  O   UNL     1      47.967   1.305   6.543  0.00  0.00    +0.000 OA
ATOM     12  H   UNL     1      46.024  -0.438   8.332  0.00  0.00    +0.000 HD
ATOM     13  H   UNL     1      47.316  -1.018   7.285  0.00  0.00    +0.000 HD
ENDBRANCH   6   9
ENDBRANCH   1   3
BRANCH   1  14
ATOM     14  C   UNL     1      43.731   4.877  11.329  0.00  0.00    +0.000 C 
BRANCH  14  16
ATOM     15  C   UNL     1      45.643   3.802  12.667  0.00  0.00    +0.000 C 
ATOM     16  C   UNL     1      45.126   4.956  11.868  0.00  0.00    +0.000 C 
BRANCH  16  17
ATOM     17  C   UNL     1      45.724   6.288  12.033  0.00  0.00    +0.000 A 
ATOM     18  C   UNL     1      47.112   6.450  12.098  0.00  0.00    +0.000 A 
ATOM     19  C   UNL     1      47.671   7.730  12.147  0.00  0.00    +0.000 A 
ATOM     20  C   UNL     1      46.846   8.852  12.129  0.00  0.00    +0.000 A 
ATOM     21  C   UNL     1      45.463   8.699  12.092  0.00  0.00    +0.000 A 
ATOM     22  C   UNL     1      44.904   7.422  12.056  0.00  0.00    +0.000 A 
ENDBRANCH  16  17
ENDBRANCH  14  16
ENDBRANCH   1  14
TORSDOF 5
ENDMDL
MODEL 3
REMARK VINA RESULT:    -6.978      3.111      6.398
REMARK INTER + INTRA:          -9.855
REMARK INTER:                  -9.354
REMARK INTRA:                  -0.501
REMARK UNBOUND:                -0.838
REMARK  Name = 
REMARK  6 active torsions:
REMARK  status: ('A' for Active; 'I' for Inactive)
REMARK    1  A    between atoms: C_1  and  C_2
REMARK    2  A    between atoms: C_2  and  C_3
REMARK    3  A    between atoms: C_2  and  C_14
REMARK    4  A    between atoms: C_3  and  N_4
REMARK    5  A    between atoms: N_4  and  C_5
REMARK    6  A    between atoms: C_8  and  C_9
REMARK                            x       y       z     vdW  Elec       q    Type
REMARK                         _______ _______ _______ _____ _____    ______ ____
ROOT
ATOM      1  N   UNL     1      44.275   5.119  10.785  0.00  0.00    +0.000 N 
ATOM      2  H   UNL     1      43.663   4.376  11.120  0.00  0.00    +0.000 HD
ENDROOT
BRANCH   1   3
ATOM      3  C   UNL     1      45.261   5.431  11.732  0.00  0.00    +0.000 A 
ATOM      4  C   UNL     1      46.281   6.327  11.392  0.00  0.00    +0.000 A 
ATOM      5  C   UNL     1      47.296   6.623  12.302  0.00  0.00    +0.000 A 
ATOM      6  C   UNL     1      47.283   5.974  13.528  0.00  0.00    +0.000 A 
ATOM      7  N   UNL     1      46.352   5.053  13.886  0.00  0.00    +0.000 NA
ATOM      8  C   UNL     1      45.389   4.798  12.971  0.00  0.00    +0.000 A 
BRANCH   6   9
ATOM      9  C   UNL     1      48.338   6.275  14.546  0.00  0.00    +0.000 C 
ATOM     10  N   UNL     1      47.992   5.997  15.842  0.00  0.00    +0.000 N 
ATOM     11  O   UNL     1      49.429   6.744  14.253  0.00  0.00    +0.000 OA
ATOM     12  H   UNL     1      47.076   5.607  16.037  0.00  0.00    +0.000 HD
ATOM     13  H   UNL     1      48.651   6.173  16.585  0.00  0.00    +0.000 HD
ENDBRANCH   6   9
ENDBRANCH   1   3
BRANCH   1  14
ATOM     14  C   UNL     1      44.729   4.846   9.422  0.00  0.00    +0.000 C 
BRANCH  14  16
ATOM     15  C   UNL     1      44.108   2.514  10.307  0.00  0.00    +0.000 C 
ATOM     16  C   UNL     1      44.671   3.364   9.212  0.00  0.00    +0.000 C 
BRANCH  16  17
ATOM     17  C   UNL     1      45.585   2.775   8.223  0.00  0.00    +0.000 A 
ATOM     18  C   UNL     1      46.114   3.547   7.183  0.00  0.00    +0.000 A 
ATOM     19  C   UNL     1      47.063   3.003   6.314  0.00  0.00    +0.000 A 
ATOM     20  C   UNL     1      47.489   1.687   6.481  0.00  0.00    +0.000 A 
ATOM     21  C   UNL     1      46.948   0.904   7.496  0.00  0.00    +0.000 A 
ATOM     22  C   UNL     1      45.991   1.442   8.356  0.00  0.00    +0.000 A 
ENDBRANCH  16  17
ENDBRANCH  14  16
ENDBRANCH   1  14
TORSDOF 5
ENDMDL
MODEL 4
REMARK VINA RESULT:    -6.896      3.346      5.727
REMARK INTER + INTRA:          -9.751
REMARK INTER:                  -8.938
REMARK INTRA:                  -0.812
REMARK UNBOUND:                -0.838
REMARK  Name = 
REMARK  6 active torsions:
REMARK  status: ('A' for Active; 'I' for Inactive)
REMARK    1  A    between atoms: C_1  and  C_2
REMARK    2  A    between atoms: C_2  and  C_3
REMARK    3  A    between atoms: C_2  and  C_14
REMARK    4  A    between atoms: C_3  and  N_4
REMARK    5  A    between atoms: N_4  and  C_5
REMARK    6  A    between atoms: C_8  and  C_9
REMARK                            x       y       z     vdW  Elec       q    Type
REMARK                         _______ _______ _______ _____ _____    ______ ____
ROOT
ATOM      1  N   UNL     1      43.791   5.482  12.204  0.00  0.00    +0.000 N 
ATOM      2  H   UNL     1      43.495   4.729  12.823  0.00  0.00    +0.000 HD
ENDROOT
BRANCH   1   3
ATOM      3  C   UNL     1      45.117   5.858  12.459  0.00  0.00    +0.000 A 
ATOM      4  C   UNL     1      45.686   6.909  11.731  0.00  0.00    +0.000 A 
ATOM      5  C   UNL     1      47.016   7.276  11.937  0.00  0.00    +0.000 A 
ATOM      6  C   UNL     1      47.760   6.544  12.851  0.00  0.00    +0.000 A 
ATOM      7  N   UNL     1      47.277   5.480  13.541  0.00  0.00    +0.000 NA
ATOM      8  C   UNL     1      45.983   5.161  13.306  0.00  0.00    +0.000 A 
BRANCH   6   9
ATOM      9  C   UNL     1      49.185   6.914  13.123  0.00  0.00    +0.000 C 
ATOM     10  N   UNL     1      49.935   7.195  12.012  0.00  0.00    +0.000 N 
ATOM     11  O   UNL     1      49.656   6.957  14.251  0.00  0.00    +0.000 OA
ATOM     12  H   UNL     1      49.501   7.148  11.097  0.00  0.00    +0.000 HD
ATOM     13  H   UNL     1      50.905   7.452  12.115  0.00  0.00    +0.000 HD
ENDBRANCH   6   9
ENDBRANCH   1   3
BRANCH   1  14
ATOM     14  C   UNL     1      43.443   5.184  10.815  0.00  0.00    +0.000 C 
BRANCH  14  16
ATOM     15  C   UNL     1      43.448   2.780  11.724  0.00  0.00    +0.000 C 
ATOM     16  C   UNL     1      43.689   3.724  10.589  0.00  0.00    +0.000 C 
BRANCH  16  17
ATOM     17  C   UNL     1      44.597   3.343   9.498  0.00  0.00    +0.000 A 
ATOM     18  C   UNL     1      45.183   4.313   8.678  0.00  0.00    +0.000 A 
ATOM     19  C   UNL     1      46.126   3.945   7.714  0.00  0.00    +0.000 A 
ATOM     20  C   UNL     1      46.488   2.607   7.568  0.00  0.00    +0.000 A 
ATOM     21  C   UNL     1      45.890   1.633   8.361  0.00  0.00    +0.000 A 
ATOM     22  C   UNL     1      44.939   1.998   9.314  0.00  0.00    +0.000 A 
ENDBRANCH  16  17
ENDBRANCH  14  16
ENDBRANCH   1  14
TORSDOF 5
ENDMDL
MODEL 5
REMARK VINA RESULT:    -6.243      3.550      6.370
REMARK INTER + INTRA:          -8.907
REMARK INTER:                  -8.622
REMARK INTRA:                  -0.285
REMARK UNBOUND:                -0.838
REMARK  Name = 
REMARK  6 active torsions:
REMARK  status: ('A' for Active; 'I' for Inactive)
REMARK    1  A    between atoms: C_1  and  C_2
REMARK    2  A    between atoms: C_2  and  C_3
REMARK    3  A    between atoms: C_2  and  C_14
REMARK    4  A    between atoms: C_3  and  N_4
REMARK    5  A    between atoms: N_4  and  C_5
REMARK    6  A    between atoms: C_8  and  C_9
REMARK                            x       y       z     vdW  Elec       q    Type
REMARK                         _______ _______ _______ _____ _____    ______ ____
ROOT
ATOM      1  N   UNL     1      46.336   5.778  11.719  0.00  0.00    +0.000 N 
ATOM      2  H   UNL     1      46.982   6.527  11.477  0.00  0.00    +0.000 HD
ENDROOT
BRANCH   1   3
ATOM      3  C   UNL     1      46.697   5.164  12.927  0.00  0.00    +0.000 A 
ATOM      4  C   UNL     1      47.221   5.943  13.965  0.00  0.00    +0.000 A 
ATOM      5  C   UNL     1      47.626   5.351  15.161  0.00  0.00    +0.000 A 
ATOM      6  C   UNL     1      47.530   3.971  15.270  0.00  0.00    +0.000 A 
ATOM      7  N   UNL     1      47.085   3.162  14.275  0.00  0.00    +0.000 NA
ATOM      8  C   UNL     1      46.706   3.782  13.134  0.00  0.00    +0.000 A 
BRANCH   6   9
ATOM      9  C   UNL     1      47.931   3.291  16.543  0.00  0.00    +0.000 C 
ATOM     10  N   UNL     1      46.918   3.103  17.445  0.00  0.00    +0.000 N 
ATOM     11  O   UNL     1      49.079   2.935  16.773  0.00  0.00    +0.000 OA
ATOM     12  H   UNL     1      45.981   3.414  17.210  0.00  0.00    +0.000 HD
ATOM     13  H   UNL     1      47.110   2.652  18.327  0.00  0.00    +0.000 HD
ENDBRANCH   6   9
ENDBRANCH   1   3
BRANCH   1  14
ATOM     14  C   UNL     1      44.948   6.223  11.592  0.00  0.00    +0.000 C 
BRANCH  14  16
ATOM     15  C   UNL     1      43.021   4.544  11.865  0.00  0.00    +0.000 C 
ATOM     16  C   UNL     1      44.153   5.078  11.045  0.00  0.00    +0.000 C 
BRANCH  16  17
ATOM     17  C   UNL     1      44.785   4.227  10.027  0.00  0.00    +0.000 A 
ATOM     18  C   UNL     1      44.689   2.832  10.094  0.00  0.00    +0.000 A 
ATOM     19  C   UNL     1      45.202   2.040   9.064  0.00  0.00    +0.000 A 
ATOM     20  C   UNL     1      45.812   2.637   7.962  0.00  0.00    +0.000 A 
ATOM     21  C   UNL     1      45.936   4.022   7.901  0.00  0.00    +0.000 A 
ATOM     22  C   UNL     1      45.435   4.813   8.934  0.00  0.00    +0.000 A 
ENDBRANCH  16  17
ENDBRANCH  14  16
ENDBRANCH   1  14
TORSDOF 5
ENDMDL
MODEL 6
REMARK VINA RESULT:    -5.811      4.143      6.986
REMARK INTER + INTRA:          -8.348
REMARK INTER:                  -7.881
REMARK INTRA:                  -0.467
REMARK UNBOUND:                -0.838
REMARK  Name = 
REMARK  6 active torsions:
REMARK  status: ('A' for Active; 'I' for Inactive)
REMARK    1  A    between atoms: C_1  and  C_2
REMARK    2  A    between atoms: C_2  and  C_3
REMARK    3  A    between atoms: C_2  and  C_14
REMARK    4  A    between atoms: C_3  and  N_4
REMARK    5  A    between atoms: N_4  and  C_5
REMARK    6  A    between atoms: C_8  and  C_9
REMARK                            x       y       z     vdW  Elec       q    Type
REMARK                         _______ _______ _______ _____ _____    ______ ____
ROOT
ATOM      1  N   UNL     1      45.932   4.637  12.606  0.00  0.00    +0.000 N 
ATOM      2  H   UNL     1      46.366   3.858  12.114  0.00  0.00    +0.000 HD
ENDROOT
BRANCH   1   3
ATOM      3  C   UNL     1      46.775   5.141  13.607  0.00  0.00    +0.000 A 
ATOM      4  C   UNL     1      47.498   6.315  13.371  0.00  0.00    +0.000 A 
ATOM      5  C   UNL     1      48.374   6.814  14.334  0.00  0.00    +0.000 A 
ATOM      6  C   UNL     1      48.533   6.091  15.508  0.00  0.00    +0.000 A 
ATOM      7  N   UNL     1      47.902   4.918  15.764  0.00  0.00    +0.000 NA
ATOM      8  C   UNL     1      47.065   4.473  14.799  0.00  0.00    +0.000 A 
BRANCH   6   9
ATOM      9  C   UNL     1      49.445   6.599  16.582  0.00  0.00    +0.000 C 
ATOM     10  N   UNL     1      49.571   7.961  16.641  0.00  0.00    +0.000 N 
ATOM     11  O   UNL     1      50.044   5.858  17.349  0.00  0.00    +0.000 OA
ATOM     12  H   UNL     1      49.053   8.535  15.985  0.00  0.00    +0.000 HD
ATOM     13  H   UNL     1      50.169   8.379  17.339  0.00  0.00    +0.000 HD
ENDBRANCH   6   9
ENDBRANCH   1   3
BRANCH   1  14
ATOM     14  C   UNL     1      45.374   5.605  11.662  0.00  0.00    +0.000 C 
BRANCH  14  16
ATOM     15  C   UNL     1      43.046   4.573  11.318  0.00  0.00    +0.000 C 
ATOM     16  C   UNL     1      44.409   4.874  10.780  0.00  0.00    +0.000 C 
BRANCH  16  17
ATOM     17  C   UNL     1      44.957   4.068   9.681  0.00  0.00    +0.000 A 
ATOM     18  C   UNL     1      45.662   4.667   8.632  0.00  0.00    +0.000 A 
ATOM     19  C   UNL     1      46.270   3.880   7.650  0.00  0.00    +0.000 A 
ATOM     20  C   UNL     1      46.178   2.491   7.715  0.00  0.00    +0.000 A 
ATOM     21  C   UNL     1      45.456   1.888   8.740  0.00  0.00    +0.000 A 
ATOM     22  C   UNL     1      44.839   2.674   9.713  0.00  0.00    +0.000 A 
ENDBRANCH  16  17
ENDBRANCH  14  16
ENDBRANCH   1  14
TORSDOF 5
ENDMDL
MODEL 7
REMARK VINA RESULT:    -5.735      3.954      6.106
REMARK INTER + INTRA:          -8.249
REMARK INTER:                  -7.552
REMARK INTRA:                  -0.697
REMARK UNBOUND:                -0.838
REMARK  Name = 
REMARK  6 active torsions:
REMARK  status: ('A' for Active; 'I' for Inactive)
REMARK    1  A    between atoms: C_1  and  C_2
REMARK    2  A    between atoms: C_2  and  C_3
REMARK    3  A    between atoms: C_2  and  C_14
REMARK    4  A    between atoms: C_3  and  N_4
REMARK    5  A    between atoms: N_4  and  C_5
REMARK    6  A    between atoms: C_8  and  C_9
REMARK                            x       y       z     vdW  Elec       q    Type
REMARK                         _______ _______ _______ _____ _____    ______ ____
ROOT
ATOM      1  N   UNL     1      45.799   5.710  13.079  0.00  0.00    +0.000 N 
ATOM      2  H   UNL     1      45.917   4.698  13.076  0.00  0.00    +0.000 HD
ENDROOT
BRANCH   1   3
ATOM      3  C   UNL     1      47.033   6.368  12.986  0.00  0.00    +0.000 A 
ATOM      4  C   UNL     1      47.379   7.015  11.795  0.00  0.00    +0.000 A 
ATOM      5  C   UNL     1      48.618   7.642  11.662  0.00  0.00    +0.000 A 
ATOM      6  C   UNL     1      49.503   7.568  12.729  0.00  0.00    +0.000 A 
ATOM      7  N   UNL     1      49.242   6.905  13.884  0.00  0.00    +0.000 NA
ATOM      8  C   UNL     1      48.029   6.311  13.964  0.00  0.00    +0.000 A 
BRANCH   6   9
ATOM      9  C   UNL     1      50.836   8.245  12.643  0.00  0.00    +0.000 C 
ATOM     10  N   UNL     1      51.687   7.735  11.700  0.00  0.00    +0.000 N 
ATOM     11  O   UNL     1      51.153   9.180  13.366  0.00  0.00    +0.000 OA
ATOM     12  H   UNL     1      51.379   6.960  11.122  0.00  0.00    +0.000 HD
ATOM     13  H   UNL     1      52.604   8.139  11.582  0.00  0.00    +0.000 HD
ENDBRANCH   6   9
ENDBRANCH   1   3
BRANCH   1  14
ATOM     14  C   UNL     1      44.758   6.117  12.135  0.00  0.00    +0.000 C 
BRANCH  14  16
ATOM     15  C   UNL     1      43.210   4.133  12.657  0.00  0.00    +0.000 C 
ATOM     16  C   UNL     1      44.055   4.877  11.673  0.00  0.00    +0.000 C 
BRANCH  16  17
ATOM     17  C   UNL     1      44.591   4.182  10.494  0.00  0.00    +0.000 A 
ATOM     18  C   UNL     1      44.352   2.818  10.293  0.00  0.00    +0.000 A 
ATOM     19  C   UNL     1      44.776   2.194   9.117  0.00  0.00    +0.000 A 
ATOM     20  C   UNL     1      45.438   2.931   8.136  0.00  0.00    +0.000 A 
ATOM     21  C   UNL     1      45.704   4.281   8.341  0.00  0.00    +0.000 A 
ATOM     22  C   UNL     1      45.293   4.901   9.520  0.00  0.00    +0.000 A 
ENDBRANCH  16  17
ENDBRANCH  14  16
ENDBRANCH   1  14
TORSDOF 5
ENDMDL
MODEL 8
REMARK VINA RESULT:    -5.665      3.470      5.650
REMARK INTER + INTRA:          -8.159
REMARK INTER:                  -7.633
REMARK INTRA:                  -0.526
REMARK UNBOUND:                -0.838
REMARK  Name = 
REMARK  6 active torsions:
REMARK  status: ('A' for Active; 'I' for Inactive)
REMARK    1  A    between atoms: C_1  and  C_2
REMARK    2  A    between atoms: C_2  and  C_3
REMARK    3  A    between atoms: C_2  and  C_14
REMARK    4  A    between atoms: C_3  and  N_4
REMARK    5  A    between atoms: N_4  and  C_5
REMARK    6  A    between atoms: C_8  and  C_9
REMARK                            x       y       z     vdW  Elec       q    Type
REMARK                         _______ _______ _______ _____ _____    ______ ____
ROOT
ATOM      1  N   UNL     1      47.174   7.092  13.829  0.00  0.00    +0.000 N 
ATOM      2  H   UNL     1      47.257   8.046  13.483  0.00  0.00    +0.000 HD
ENDROOT
BRANCH   1   3
ATOM      3  C   UNL     1      46.438   6.291  12.946  0.00  0.00    +0.000 A 
ATOM      4  C   UNL     1      46.389   6.628  11.589  0.00  0.00    +0.000 A 
ATOM      5  C   UNL     1      45.630   5.871  10.696  0.00  0.00    +0.000 A 
ATOM      6  C   UNL     1      44.900   4.805  11.203  0.00  0.00    +0.000 A 
ATOM      7  N   UNL     1      44.864   4.469  12.517  0.00  0.00    +0.000 NA
ATOM      8  C   UNL     1      45.614   5.234  13.344  0.00  0.00    +0.000 A 
BRANCH   6   9
ATOM      9  C   UNL     1      44.089   3.949  10.281  0.00  0.00    +0.000 C 
ATOM     10  N   UNL     1      44.114   4.325   8.965  0.00  0.00    +0.000 N 
ATOM     11  O   UNL     1      43.440   2.986  10.668  0.00  0.00    +0.000 OA
ATOM     12  H   UNL     1      44.669   5.129   8.690  0.00  0.00    +0.000 HD
ATOM     13  H   UNL     1      43.592   3.797   8.282  0.00  0.00    +0.000 HD
ENDBRANCH   6   9
ENDBRANCH   1   3
BRANCH   1  14
ATOM     14  C   UNL     1      48.474   6.579  14.261  0.00  0.00    +0.000 C 
BRANCH  14  16
ATOM     15  C   UNL     1      49.000   7.909  16.396  0.00  0.00    +0.000 C 
ATOM     16  C   UNL     1      48.515   6.647  15.757  0.00  0.00    +0.000 C 
BRANCH  16  17
ATOM     17  C   UNL     1      48.570   5.381  16.500  0.00  0.00    +0.000 A 
ATOM     18  C   UNL     1      47.509   4.470  16.449  0.00  0.00    +0.000 A 
ATOM     19  C   UNL     1      47.619   3.224  17.073  0.00  0.00    +0.000 A 
ATOM     20  C   UNL     1      48.789   2.883  17.748  0.00  0.00    +0.000 A 
ATOM     21  C   UNL     1      49.838   3.794  17.827  0.00  0.00    +0.000 A 
ATOM     22  C   UNL     1      49.725   5.042  17.215  0.00  0.00    +0.000 A 
ENDBRANCH  16  17
ENDBRANCH  14  16
ENDBRANCH   1  14
TORSDOF 5
ENDMDL
MODEL 9
REMARK VINA RESULT:    -5.600      3.886      6.314
REMARK INTER + INTRA:          -8.075
REMARK INTER:                  -7.530
REMARK INTRA:                  -0.546
REMARK UNBOUND:                -0.838
REMARK  Name = 
REMARK  6 active torsions:
REMARK  status: ('A' for Active; 'I' for Inactive)
REMARK    1  A    between atoms: C_1  and  C_2
REMARK    2  A    between atoms: C_2  and  C_3
REMARK    3  A    between atoms: C_2  and  C_14
REMARK    4  A    between atoms: C_3  and  N_4
REMARK    5  A    between atoms: N_4  and  C_5
REMARK    6  A    between atoms: C_8  and  C_9
REMARK                            x       y       z     vdW  Elec       q    Type
REMARK                         _______ _______ _______ _____ _____    ______ ____
ROOT
ATOM      1  N   UNL     1      46.119   5.124  12.675  0.00  0.00    +0.000 N 
ATOM      2  H   UNL     1      46.527   4.508  11.973  0.00  0.00    +0.000 HD
ENDROOT
BRANCH   1   3
ATOM      3  C   UNL     1      46.510   6.456  12.473  0.00  0.00    +0.000 A 
ATOM      4  C   UNL     1      47.778   6.728  11.948  0.00  0.00    +0.000 A 
ATOM      5  C   UNL     1      48.206   8.045  11.776  0.00  0.00    +0.000 A 
ATOM      6  C   UNL     1      47.355   9.065  12.176  0.00  0.00    +0.000 A 
ATOM      7  N   UNL     1      46.139   8.857  12.744  0.00  0.00    +0.000 NA
ATOM      8  C   UNL     1      45.769   7.564  12.892  0.00  0.00    +0.000 A 
BRANCH   6   9
ATOM      9  C   UNL     1      47.760  10.494  11.990  0.00  0.00    +0.000 C 
ATOM     10  N   UNL     1      47.136  11.387  12.820  0.00  0.00    +0.000 N 
ATOM     11  O   UNL     1      48.580  10.849  11.155  0.00  0.00    +0.000 OA
ATOM     12  H   UNL     1      46.464  11.046  13.499  0.00  0.00    +0.000 HD
ATOM     13  H   UNL     1      47.356  12.370  12.755  0.00  0.00    +0.000 HD
ENDBRANCH   6   9
ENDBRANCH   1   3
BRANCH   1  14
ATOM     14  C   UNL     1      44.687   4.870  12.824  0.00  0.00    +0.000 C 
BRANCH  14  16
ATOM     15  C   UNL     1      42.652   5.539  11.403  0.00  0.00    +0.000 C 
ATOM     16  C   UNL     1      44.055   5.024  11.475  0.00  0.00    +0.000 C 
BRANCH  16  17
ATOM     17  C   UNL     1      44.602   4.231  10.366  0.00  0.00    +0.000 A 
ATOM     18  C   UNL     1      44.367   2.854  10.283  0.00  0.00    +0.000 A 
ATOM     19  C   UNL     1      44.802   2.130   9.169  0.00  0.00    +0.000 A 
ATOM     20  C   UNL     1      45.470   2.780   8.133  0.00  0.00    +0.000 A 
ATOM     21  C   UNL     1      45.732   4.144   8.221  0.00  0.00    +0.000 A 
ATOM     22  C   UNL     1      45.310   4.864   9.338  0.00  0.00    +0.000 A 
ENDBRANCH  16  17
ENDBRANCH  14  16
ENDBRANCH   1  14
TORSDOF 5
ENDMDL
