MODEL 1
REMARK VINA RESULT:    -7.874      0.000      0.000
REMARK INTER + INTRA:          -9.739
REMARK INTER:                  -9.946
REMARK INTRA:                   0.206
REMARK UNBOUND:                 0.206
REMARK  Name = 
REMARK  5 active torsions:
REMARK  status: ('A' for Active; 'I' for Inactive)
REMARK    1  A    between atoms: N_1  and  C_2
REMARK    2  A    between atoms: C_2  and  C_3
REMARK    3  A    between atoms: C_3  and  C_4
REMARK    4  A    between atoms: C_6  and  C_7
REMARK    5  A    between atoms: C_7  and  N_8
REMARK                            x       y       z     vdW  Elec       q    Type
REMARK                         _______ _______ _______ _____ _____    ______ ____
ROOT
ATOM      1  C   UNL     1      45.532   4.747  12.931  0.00  0.00    +0.000 C 
ATOM      2  C   UNL     1      45.187   3.517  12.507  0.00  0.00    +0.000 C 
ATOM      3  C   UNL     1      43.824   3.183  11.946  0.00  0.00    +0.000 C 
ATOM      4  C   UNL     1      42.993   4.467  11.791  0.00  0.00    +0.000 C 
ATOM      5  C   UNL     1      43.271   5.425  12.935  0.00  0.00    +0.000 C 
ATOM      6  O   UNL     1      44.648   5.808  12.954  0.00  0.00    +0.000 OA
ENDROOT
BRANCH   1   7
ATOM      7  C   UNL     1      46.918   5.103  13.405  0.00  0.00    +0.000 C 
BRANCH   7   8
ATOM      8  C   UNL     1      47.175   4.612  14.833  0.00  0.00    +0.000 C 
BRANCH   8   9
ATOM      9  N   UNL     1      47.611   3.214  14.849  0.00  0.00    +0.000 NA
ATOM     10  H   UNL     1      47.340   2.775  13.969  0.00  0.00    +0.000 HD
ATOM     11  H   UNL     1      47.103   2.713  15.578  0.00  0.00    +0.000 HD
ENDBRANCH   8   9
ENDBRANCH   7   8
ENDBRANCH   1   7
BRANCH   3  12
ATOM     12  C   UNL     1      43.961   2.412  10.613  0.00  0.00    +0.000 C 
BRANCH  12  13
ATOM     13  N   UNL     1      44.703   3.121   9.580  0.00  0.00    +0.000 N 
ATOM     14  C   UNL     1      44.665   4.482   9.400  0.00  0.00    +0.000 A 
ATOM     15  C   UNL     1      45.545   4.804   8.394  0.00  0.00    +0.000 A 
ATOM     16  C   UNL     1      46.129   3.595   7.927  0.00  0.00    +0.000 A 
ATOM     17  C   UNL     1      47.108   3.299   6.958  0.00  0.00    +0.000 A 
ATOM     18  C   UNL     1      47.451   1.968   6.732  0.00  0.00    +0.000 A 
ATOM     19  F   UNL     1      48.413   1.683   5.844  0.00  0.00    +0.000 F 
ATOM     20  C   UNL     1      46.820   0.930   7.402  0.00  0.00    +0.000 A 
ATOM     21  C   UNL     1      45.833   1.200   8.354  0.00  0.00    +0.000 A 
ATOM     22  C   UNL     1      45.532   2.544   8.634  0.00  0.00    +0.000 A 
ENDBRANCH  12  13
ENDBRANCH   3  12
TORSDOF 5
ENDMDL
MODEL 2
REMARK VINA RESULT:    -7.661      1.653      3.052
REMARK INTER + INTRA:          -9.471
REMARK INTER:                  -9.080
REMARK INTRA:                  -0.390
REMARK UNBOUND:                 0.206
REMARK  Name = 
REMARK  5 active torsions:
REMARK  status: ('A' for Active; 'I' for Inactive)
REMARK    1  A    between atoms: N_1  and  C_2
REMARK    2  A    between atoms: C_2  and  C_3
REMARK    3  A    between atoms: C_3  and  C_4
REMARK    4  A    between atoms: C_6  and  C_7
REMARK    5  A    between atoms: C_7  and  N_8
REMARK                            x       y       z     vdW  Elec       q    Type
REMARK                         _______ _______ _______ _____ _____    ______ ____
ROOT
ATOM      1  C   UNL     1      46.834   4.908  13.769  0.00  0.00    +0.000 C 
ATOM      2  C   UNL     1      45.590   5.365  13.535  0.00  0.00    +0.000 C 
ATOM      3  C   UNL     1      45.289   6.521  12.610  0.00  0.00    +0.000 C 
ATOM      4  C   UNL     1      46.572   6.957  11.883  0.00  0.00    +0.000 C 
ATOM      5  C   UNL     1      47.772   6.848  12.805  0.00  0.00    +0.000 C 
ATOM      6  O   UNL     1      47.963   5.498  13.233  0.00  0.00    +0.000 OA
ENDROOT
BRANCH   1   7
ATOM      7  C   UNL     1      47.128   3.698  14.619  0.00  0.00    +0.000 C 
BRANCH   7   8
ATOM      8  C   UNL     1      47.503   4.087  16.053  0.00  0.00    +0.000 C 
BRANCH   8   9
ATOM      9  N   UNL     1      46.736   3.318  17.035  0.00  0.00    +0.000 NA
ATOM     10  H   UNL     1      46.577   2.380  16.667  0.00  0.00    +0.000 HD
ATOM     11  H   UNL     1      45.811   3.736  17.138  0.00  0.00    +0.000 HD
ENDBRANCH   8   9
ENDBRANCH   7   8
ENDBRANCH   1   7
BRANCH   3  12
ATOM     12  C   UNL     1      44.159   6.146  11.625  0.00  0.00    +0.000 C 
BRANCH  12  13
ATOM     13  N   UNL     1      44.190   4.764  11.167  0.00  0.00    +0.000 N 
ATOM     14  C   UNL     1      43.556   3.727  11.805  0.00  0.00    +0.000 A 
ATOM     15  C   UNL     1      43.733   2.590  11.051  0.00  0.00    +0.000 A 
ATOM     16  C   UNL     1      44.520   2.940   9.920  0.00  0.00    +0.000 A 
ATOM     17  C   UNL     1      44.983   2.223   8.799  0.00  0.00    +0.000 A 
ATOM     18  C   UNL     1      45.765   2.883   7.855  0.00  0.00    +0.000 A 
ATOM     19  F   UNL     1      46.171   2.219   6.764  0.00  0.00    +0.000 F 
ATOM     20  C   UNL     1      46.136   4.211   8.016  0.00  0.00    +0.000 A 
ATOM     21  C   UNL     1      45.703   4.935   9.129  0.00  0.00    +0.000 A 
ATOM     22  C   UNL     1      44.858   4.293  10.051  0.00  0.00    +0.000 A 
ENDBRANCH  12  13
ENDBRANCH   3  12
TORSDOF 5
ENDMDL
MODEL 3
REMARK VINA RESULT:    -7.444      3.050      6.070
REMARK INTER + INTRA:          -9.196
REMARK INTER:                  -8.800
REMARK INTRA:                  -0.396
REMARK UNBOUND:                 0.206
REMARK  Name = 
REMARK  5 active torsions:
REMARK  status: ('A' for Active; 'I' for Inactive)
REMARK    1  A    between atoms: N_1  and  C_2
REMARK    2  A    between atoms: C_2  and  C_3
REMARK    3  A    between atoms: C_3  and  C_4
REMARK    4  A    between atoms: C_6  and  C_7
REMARK    5  A    between atoms: C_7  and  N_8
REMARK                            x       y       z     vdW  Elec       q    Type
REMARK                         _______ _______ _______ _____ _____    ______ ____
ROOT
ATOM      1  C   UNL     1      46.142   3.279   7.654  0.00  0.00    +0.000 C 
ATOM      2  C   UNL     1      45.067   4.019   7.982  0.00  0.00    +0.000 C 
ATOM      3  C   UNL     1      44.080   3.623   9.056  0.00  0.00    +0.000 C 
ATOM      4  C   UNL     1      44.584   2.370   9.792  0.00  0.00    +0.000 C 
ATOM      5  C   UNL     1      45.273   1.424   8.827  0.00  0.00    +0.000 C 
ATOM      6  O   UNL     1      46.409   2.049   8.225  0.00  0.00    +0.000 OA
ENDROOT
BRANCH   1   7
ATOM      7  C   UNL     1      47.176   3.717   6.648  0.00  0.00    +0.000 C 
BRANCH   7   8
ATOM      8  C   UNL     1      47.365   2.679   5.537  0.00  0.00    +0.000 C 
BRANCH   8   9
ATOM      9  N   UNL     1      48.468   1.765   5.839  0.00  0.00    +0.000 NA
ATOM     10  H   UNL     1      48.138   1.058   6.496  0.00  0.00    +0.000 HD
ATOM     11  H   UNL     1      49.203   2.277   6.328  0.00  0.00    +0.000 HD
ENDBRANCH   8   9
ENDBRANCH   7   8
ENDBRANCH   1   7
BRANCH   3  12
ATOM     12  C   UNL     1      43.825   4.803  10.020  0.00  0.00    +0.000 C 
BRANCH  12  13
ATOM     13  N   UNL     1      44.495   4.687  11.308  0.00  0.00    +0.000 N 
ATOM     14  C   UNL     1      44.082   3.854  12.318  0.00  0.00    +0.000 A 
ATOM     15  C   UNL     1      44.992   3.944  13.345  0.00  0.00    +0.000 A 
ATOM     16  C   UNL     1      45.989   4.880  12.957  0.00  0.00    +0.000 A 
ATOM     17  C   UNL     1      47.172   5.347  13.563  0.00  0.00    +0.000 A 
ATOM     18  C   UNL     1      47.936   6.304  12.899  0.00  0.00    +0.000 A 
ATOM     19  F   UNL     1      49.085   6.719  13.449  0.00  0.00    +0.000 F 
ATOM     20  C   UNL     1      47.536   6.839  11.683  0.00  0.00    +0.000 A 
ATOM     21  C   UNL     1      46.358   6.403  11.073  0.00  0.00    +0.000 A 
ATOM     22  C   UNL     1      45.618   5.390  11.707  0.00  0.00    +0.000 A 
ENDBRANCH  12  13
ENDBRANCH   3  12
TORSDOF 5
ENDMDL
MODEL 4
REMARK VINA RESULT:    -7.041      3.345      4.503
REMARK INTER + INTRA:          -8.688
REMARK INTER:                  -8.281
REMARK INTRA:                  -0.407
REMARK UNBOUND:                 0.206
REMARK  Name = 
REMARK  5 active torsions:
REMARK  status: ('A' for Active; 'I' for Inactive)
REMARK    1  A    between atoms: N_1  and  C_2
REMARK    2  A    between atoms: C_2  and  C_3
REMARK    3  A    between atoms: C_3  and  C_4
REMARK    4  A    between atoms: C_6  and  C_7
REMARK    5  A    between atoms: C_7  and  N_8
REMARK                            x       y       z     vdW  Elec       q    Type
REMARK                         _______ _______ _______ _____ _____    ______ ____
ROOT
ATOM      1  C   UNL     1      45.216   9.376  12.011  0.00  0.00    +0.000 C 
ATOM      2  C   UNL     1      44.829   8.397  11.172  0.00  0.00    +0.000 C 
ATOM      3  C   UNL     1      45.045   6.928  11.453  0.00  0.00    +0.000 C 
ATOM      4  C   UNL     1      45.604   6.744  12.873  0.00  0.00    +0.000 C 
ATOM      5  C   UNL     1      46.568   7.864  13.218  0.00  0.00    +0.000 C 
ATOM      6  O   UNL     1      45.908   9.131  13.181  0.00  0.00    +0.000 OA
ENDROOT
BRANCH   1   7
ATOM      7  C   UNL     1      44.919  10.836  11.776  0.00  0.00    +0.000 C 
BRANCH   7   8
ATOM      8  C   UNL     1      43.529  11.042  11.164  0.00  0.00    +0.000 C 
BRANCH   8   9
ATOM      9  N   UNL     1      42.472  10.859  12.161  0.00  0.00    +0.000 NA
ATOM     10  H   UNL     1      41.775  11.593  12.040  0.00  0.00    +0.000 HD
ATOM     11  H   UNL     1      42.864  10.999  13.093  0.00  0.00    +0.000 HD
ENDBRANCH   8   9
ENDBRANCH   7   8
ENDBRANCH   1   7
BRANCH   3  12
ATOM     12  C   UNL     1      43.736   6.136  11.234  0.00  0.00    +0.000 C 
BRANCH  12  13
ATOM     13  N   UNL     1      43.926   4.718  10.964  0.00  0.00    +0.000 N 
ATOM     14  C   UNL     1      43.360   3.710  11.705  0.00  0.00    +0.000 A 
ATOM     15  C   UNL     1      43.687   2.512  11.115  0.00  0.00    +0.000 A 
ATOM     16  C   UNL     1      44.499   2.794   9.983  0.00  0.00    +0.000 A 
ATOM     17  C   UNL     1      45.091   1.993   8.986  0.00  0.00    +0.000 A 
ATOM     18  C   UNL     1      45.858   2.605   7.998  0.00  0.00    +0.000 A 
ATOM     19  F   UNL     1      46.386   1.853   7.022  0.00  0.00    +0.000 F 
ATOM     20  C   UNL     1      46.089   3.973   7.999  0.00  0.00    +0.000 A 
ATOM     21  C   UNL     1      45.527   4.784   8.988  0.00  0.00    +0.000 A 
ATOM     22  C   UNL     1      44.698   4.180   9.949  0.00  0.00    +0.000 A 
ENDBRANCH  12  13
ENDBRANCH   3  12
TORSDOF 5
ENDMDL
MODEL 5
REMARK VINA RESULT:    -6.875      4.011      6.355
REMARK INTER + INTRA:          -8.478
REMARK INTER:                  -7.933
REMARK INTRA:                  -0.545
REMARK UNBOUND:                 0.206
REMARK  Name = 
REMARK  5 active torsions:
REMARK  status: ('A' for Active; 'I' for Inactive)
REMARK    1  A    between atoms: N_1  and  C_2
REMARK    2  A    between atoms: C_2  and  C_3
REMARK    3  A    between atoms: C_3  and  C_4
REMARK    4  A    between atoms: C_6  and  C_7
REMARK    5  A    between atoms: C_7  and  N_8
REMARK                            x       y       z     vdW  Elec       q    Type
REMARK                         _______ _______ _______ _____ _____    ______ ____
ROOT
ATOM      1  C   UNL     1      44.505   3.767   9.601  0.00  0.00    +0.000 C 
ATOM      2  C   UNL     1      44.879   4.882  10.255  0.00  0.00    +0.000 C 
ATOM      3  C   UNL     1      44.805   5.031  11.757  0.00  0.00    +0.000 C 
ATOM      4  C   UNL     1      44.406   3.690  12.396  0.00  0.00    +0.000 C 
ATOM      5  C   UNL     1      43.399   2.962  11.525  0.00  0.00    +0.000 C 
ATOM      6  O   UNL     1      43.954   2.673  10.240  0.00  0.00    +0.000 OA
ENDROOT
BRANCH   1   7
ATOM      7  C   UNL     1      44.665   3.584   8.113  0.00  0.00    +0.000 C 
BRANCH   7   8
ATOM      8  C   UNL     1      46.091   3.162   7.742  0.00  0.00    +0.000 C 
BRANCH   8   9
ATOM      9  N   UNL     1      46.832   4.265   7.126  0.00  0.00    +0.000 NA
ATOM     10  H   UNL     1      46.328   4.576   6.296  0.00  0.00    +0.000 HD
ATOM     11  H   UNL     1      47.731   3.917   6.791  0.00  0.00    +0.000 HD
ENDBRANCH   8   9
ENDBRANCH   7   8
ENDBRANCH   1   7
BRANCH   3  12
ATOM     12  C   UNL     1      46.141   5.569  12.315  0.00  0.00    +0.000 C 
BRANCH  12  13
ATOM     13  N   UNL     1      46.269   7.020  12.283  0.00  0.00    +0.000 N 
ATOM     14  C   UNL     1      45.231   7.889  12.513  0.00  0.00    +0.000 A 
ATOM     15  C   UNL     1      45.732   9.169  12.483  0.00  0.00    +0.000 A 
ATOM     16  C   UNL     1      47.124   9.082  12.206  0.00  0.00    +0.000 A 
ATOM     17  C   UNL     1      48.155  10.036  12.095  0.00  0.00    +0.000 A 
ATOM     18  C   UNL     1      49.443   9.602  11.792  0.00  0.00    +0.000 A 
ATOM     19  F   UNL     1      50.437  10.500  11.729  0.00  0.00    +0.000 F 
ATOM     20  C   UNL     1      49.723   8.265  11.552  0.00  0.00    +0.000 A 
ATOM     21  C   UNL     1      48.713   7.304  11.639  0.00  0.00    +0.000 A 
ATOM     22  C   UNL     1      47.425   7.728  12.010  0.00  0.00    +0.000 A 
ENDBRANCH  12  13
ENDBRANCH   3  12
TORSDOF 5
ENDMDL
MODEL 6
REMARK VINA RESULT:    -6.232      4.297      6.150
REMARK INTER + INTRA:          -7.665
REMARK INTER:                  -7.029
REMARK INTRA:                  -0.636
REMARK UNBOUND:                 0.206
REMARK  Name = 
REMARK  5 active torsions:
REMARK  status: ('A' for Active; 'I' for Inactive)
REMARK    1  A    between atoms: N_1  and  C_2
REMARK    2  A    between atoms: C_2  and  C_3
REMARK    3  A    between atoms: C_3  and  C_4
REMARK    4  A    between atoms: C_6  and  C_7
REMARK    5  A    between atoms: C_7  and  N_8
REMARK                            x       y       z     vdW  Elec       q    Type
REMARK                         _______ _______ _______ _____ _____    ______ ____
ROOT
ATOM      1  C   UNL     1      49.028   4.878  16.900  0.00  0.00    +0.000 C 
ATOM      2  C   UNL     1      48.238   5.470  15.986  0.00  0.00    +0.000 C 
ATOM      3  C   UNL     1      48.632   6.719  15.231  0.00  0.00    +0.000 C 
ATOM      4  C   UNL     1      50.092   7.084  15.548  0.00  0.00    +0.000 C 
ATOM      5  C   UNL     1      50.413   6.787  17.001  0.00  0.00    +0.000 C 
ATOM      6  O   UNL     1      50.250   5.395  17.283  0.00  0.00    +0.000 OA
ENDROOT
BRANCH   1   7
ATOM      7  C   UNL     1      48.676   3.582  17.586  0.00  0.00    +0.000 C 
BRANCH   7   8
ATOM      8  C   UNL     1      49.752   2.513  17.367  0.00  0.00    +0.000 C 
BRANCH   8   9
ATOM      9  N   UNL     1      49.547   1.797  16.106  0.00  0.00    +0.000 NA
ATOM     10  H   UNL     1      49.917   0.852  16.200  0.00  0.00    +0.000 HD
ATOM     11  H   UNL     1      50.104   2.242  15.375  0.00  0.00    +0.000 HD
ENDBRANCH   8   9
ENDBRANCH   7   8
ENDBRANCH   1   7
BRANCH   3  12
ATOM     12  C   UNL     1      48.392   6.534  13.715  0.00  0.00    +0.000 C 
BRANCH  12  13
ATOM     13  N   UNL     1      47.021   6.772  13.287  0.00  0.00    +0.000 N 
ATOM     14  C   UNL     1      46.462   8.019  13.150  0.00  0.00    +0.000 A 
ATOM     15  C   UNL     1      45.190   7.864  12.653  0.00  0.00    +0.000 A 
ATOM     16  C   UNL     1      44.953   6.471  12.497  0.00  0.00    +0.000 A 
ATOM     17  C   UNL     1      43.870   5.718  12.003  0.00  0.00    +0.000 A 
ATOM     18  C   UNL     1      43.961   4.328  12.002  0.00  0.00    +0.000 A 
ATOM     19  F   UNL     1      42.952   3.607  11.492  0.00  0.00    +0.000 F 
ATOM     20  C   UNL     1      45.069   3.671  12.517  0.00  0.00    +0.000 A 
ATOM     21  C   UNL     1      46.147   4.397  13.029  0.00  0.00    +0.000 A 
ATOM     22  C   UNL     1      46.088   5.800  12.971  0.00  0.00    +0.000 A 
ENDBRANCH  12  13
ENDBRANCH   3  12
TORSDOF 5
ENDMDL
MODEL 7
REMARK VINA RESULT:    -6.023      3.085      4.857
REMARK INTER + INTRA:          -7.401
REMARK INTER:                  -6.725
REMARK INTRA:                  -0.676
REMARK UNBOUND:                 0.206
REMARK  Name = 
REMARK  5 active torsions:
REMARK  status: ('A' for Active; 'I' for Inactive)
REMARK    1  A    between atoms: N_1  and  C_2
REMARK    2  A    between atoms: C_2  and  C_3
REMARK    3  A    between atoms: C_3  and  C_4
REMARK    4  A    between atoms: C_6  and  C_7
REMARK    5  A    between atoms: C_7  and  N_8
REMARK                            x       y       z     vdW  Elec       q    Type
REMARK                         _______ _______ _______ _____ _____    ______ ____
ROOT
ATOM      1  C   UNL     1      48.696   8.032  14.294  0.00  0.00    +0.000 C 
ATOM      2  C   UNL     1      47.539   8.440  13.742  0.00  0.00    +0.000 C 
ATOM      3  C   UNL     1      47.148   8.143  12.312  0.00  0.00    +0.000 C 
ATOM      4  C   UNL     1      48.178   7.194  11.676  0.00  0.00    +0.000 C 
ATOM      5  C   UNL     1      49.577   7.517  12.165  0.00  0.00    +0.000 C 
ATOM      6  O   UNL     1      49.670   7.357  13.583  0.00  0.00    +0.000 OA
ENDROOT
BRANCH   1   7
ATOM      7  C   UNL     1      49.045   8.248  15.745  0.00  0.00    +0.000 C 
BRANCH   7   8
ATOM      8  C   UNL     1      48.849   6.973  16.572  0.00  0.00    +0.000 C 
BRANCH   8   9
ATOM      9  N   UNL     1      49.674   5.873  16.066  0.00  0.00    +0.000 NA
ATOM     10  H   UNL     1      50.431   6.262  15.504  0.00  0.00    +0.000 HD
ATOM     11  H   UNL     1      49.117   5.305  15.427  0.00  0.00    +0.000 HD
ENDBRANCH   8   9
ENDBRANCH   7   8
ENDBRANCH   1   7
BRANCH   3  12
ATOM     12  C   UNL     1      45.713   7.574  12.249  0.00  0.00    +0.000 C 
BRANCH  12  13
ATOM     13  N   UNL     1      45.632   6.124  12.356  0.00  0.00    +0.000 N 
ATOM     14  C   UNL     1      45.813   5.427  13.525  0.00  0.00    +0.000 A 
ATOM     15  C   UNL     1      45.584   4.096  13.268  0.00  0.00    +0.000 A 
ATOM     16  C   UNL     1      45.269   3.970  11.887  0.00  0.00    +0.000 A 
ATOM     17  C   UNL     1      44.909   2.883  11.067  0.00  0.00    +0.000 A 
ATOM     18  C   UNL     1      44.674   3.110   9.713  0.00  0.00    +0.000 A 
ATOM     19  F   UNL     1      44.288   2.088   8.937  0.00  0.00    +0.000 F 
ATOM     20  C   UNL     1      44.831   4.367   9.148  0.00  0.00    +0.000 A 
ATOM     21  C   UNL     1      45.205   5.456   9.939  0.00  0.00    +0.000 A 
ATOM     22  C   UNL     1      45.378   5.245  11.318  0.00  0.00    +0.000 A 
ENDBRANCH  12  13
ENDBRANCH   3  12
TORSDOF 5
ENDMDL
MODEL 8
REMARK VINA RESULT:    -5.922      3.648      5.897
REMARK INTER + INTRA:          -7.274
REMARK INTER:                  -6.678
REMARK INTRA:                  -0.596
REMARK UNBOUND:                 0.206
REMARK  Name = 
REMARK  5 active torsions:
REMARK  status: ('A' for Active; 'I' for Inactive)
REMARK    1  A    between atoms: N_1  and  C_2
REMARK    2  A    between atoms: C_2  and  C_3
REMARK    3  A    between atoms: C_3  and  C_4
REMARK    4  A    between atoms: C_6  and  C_7
REMARK    5  A    between atoms: C_7  and  N_8
REMARK                            x       y       z     vdW  Elec       q    Type
REMARK                         _______ _______ _______ _____ _____    ______ ____
ROOT
ATOM      1  C   UNL     1      49.000   4.626  18.071  0.00  0.00    +0.000 C 
ATOM      2  C   UNL     1      48.468   5.042  16.907  0.00  0.00    +0.000 C 
ATOM      3  C   UNL     1      48.104   4.106  15.777  0.00  0.00    +0.000 C 
ATOM      4  C   UNL     1      48.282   2.647  16.230  0.00  0.00    +0.000 C 
ATOM      5  C   UNL     1      49.487   2.512  17.141  0.00  0.00    +0.000 C 
ATOM      6  O   UNL     1      49.326   3.307  18.318  0.00  0.00    +0.000 OA
ENDROOT
BRANCH   1   7
ATOM      7  C   UNL     1      49.277   5.547  19.233  0.00  0.00    +0.000 C 
BRANCH   7   8
ATOM      8  C   UNL     1      48.248   5.372  20.355  0.00  0.00    +0.000 C 
BRANCH   8   9
ATOM      9  N   UNL     1      48.314   4.030  20.937  0.00  0.00    +0.000 NA
ATOM     10  H   UNL     1      47.560   3.465  20.548  0.00  0.00    +0.000 HD
ATOM     11  H   UNL     1      48.128   4.090  21.939  0.00  0.00    +0.000 HD
ENDBRANCH   8   9
ENDBRANCH   7   8
ENDBRANCH   1   7
BRANCH   3  12
ATOM     12  C   UNL     1      46.671   4.391  15.276  0.00  0.00    +0.000 C 
BRANCH  12  13
ATOM     13  N   UNL     1      46.605   5.067  13.988  0.00  0.00    +0.000 N 
ATOM     14  C   UNL     1      47.431   6.099  13.616  0.00  0.00    +0.000 A 
ATOM     15  C   UNL     1      47.140   6.431  12.314  0.00  0.00    +0.000 A 
ATOM     16  C   UNL     1      46.084   5.584  11.877  0.00  0.00    +0.000 A 
ATOM     17  C   UNL     1      45.404   5.430  10.653  0.00  0.00    +0.000 A 
ATOM     18  C   UNL     1      44.381   4.489  10.566  0.00  0.00    +0.000 A 
ATOM     19  F   UNL     1      43.760   4.307   9.392  0.00  0.00    +0.000 F 
ATOM     20  C   UNL     1      43.988   3.737  11.663  0.00  0.00    +0.000 A 
ATOM     21  C   UNL     1      44.637   3.886  12.891  0.00  0.00    +0.000 A 
ATOM     22  C   UNL     1      45.714   4.786  12.967  0.00  0.00    +0.000 A 
ENDBRANCH  12  13
ENDBRANCH   3  12
TORSDOF 5
ENDMDL
MODEL 9
REMARK VINA RESULT:    -5.829      5.071      7.626
REMARK INTER + INTRA:          -7.156
REMARK INTER:                  -6.642
REMARK INTRA:                  -0.514
REMARK UNBOUND:                 0.206
REMARK  Name = 
REMARK  5 active torsions:
REMARK  status: ('A' for Active; 'I' for Inactive)
REMARK    1  A    between atoms: N_1  and  C_2
REMARK    2  A    between atoms: C_2  and  C_3
REMARK    3  A    between atoms: C_3  and  C_4
REMARK    4  A    between atoms: C_6  and  C_7
REMARK    5  A    between atoms: C_7  and  N_8
REMARK                            x       y       z     vdW  Elec       q    Type
REMARK                         _______ _______ _______ _____ _____    ______ ____
ROOT
ATOM      1  C   UNL     1      44.541   6.958  11.895  0.00  0.00    +0.000 C 
ATOM      2  C   UNL     1      45.428   6.702  12.874  0.00  0.00    +0.000 C 
ATOM      3  C   UNL     1      45.553   5.357  13.552  0.00  0.00    +0.000 C 
ATOM      4  C   UNL     1      44.652   4.330  12.846  0.00  0.00    +0.000 C 
ATOM      5  C   UNL     1      43.357   4.978  12.392  0.00  0.00    +0.000 C 
ATOM      6  O   UNL     1      43.615   6.030  11.460  0.00  0.00    +0.000 OA
ENDROOT
BRANCH   1   7
ATOM      7  C   UNL     1      44.478   8.271  11.155  0.00  0.00    +0.000 C 
BRANCH   7   8
ATOM      8  C   UNL     1      45.141   9.402  11.947  0.00  0.00    +0.000 C 
BRANCH   8   9
ATOM      9  N   UNL     1      44.145  10.297  12.540  0.00  0.00    +0.000 NA
ATOM     10  H   UNL     1      43.765  10.897  11.809  0.00  0.00    +0.000 HD
ATOM     11  H   UNL     1      44.608  10.922  13.201  0.00  0.00    +0.000 HD
ENDBRANCH   8   9
ENDBRANCH   7   8
ENDBRANCH   1   7
BRANCH   3  12
ATOM     12  C   UNL     1      47.031   4.906  13.592  0.00  0.00    +0.000 C 
BRANCH  12  13
ATOM     13  N   UNL     1      47.778   5.391  14.744  0.00  0.00    +0.000 N 
ATOM     14  C   UNL     1      48.460   6.583  14.773  0.00  0.00    +0.000 A 
ATOM     15  C   UNL     1      48.973   6.750  16.038  0.00  0.00    +0.000 A 
ATOM     16  C   UNL     1      48.608   5.611  16.807  0.00  0.00    +0.000 A 
ATOM     17  C   UNL     1      48.808   5.241  18.151  0.00  0.00    +0.000 A 
ATOM     18  C   UNL     1      48.318   4.014  18.591  0.00  0.00    +0.000 A 
ATOM     19  F   UNL     1      48.466   3.676  19.880  0.00  0.00    +0.000 F 
ATOM     20  C   UNL     1      47.682   3.133  17.729  0.00  0.00    +0.000 A 
ATOM     21  C   UNL     1      47.489   3.472  16.388  0.00  0.00    +0.000 A 
ATOM     22  C   UNL     1      47.922   4.736  15.955  0.00  0.00    +0.000 A 
ENDBRANCH  12  13
ENDBRANCH   3  12
TORSDOF 5
ENDMDL
