MODEL 1
REMARK VINA RESULT:    -7.543      0.000      0.000
REMARK INTER + INTRA:          -9.306
REMARK INTER:                  -9.086
REMARK INTRA:                  -0.220
REMARK UNBOUND:                -0.220
REMARK  Name = 
REMARK  4 active torsions:
REMARK  status: ('A' for Active; 'I' for Inactive)
REMARK    1  A    between atoms: N_1  and  C_2
REMARK    2  A    between atoms: C_2  and  C_3
REMARK    3  A    between atoms: C_7  and  C_8
REMARK    4  A    between atoms: C_8  and  N_9
REMARK                            x       y       z     vdW  Elec       q    Type
REMARK                         _______ _______ _______ _____ _____    ______ ____
ROOT
ATOM      1  C   UNL     1      46.556   2.715   6.698  0.00  0.00    +0.000 A 
ATOM      2  C   UNL     1      46.764   1.463   7.270  0.00  0.00    +0.000 A 
ATOM      3  C   UNL     1      46.041   1.118   8.403  0.00  0.00    +0.000 A 
ATOM      4  C   UNL     1      45.141   2.030   8.945  0.00  0.00    +0.000 A 
ATOM      5  C   UNL     1      44.987   3.274   8.334  0.00  0.00    +0.000 A 
ATOM      6  N   UNL     1      45.682   3.617   7.215  0.00  0.00    +0.000 NA
ENDROOT
BRANCH   1   7
ATOM      7  C   UNL     1      47.305   3.108   5.441  0.00  0.00    +0.000 C 
BRANCH   7   8
ATOM      8  N   UNL     1      48.403   2.188   5.131  0.00  0.00    +0.000 NA
ATOM      9  H   UNL     1      49.245   2.514   5.602  0.00  0.00    +0.000 HD
ATOM     10  H   UNL     1      48.596   2.258   4.131  0.00  0.00    +0.000 HD
ENDBRANCH   7   8
ENDBRANCH   1   7
BRANCH   5  11
ATOM     11  C   UNL     1      44.112   4.333   8.947  0.00  0.00    +0.000 C 
BRANCH  11  12
ATOM     12  N   UNL     1      44.136   4.314  10.402  0.00  0.00    +0.000 N 
ATOM     13  N   UNL     1      43.311   3.465  11.066  0.00  0.00    +0.000 NA
ATOM     14  C   UNL     1      43.712   3.565  12.334  0.00  0.00    +0.000 A 
ATOM     15  C   UNL     1      44.791   4.460  12.500  0.00  0.00    +0.000 A 
ATOM     16  C   UNL     1      45.584   4.894  13.577  0.00  0.00    +0.000 A 
ATOM     17  C   UNL     1      46.607   5.818  13.334  0.00  0.00    +0.000 A 
ATOM     18  C   UNL     1      46.833   6.310  12.049  0.00  0.00    +0.000 A 
ATOM     19  C   UNL     1      46.051   5.891  10.965  0.00  0.00    +0.000 A 
ATOM     20  C   UNL     1      45.040   4.955  11.222  0.00  0.00    +0.000 A 
ENDBRANCH  11  12
ENDBRANCH   5  11
TORSDOF 4
ENDMDL
MODEL 2
REMARK VINA RESULT:    -7.482      1.996      6.028
REMARK INTER + INTRA:          -9.232
REMARK INTER:                  -8.973
REMARK INTRA:                  -0.259
REMARK UNBOUND:                -0.220
REMARK  Name = 
REMARK  4 active torsions:
REMARK  status: ('A' for Active; 'I' for Inactive)
REMARK    1  A    between atoms: N_1  and  C_2
REMARK    2  A    between atoms: C_2  and  C_3
REMARK    3  A    between atoms: C_7  and  C_8
REMARK    4  A    between atoms: C_8  and  N_9
REMARK                            x       y       z     vdW  Elec       q    Type
REMARK                         _______ _______ _______ _____ _____    ______ ____
ROOT
ATOM      1  C   UNL     1      45.279   4.472  13.107  0.00  0.00    +0.000 A 
ATOM      2  C   UNL     1      44.185   5.284  13.389  0.00  0.00    +0.000 A 
ATOM      3  C   UNL     1      43.040   5.156  12.615  0.00  0.00    +0.000 A 
ATOM      4  C   UNL     1      43.018   4.233  11.574  0.00  0.00    +0.000 A 
ATOM      5  C   UNL     1      44.152   3.458  11.332  0.00  0.00    +0.000 A 
ATOM      6  N   UNL     1      45.274   3.567  12.093  0.00  0.00    +0.000 NA
ENDROOT
BRANCH   1   7
ATOM      7  C   UNL     1      46.530   4.565  13.955  0.00  0.00    +0.000 C 
BRANCH   7   8
ATOM      8  N   UNL     1      47.256   3.293  14.027  0.00  0.00    +0.000 NA
ATOM      9  H   UNL     1      47.748   3.248  14.917  0.00  0.00    +0.000 HD
ATOM     10  H   UNL     1      47.980   3.306  13.306  0.00  0.00    +0.000 HD
ENDBRANCH   7   8
ENDBRANCH   1   7
BRANCH   5  11
ATOM     11  C   UNL     1      44.216   2.530  10.150  0.00  0.00    +0.000 C 
BRANCH  11  12
ATOM     12  N   UNL     1      45.010   3.063   9.054  0.00  0.00    +0.000 N 
ATOM     13  N   UNL     1      45.062   4.407   8.868  0.00  0.00    +0.000 NA
ATOM     14  C   UNL     1      45.997   4.558   7.930  0.00  0.00    +0.000 A 
ATOM     15  C   UNL     1      46.559   3.332   7.512  0.00  0.00    +0.000 A 
ATOM     16  C   UNL     1      47.564   2.940   6.609  0.00  0.00    +0.000 A 
ATOM     17  C   UNL     1      47.856   1.578   6.474  0.00  0.00    +0.000 A 
ATOM     18  C   UNL     1      47.159   0.622   7.213  0.00  0.00    +0.000 A 
ATOM     19  C   UNL     1      46.155   0.995   8.114  0.00  0.00    +0.000 A 
ATOM     20  C   UNL     1      45.883   2.364   8.249  0.00  0.00    +0.000 A 
ENDBRANCH  11  12
ENDBRANCH   5  11
TORSDOF 4
ENDMDL
MODEL 3
REMARK VINA RESULT:    -7.021      2.065      5.703
REMARK INTER + INTRA:          -8.677
REMARK INTER:                  -8.214
REMARK INTRA:                  -0.463
REMARK UNBOUND:                -0.220
REMARK  Name = 
REMARK  4 active torsions:
REMARK  status: ('A' for Active; 'I' for Inactive)
REMARK    1  A    between atoms: N_1  and  C_2
REMARK    2  A    between atoms: C_2  and  C_3
REMARK    3  A    between atoms: C_7  and  C_8
REMARK    4  A    between atoms: C_8  and  N_9
REMARK                            x       y       z     vdW  Elec       q    Type
REMARK                         _______ _______ _______ _____ _____    ______ ____
ROOT
ATOM      1  C   UNL     1      46.230   5.513  13.368  0.00  0.00    +0.000 A 
ATOM      2  C   UNL     1      46.606   6.848  13.252  0.00  0.00    +0.000 A 
ATOM      3  C   UNL     1      45.992   7.633  12.287  0.00  0.00    +0.000 A 
ATOM      4  C   UNL     1      45.031   7.068  11.454  0.00  0.00    +0.000 A 
ATOM      5  C   UNL     1      44.708   5.721  11.610  0.00  0.00    +0.000 A 
ATOM      6  N   UNL     1      45.295   4.945  12.562  0.00  0.00    +0.000 NA
ENDROOT
BRANCH   1   7
ATOM      7  C   UNL     1      46.857   4.639  14.434  0.00  0.00    +0.000 C 
BRANCH   7   8
ATOM      8  N   UNL     1      47.280   3.335  13.914  0.00  0.00    +0.000 NA
ATOM      9  H   UNL     1      46.454   2.756  13.770  0.00  0.00    +0.000 HD
ATOM     10  H   UNL     1      47.825   2.870  14.643  0.00  0.00    +0.000 HD
ENDBRANCH   7   8
ENDBRANCH   1   7
BRANCH   5  11
ATOM     11  C   UNL     1      43.761   5.038  10.661  0.00  0.00    +0.000 C 
BRANCH  11  12
ATOM     12  N   UNL     1      44.307   3.812  10.100  0.00  0.00    +0.000 N 
ATOM     13  N   UNL     1      43.778   2.620  10.477  0.00  0.00    +0.000 NA
ATOM     14  C   UNL     1      44.362   1.745   9.658  0.00  0.00    +0.000 A 
ATOM     15  C   UNL     1      45.255   2.353   8.750  0.00  0.00    +0.000 A 
ATOM     16  C   UNL     1      46.074   1.914   7.694  0.00  0.00    +0.000 A 
ATOM     17  C   UNL     1      46.835   2.856   6.992  0.00  0.00    +0.000 A 
ATOM     18  C   UNL     1      46.792   4.207   7.337  0.00  0.00    +0.000 A 
ATOM     19  C   UNL     1      45.984   4.661   8.386  0.00  0.00    +0.000 A 
ATOM     20  C   UNL     1      45.217   3.708   9.071  0.00  0.00    +0.000 A 
ENDBRANCH  11  12
ENDBRANCH   5  11
TORSDOF 4
ENDMDL
MODEL 4
REMARK VINA RESULT:    -6.983      1.760      2.256
REMARK INTER + INTRA:          -8.632
REMARK INTER:                  -8.407
REMARK INTRA:                  -0.224
REMARK UNBOUND:                -0.220
REMARK  Name = 
REMARK  4 active torsions:
REMARK  status: ('A' for Active; 'I' for Inactive)
REMARK    1  A    between atoms: N_1  and  C_2
REMARK    2  A    between atoms: C_2  and  C_3
REMARK    3  A    between atoms: C_7  and  C_8
REMARK    4  A    between atoms: C_8  and  N_9
REMARK                            x       y       z     vdW  Elec       q    Type
REMARK                         _______ _______ _______ _____ _____    ______ ____
ROOT
ATOM      1  C   UNL     1      46.567   1.933   7.616  0.00  0.00    +0.000 A 
ATOM      2  C   UNL     1      46.818   3.086   6.878  0.00  0.00    +0.000 A 
ATOM      3  C   UNL     1      46.301   4.293   7.328  0.00  0.00    +0.000 A 
ATOM      4  C   UNL     1      45.539   4.319   8.493  0.00  0.00    +0.000 A 
ATOM      5  C   UNL     1      45.312   3.127   9.180  0.00  0.00    +0.000 A 
ATOM      6  N   UNL     1      45.824   1.941   8.754  0.00  0.00    +0.000 NA
ENDROOT
BRANCH   1   7
ATOM      7  C   UNL     1      47.145   0.606   7.169  0.00  0.00    +0.000 C 
BRANCH   7   8
ATOM      8  N   UNL     1      46.616  -0.525   7.936  0.00  0.00    +0.000 NA
ATOM      9  H   UNL     1      47.010  -1.386   7.563  0.00  0.00    +0.000 HD
ATOM     10  H   UNL     1      45.610  -0.577   7.761  0.00  0.00    +0.000 HD
ENDBRANCH   7   8
ENDBRANCH   1   7
BRANCH   5  11
ATOM     11  C   UNL     1      44.402   3.088  10.378  0.00  0.00    +0.000 C 
BRANCH  11  12
ATOM     12  N   UNL     1      44.992   3.703  11.557  0.00  0.00    +0.000 N 
ATOM     13  N   UNL     1      45.635   2.919  12.459  0.00  0.00    +0.000 NA
ATOM     14  C   UNL     1      46.201   3.796  13.289  0.00  0.00    +0.000 A 
ATOM     15  C   UNL     1      45.942   5.137  12.932  0.00  0.00    +0.000 A 
ATOM     16  C   UNL     1      46.310   6.401  13.427  0.00  0.00    +0.000 A 
ATOM     17  C   UNL     1      45.845   7.546  12.769  0.00  0.00    +0.000 A 
ATOM     18  C   UNL     1      45.024   7.439  11.647  0.00  0.00    +0.000 A 
ATOM     19  C   UNL     1      44.646   6.189  11.142  0.00  0.00    +0.000 A 
ATOM     20  C   UNL     1      45.131   5.052  11.804  0.00  0.00    +0.000 A 
ENDBRANCH  11  12
ENDBRANCH   5  11
TORSDOF 4
ENDMDL
MODEL 5
REMARK VINA RESULT:    -6.477      1.589      2.264
REMARK INTER + INTRA:          -8.022
REMARK INTER:                  -7.592
REMARK INTRA:                  -0.430
REMARK UNBOUND:                -0.220
REMARK  Name = 
REMARK  4 active torsions:
REMARK  status: ('A' for Active; 'I' for Inactive)
REMARK    1  A    between atoms: N_1  and  C_2
REMARK    2  A    between atoms: C_2  and  C_3
REMARK    3  A    between atoms: C_7  and  C_8
REMARK    4  A    between atoms: C_8  and  N_9
REMARK                            x       y       z     vdW  Elec       q    Type
REMARK                         _______ _______ _______ _____ _____    ______ ____
ROOT
ATOM      1  C   UNL     1      45.870   3.597   8.171  0.00  0.00    +0.000 A 
ATOM      2  C   UNL     1      45.449   2.280   8.333  0.00  0.00    +0.000 A 
ATOM      3  C   UNL     1      44.580   1.979   9.372  0.00  0.00    +0.000 A 
ATOM      4  C   UNL     1      44.163   2.993  10.230  0.00  0.00    +0.000 A 
ATOM      5  C   UNL     1      44.630   4.290  10.024  0.00  0.00    +0.000 A 
ATOM      6  N   UNL     1      45.473   4.597   9.000  0.00  0.00    +0.000 NA
ENDROOT
BRANCH   1   7
ATOM      7  C   UNL     1      46.791   3.963   7.026  0.00  0.00    +0.000 C 
BRANCH   7   8
ATOM      8  N   UNL     1      47.870   2.988   6.839  0.00  0.00    +0.000 NA
ATOM      9  H   UNL     1      48.718   3.352   7.269  0.00  0.00    +0.000 HD
ATOM     10  H   UNL     1      48.066   2.928   5.839  0.00  0.00    +0.000 HD
ENDBRANCH   7   8
ENDBRANCH   1   7
BRANCH   5  11
ATOM     11  C   UNL     1      44.297   5.393  10.990  0.00  0.00    +0.000 C 
BRANCH  11  12
ATOM     12  N   UNL     1      45.205   5.443  12.127  0.00  0.00    +0.000 N 
ATOM     13  N   UNL     1      44.984   4.624  13.186  0.00  0.00    +0.000 NA
ATOM     14  C   UNL     1      46.072   4.785  13.940  0.00  0.00    +0.000 A 
ATOM     15  C   UNL     1      46.999   5.690  13.380  0.00  0.00    +0.000 A 
ATOM     16  C   UNL     1      48.271   6.176  13.731  0.00  0.00    +0.000 A 
ATOM     17  C   UNL     1      48.904   7.090  12.881  0.00  0.00    +0.000 A 
ATOM     18  C   UNL     1      48.282   7.522  11.710  0.00  0.00    +0.000 A 
ATOM     19  C   UNL     1      47.016   7.050  11.346  0.00  0.00    +0.000 A 
ATOM     20  C   UNL     1      46.401   6.124  12.200  0.00  0.00    +0.000 A 
ENDBRANCH  11  12
ENDBRANCH   5  11
TORSDOF 4
ENDMDL
MODEL 6
REMARK VINA RESULT:    -6.447      1.298      2.003
REMARK INTER + INTRA:          -7.986
REMARK INTER:                  -7.593
REMARK INTRA:                  -0.393
REMARK UNBOUND:                -0.220
REMARK  Name = 
REMARK  4 active torsions:
REMARK  status: ('A' for Active; 'I' for Inactive)
REMARK    1  A    between atoms: N_1  and  C_2
REMARK    2  A    between atoms: C_2  and  C_3
REMARK    3  A    between atoms: C_7  and  C_8
REMARK    4  A    between atoms: C_8  and  N_9
REMARK                            x       y       z     vdW  Elec       q    Type
REMARK                         _______ _______ _______ _____ _____    ______ ____
ROOT
ATOM      1  C   UNL     1      46.232   3.213   7.538  0.00  0.00    +0.000 A 
ATOM      2  C   UNL     1      46.144   1.841   7.753  0.00  0.00    +0.000 A 
ATOM      3  C   UNL     1      45.280   1.372   8.732  0.00  0.00    +0.000 A 
ATOM      4  C   UNL     1      44.536   2.280   9.480  0.00  0.00    +0.000 A 
ATOM      5  C   UNL     1      44.679   3.643   9.227  0.00  0.00    +0.000 A 
ATOM      6  N   UNL     1      45.514   4.113   8.260  0.00  0.00    +0.000 NA
ENDROOT
BRANCH   1   7
ATOM      7  C   UNL     1      47.141   3.753   6.454  0.00  0.00    +0.000 C 
BRANCH   7   8
ATOM      8  N   UNL     1      48.319   2.908   6.235  0.00  0.00    +0.000 NA
ATOM      9  H   UNL     1      48.929   3.366   5.560  0.00  0.00    +0.000 HD
ATOM     10  H   UNL     1      48.004   2.045   5.788  0.00  0.00    +0.000 HD
ENDBRANCH   7   8
ENDBRANCH   1   7
BRANCH   5  11
ATOM     11  C   UNL     1      43.983   4.665  10.084  0.00  0.00    +0.000 C 
BRANCH  11  12
ATOM     12  N   UNL     1      44.901   5.414  10.930  0.00  0.00    +0.000 N 
ATOM     13  N   UNL     1      44.970   6.763  10.797  0.00  0.00    +0.000 NA
ATOM     14  C   UNL     1      45.741   7.139  11.819  0.00  0.00    +0.000 A 
ATOM     15  C   UNL     1      46.163   6.054  12.617  0.00  0.00    +0.000 A 
ATOM     16  C   UNL     1      46.931   5.901  13.785  0.00  0.00    +0.000 A 
ATOM     17  C   UNL     1      47.127   4.615  14.301  0.00  0.00    +0.000 A 
ATOM     18  C   UNL     1      46.580   3.501  13.665  0.00  0.00    +0.000 A 
ATOM     19  C   UNL     1      45.815   3.635  12.501  0.00  0.00    +0.000 A 
ATOM     20  C   UNL     1      45.616   4.930  12.004  0.00  0.00    +0.000 A 
ENDBRANCH  11  12
ENDBRANCH   5  11
TORSDOF 4
ENDMDL
MODEL 7
REMARK VINA RESULT:    -6.403      2.652      5.999
REMARK INTER + INTRA:          -7.932
REMARK INTER:                  -7.463
REMARK INTRA:                  -0.469
REMARK UNBOUND:                -0.220
REMARK  Name = 
REMARK  4 active torsions:
REMARK  status: ('A' for Active; 'I' for Inactive)
REMARK    1  A    between atoms: N_1  and  C_2
REMARK    2  A    between atoms: C_2  and  C_3
REMARK    3  A    between atoms: C_7  and  C_8
REMARK    4  A    between atoms: C_8  and  N_9
REMARK                            x       y       z     vdW  Elec       q    Type
REMARK                         _______ _______ _______ _____ _____    ______ ____
ROOT
ATOM      1  C   UNL     1      47.326   6.078  13.937  0.00  0.00    +0.000 A 
ATOM      2  C   UNL     1      48.139   7.094  13.442  0.00  0.00    +0.000 A 
ATOM      3  C   UNL     1      47.666   7.881  12.402  0.00  0.00    +0.000 A 
ATOM      4  C   UNL     1      46.403   7.630  11.874  0.00  0.00    +0.000 A 
ATOM      5  C   UNL     1      45.642   6.590  12.404  0.00  0.00    +0.000 A 
ATOM      6  N   UNL     1      46.092   5.820  13.432  0.00  0.00    +0.000 NA
ENDROOT
BRANCH   1   7
ATOM      7  C   UNL     1      47.801   5.224  15.094  0.00  0.00    +0.000 C 
BRANCH   7   8
ATOM      8  N   UNL     1      46.768   4.299  15.570  0.00  0.00    +0.000 NA
ATOM      9  H   UNL     1      45.959   4.840  15.871  0.00  0.00    +0.000 HD
ATOM     10  H   UNL     1      47.124   3.838  16.409  0.00  0.00    +0.000 HD
ENDBRANCH   7   8
ENDBRANCH   1   7
BRANCH   5  11
ATOM     11  C   UNL     1      44.321   6.210  11.793  0.00  0.00    +0.000 C 
BRANCH  11  12
ATOM     12  N   UNL     1      44.263   4.810  11.396  0.00  0.00    +0.000 N 
ATOM     13  N   UNL     1      43.523   3.945  12.134  0.00  0.00    +0.000 NA
ATOM     14  C   UNL     1      43.533   2.826  11.409  0.00  0.00    +0.000 A 
ATOM     15  C   UNL     1      44.261   2.957  10.207  0.00  0.00    +0.000 A 
ATOM     16  C   UNL     1      44.551   2.129   9.108  0.00  0.00    +0.000 A 
ATOM     17  C   UNL     1      45.326   2.640   8.061  0.00  0.00    +0.000 A 
ATOM     18  C   UNL     1      45.813   3.946   8.107  0.00  0.00    +0.000 A 
ATOM     19  C   UNL     1      45.536   4.784   9.194  0.00  0.00    +0.000 A 
ATOM     20  C   UNL     1      44.747   4.262  10.229  0.00  0.00    +0.000 A 
ENDBRANCH  11  12
ENDBRANCH   5  11
TORSDOF 4
ENDMDL
MODEL 8
REMARK VINA RESULT:    -5.964      2.655      4.856
REMARK INTER + INTRA:          -7.404
REMARK INTER:                  -7.007
REMARK INTRA:                  -0.396
REMARK UNBOUND:                -0.220
REMARK  Name = 
REMARK  4 active torsions:
REMARK  status: ('A' for Active; 'I' for Inactive)
REMARK    1  A    between atoms: N_1  and  C_2
REMARK    2  A    between atoms: C_2  and  C_3
REMARK    3  A    between atoms: C_7  and  C_8
REMARK    4  A    between atoms: C_8  and  N_9
REMARK                            x       y       z     vdW  Elec       q    Type
REMARK                         _______ _______ _______ _____ _____    ______ ____
ROOT
ATOM      1  C   UNL     1      44.466   4.134  10.408  0.00  0.00    +0.000 A 
ATOM      2  C   UNL     1      43.514   3.397  11.107  0.00  0.00    +0.000 A 
ATOM      3  C   UNL     1      43.482   3.489  12.491  0.00  0.00    +0.000 A 
ATOM      4  C   UNL     1      44.405   4.300  13.145  0.00  0.00    +0.000 A 
ATOM      5  C   UNL     1      45.342   5.003  12.390  0.00  0.00    +0.000 A 
ATOM      6  N   UNL     1      45.374   4.930  11.031  0.00  0.00    +0.000 NA
ENDROOT
BRANCH   1   7
ATOM      7  C   UNL     1      44.504   4.081   8.895  0.00  0.00    +0.000 C 
BRANCH   7   8
ATOM      8  N   UNL     1      45.585   4.895   8.332  0.00  0.00    +0.000 NA
ATOM      9  H   UNL     1      46.241   4.282   7.853  0.00  0.00    +0.000 HD
ATOM     10  H   UNL     1      46.103   5.308   9.110  0.00  0.00    +0.000 HD
ENDBRANCH   7   8
ENDBRANCH   1   7
BRANCH   5  11
ATOM     11  C   UNL     1      46.428   5.803  13.056  0.00  0.00    +0.000 C 
BRANCH  11  12
ATOM     12  N   UNL     1      46.432   7.201  12.652  0.00  0.00    +0.000 N 
ATOM     13  N   UNL     1      45.321   7.951  12.857  0.00  0.00    +0.000 NA
ATOM     14  C   UNL     1      45.718   9.189  12.558  0.00  0.00    +0.000 A 
ATOM     15  C   UNL     1      47.073   9.252  12.170  0.00  0.00    +0.000 A 
ATOM     16  C   UNL     1      47.969  10.270  11.797  0.00  0.00    +0.000 A 
ATOM     17  C   UNL     1      49.289   9.928  11.483  0.00  0.00    +0.000 A 
ATOM     18  C   UNL     1      49.711   8.599  11.529  0.00  0.00    +0.000 A 
ATOM     19  C   UNL     1      48.833   7.573  11.896  0.00  0.00    +0.000 A 
ATOM     20  C   UNL     1      47.517   7.933  12.221  0.00  0.00    +0.000 A 
ENDBRANCH  11  12
ENDBRANCH   5  11
TORSDOF 4
ENDMDL
MODEL 9
REMARK VINA RESULT:    -5.830      2.802      6.110
REMARK INTER + INTRA:          -7.242
REMARK INTER:                  -6.916
REMARK INTRA:                  -0.326
REMARK UNBOUND:                -0.220
REMARK  Name = 
REMARK  4 active torsions:
REMARK  status: ('A' for Active; 'I' for Inactive)
REMARK    1  A    between atoms: N_1  and  C_2
REMARK    2  A    between atoms: C_2  and  C_3
REMARK    3  A    between atoms: C_7  and  C_8
REMARK    4  A    between atoms: C_8  and  N_9
REMARK                            x       y       z     vdW  Elec       q    Type
REMARK                         _______ _______ _______ _____ _____    ______ ____
ROOT
ATOM      1  C   UNL     1      47.768   8.867  12.497  0.00  0.00    +0.000 A 
ATOM      2  C   UNL     1      48.704   7.930  12.925  0.00  0.00    +0.000 A 
ATOM      3  C   UNL     1      48.377   6.582  12.862  0.00  0.00    +0.000 A 
ATOM      4  C   UNL     1      47.124   6.203  12.388  0.00  0.00    +0.000 A 
ATOM      5  C   UNL     1      46.225   7.190  11.988  0.00  0.00    +0.000 A 
ATOM      6  N   UNL     1      46.540   8.513  12.033  0.00  0.00    +0.000 NA
ENDROOT
BRANCH   1   7
ATOM      7  C   UNL     1      48.107  10.342  12.522  0.00  0.00    +0.000 C 
BRANCH   7   8
ATOM      8  N   UNL     1      46.914  11.193  12.550  0.00  0.00    +0.000 NA
ATOM      9  H   UNL     1      46.096  10.605  12.701  0.00  0.00    +0.000 HD
ATOM     10  H   UNL     1      46.798  11.600  11.620  0.00  0.00    +0.000 HD
ENDBRANCH   7   8
ENDBRANCH   1   7
BRANCH   5  11
ATOM     11  C   UNL     1      44.822   6.836  11.576  0.00  0.00    +0.000 C 
BRANCH  11  12
ATOM     12  N   UNL     1      44.627   5.405  11.401  0.00  0.00    +0.000 N 
ATOM     13  N   UNL     1      43.923   4.714  12.333  0.00  0.00    +0.000 NA
ATOM     14  C   UNL     1      43.777   3.507  11.785  0.00  0.00    +0.000 A 
ATOM     15  C   UNL     1      44.368   3.409  10.507  0.00  0.00    +0.000 A 
ATOM     16  C   UNL     1      44.474   2.413   9.520  0.00  0.00    +0.000 A 
ATOM     17  C   UNL     1      45.154   2.708   8.333  0.00  0.00    +0.000 A 
ATOM     18  C   UNL     1      45.727   3.964   8.133  0.00  0.00    +0.000 A 
ATOM     19  C   UNL     1      45.633   4.966   9.106  0.00  0.00    +0.000 A 
ATOM     20  C   UNL     1      44.937   4.660  10.284  0.00  0.00    +0.000 A 
ENDBRANCH  11  12
ENDBRANCH   5  11
TORSDOF 4
ENDMDL
