MODEL 1
REMARK VINA RESULT:    -8.123      0.000      0.000
REMARK INTER + INTRA:         -11.730
REMARK INTER:                 -10.734
REMARK INTRA:                  -0.995
REMARK UNBOUND:                -0.995
REMARK  Name = 
REMARK  7 active torsions:
REMARK  status: ('A' for Active; 'I' for Inactive)
REMARK    1  A    between atoms: C_1  and  C_2
REMARK    2  A    between atoms: C_2  and  C_3
REMARK    3  A    between atoms: C_7  and  C_8
REMARK    4  A    between atoms: C_8  and  C_9
REMARK    5  A    between atoms: C_9  and  N_10
REMARK    6  A    between atoms: C_14  and  C_15
REMARK    7  A    between atoms: C_23  and  O_24
REMARK                            x       y       z     vdW  Elec       q    Type
REMARK                         _______ _______ _______ _____ _____    ______ ____
ROOT
ATOM      1  C   UNL     1      46.919   6.470  12.913  0.00  0.00    +0.000 A 
ATOM      2  C   UNL     1      47.502   5.346  13.514  0.00  0.00    +0.000 A 
ATOM      3  C   UNL     1      46.784   4.158  13.670  0.00  0.00    +0.000 A 
ATOM      4  C   UNL     1      45.455   4.071  13.245  0.00  0.00    +0.000 A 
ATOM      5  C   UNL     1      44.839   5.171  12.642  0.00  0.00    +0.000 A 
ATOM      6  C   UNL     1      45.604   6.335  12.454  0.00  0.00    +0.000 A 
ENDROOT
BRANCH   1   8
ATOM      7  C   UNL     1      48.238   8.044  14.289  0.00  0.00    +0.000 C 
ATOM      8  C   UNL     1      47.652   7.829  12.872  0.00  0.00    +0.000 C 
ATOM      9  C   UNL     1      48.776   7.797  11.803  0.00  0.00    +0.000 C 
ATOM     10  C   UNL     1      49.502   9.134  11.645  0.00  0.00    +0.000 C 
ATOM     11  C   UNL     1      48.541  10.285  11.360  0.00  0.00    +0.000 C 
ATOM     12  C   UNL     1      47.426  10.365  12.395  0.00  0.00    +0.000 C 
ATOM     13  C   UNL     1      46.708   9.028  12.537  0.00  0.00    +0.000 C 
BRANCH  11  14
ATOM     14  O   UNL     1      49.259  11.513  11.343  0.00  0.00    +0.000 OA
ATOM     15  H   UNL     1      49.072  11.982  12.174  0.00  0.00    +0.000 HD
ENDBRANCH  11  14
ENDBRANCH   1   8
BRANCH   5  16
ATOM     16  C   UNL     1      43.364   5.125  12.267  0.00  0.00    +0.000 C 
BRANCH  16  17
ATOM     17  C   UNL     1      43.098   4.461  10.904  0.00  0.00    +0.000 C 
BRANCH  17  18
ATOM     18  N   UNL     1      43.901   5.016   9.809  0.00  0.00    +0.000 N 
ATOM     19  C   UNL     1      44.692   4.005   9.209  0.00  0.00    +0.000 A 
ATOM     20  C   UNL     1      45.535   4.311   8.134  0.00  0.00    +0.000 A 
ATOM     21  N   UNL     1      46.326   3.404   7.493  0.00  0.00    +0.000 NA
ATOM     22  C   UNL     1      46.232   2.135   7.978  0.00  0.00    +0.000 A 
ATOM     23  C   UNL     1      45.403   1.810   9.037  0.00  0.00    +0.000 A 
ATOM     24  N   UNL     1      44.624   2.729   9.659  0.00  0.00    +0.000 NA
ATOM     25  H   UNL     1      44.518   5.755  10.138  0.00  0.00    +0.000 HD
BRANCH  22  26
ATOM     26  C   UNL     1      47.057   1.074   7.342  0.00  0.00    +0.000 C 
ATOM     27  N   UNL     1      46.755  -0.222   7.652  0.00  0.00    +0.000 N 
ATOM     28  O   UNL     1      47.972   1.343   6.566  0.00  0.00    +0.000 OA
ATOM     29  H   UNL     1      45.999  -0.446   8.290  0.00  0.00    +0.000 HD
ATOM     30  H   UNL     1      47.299  -0.961   7.228  0.00  0.00    +0.000 HD
ENDBRANCH  22  26
ENDBRANCH  17  18
ENDBRANCH  16  17
ENDBRANCH   5  16
TORSDOF 6
ENDMDL
MODEL 2
REMARK VINA RESULT:    -8.079      3.881      7.531
REMARK INTER + INTRA:         -11.671
REMARK INTER:                 -11.006
REMARK INTRA:                  -0.666
REMARK UNBOUND:                -0.995
REMARK  Name = 
REMARK  7 active torsions:
REMARK  status: ('A' for Active; 'I' for Inactive)
REMARK    1  A    between atoms: C_1  and  C_2
REMARK    2  A    between atoms: C_2  and  C_3
REMARK    3  A    between atoms: C_7  and  C_8
REMARK    4  A    between atoms: C_8  and  C_9
REMARK    5  A    between atoms: C_9  and  N_10
REMARK    6  A    between atoms: C_14  and  C_15
REMARK    7  A    between atoms: C_23  and  O_24
REMARK                            x       y       z     vdW  Elec       q    Type
REMARK                         _______ _______ _______ _____ _____    ______ ____
ROOT
ATOM      1  C   UNL     1      44.935   4.311   9.538  0.00  0.00    +0.000 A 
ATOM      2  C   UNL     1      43.790   3.887  10.227  0.00  0.00    +0.000 A 
ATOM      3  C   UNL     1      43.365   4.539  11.388  0.00  0.00    +0.000 A 
ATOM      4  C   UNL     1      44.087   5.620  11.899  0.00  0.00    +0.000 A 
ATOM      5  C   UNL     1      45.235   6.071  11.242  0.00  0.00    +0.000 A 
ATOM      6  C   UNL     1      45.608   5.427  10.049  0.00  0.00    +0.000 A 
ENDROOT
BRANCH   1   8
ATOM      7  C   UNL     1      44.304   3.282   7.382  0.00  0.00    +0.000 C 
ATOM      8  C   UNL     1      45.496   3.509   8.344  0.00  0.00    +0.000 C 
ATOM      9  C   UNL     1      46.629   4.308   7.648  0.00  0.00    +0.000 C 
ATOM     10  C   UNL     1      47.292   3.546   6.499  0.00  0.00    +0.000 C 
ATOM     11  C   UNL     1      47.807   2.177   6.932  0.00  0.00    +0.000 C 
ATOM     12  C   UNL     1      46.723   1.349   7.608  0.00  0.00    +0.000 C 
ATOM     13  C   UNL     1      46.076   2.117   8.755  0.00  0.00    +0.000 C 
BRANCH  11  14
ATOM     14  O   UNL     1      48.301   1.473   5.798  0.00  0.00    +0.000 OA
ATOM     15  H   UNL     1      47.868   1.836   5.007  0.00  0.00    +0.000 HD
ENDBRANCH  11  14
ENDBRANCH   1   8
BRANCH   5  16
ATOM     16  C   UNL     1      46.088   7.181  11.841  0.00  0.00    +0.000 C 
BRANCH  16  17
ATOM     17  C   UNL     1      47.585   6.832  11.916  0.00  0.00    +0.000 C 
BRANCH  17  18
ATOM     18  N   UNL     1      48.234   7.277  13.154  0.00  0.00    +0.000 N 
ATOM     19  C   UNL     1      48.038   6.328  14.189  0.00  0.00    +0.000 A 
ATOM     20  C   UNL     1      48.580   6.548  15.462  0.00  0.00    +0.000 A 
ATOM     21  N   UNL     1      48.447   5.690  16.513  0.00  0.00    +0.000 NA
ATOM     22  C   UNL     1      47.735   4.563  16.232  0.00  0.00    +0.000 A 
ATOM     23  C   UNL     1      47.194   4.326  14.982  0.00  0.00    +0.000 A 
ATOM     24  N   UNL     1      47.340   5.192  13.949  0.00  0.00    +0.000 NA
ATOM     25  H   UNL     1      47.868   8.173  13.465  0.00  0.00    +0.000 HD
BRANCH  22  26
ATOM     26  C   UNL     1      47.537   3.566  17.318  0.00  0.00    +0.000 C 
ATOM     27  N   UNL     1      48.568   3.387  18.197  0.00  0.00    +0.000 N 
ATOM     28  O   UNL     1      46.492   2.929  17.429  0.00  0.00    +0.000 OA
ATOM     29  H   UNL     1      49.430   3.914  18.108  0.00  0.00    +0.000 HD
ATOM     30  H   UNL     1      48.455   2.718  18.946  0.00  0.00    +0.000 HD
ENDBRANCH  22  26
ENDBRANCH  17  18
ENDBRANCH  16  17
ENDBRANCH   5  16
TORSDOF 6
ENDMDL
MODEL 3
REMARK VINA RESULT:    -7.696      4.612      7.720
REMARK INTER + INTRA:         -11.165
REMARK INTER:                  -9.985
REMARK INTRA:                  -1.181
REMARK UNBOUND:                -0.995
REMARK  Name = 
REMARK  7 active torsions:
REMARK  status: ('A' for Active; 'I' for Inactive)
REMARK    1  A    between atoms: C_1  and  C_2
REMARK    2  A    between atoms: C_2  and  C_3
REMARK    3  A    between atoms: C_7  and  C_8
REMARK    4  A    between atoms: C_8  and  C_9
REMARK    5  A    between atoms: C_9  and  N_10
REMARK    6  A    between atoms: C_14  and  C_15
REMARK    7  A    between atoms: C_23  and  O_24
REMARK                            x       y       z     vdW  Elec       q    Type
REMARK                         _______ _______ _______ _____ _____    ______ ____
ROOT
ATOM      1  C   UNL     1      45.484   7.128  11.541  0.00  0.00    +0.000 A 
ATOM      2  C   UNL     1      44.590   8.196  11.381  0.00  0.00    +0.000 A 
ATOM      3  C   UNL     1      44.959   9.501  11.713  0.00  0.00    +0.000 A 
ATOM      4  C   UNL     1      46.228   9.769  12.233  0.00  0.00    +0.000 A 
ATOM      5  C   UNL     1      47.147   8.731  12.409  0.00  0.00    +0.000 A 
ATOM      6  C   UNL     1      46.763   7.437  12.018  0.00  0.00    +0.000 A 
ENDROOT
BRANCH   1   8
ATOM      7  C   UNL     1      45.508   5.286   9.894  0.00  0.00    +0.000 C 
ATOM      8  C   UNL     1      45.038   5.666  11.319  0.00  0.00    +0.000 C 
ATOM      9  C   UNL     1      45.684   4.742  12.384  0.00  0.00    +0.000 C 
ATOM     10  C   UNL     1      45.230   3.285  12.280  0.00  0.00    +0.000 C 
ATOM     11  C   UNL     1      43.711   3.148  12.320  0.00  0.00    +0.000 C 
ATOM     12  C   UNL     1      43.032   4.028  11.279  0.00  0.00    +0.000 C 
ATOM     13  C   UNL     1      43.489   5.477  11.399  0.00  0.00    +0.000 C 
BRANCH  11  14
ATOM     14  O   UNL     1      43.349   1.789  12.099  0.00  0.00    +0.000 OA
ATOM     15  H   UNL     1      43.753   1.503  11.263  0.00  0.00    +0.000 HD
ENDBRANCH  11  14
ENDBRANCH   1   8
BRANCH   5  16
ATOM     16  C   UNL     1      48.495   8.991  13.069  0.00  0.00    +0.000 C 
BRANCH  16  17
ATOM     17  C   UNL     1      49.259   7.705  13.430  0.00  0.00    +0.000 C 
BRANCH  17  18
ATOM     18  N   UNL     1      49.771   7.688  14.804  0.00  0.00    +0.000 N 
ATOM     19  C   UNL     1      49.187   6.626  15.540  0.00  0.00    +0.000 A 
ATOM     20  C   UNL     1      49.539   6.417  16.880  0.00  0.00    +0.000 A 
ATOM     21  N   UNL     1      49.034   5.421  17.661  0.00  0.00    +0.000 NA
ATOM     22  C   UNL     1      48.142   4.608  17.029  0.00  0.00    +0.000 A 
ATOM     23  C   UNL     1      47.783   4.795  15.706  0.00  0.00    +0.000 A 
ATOM     24  N   UNL     1      48.300   5.793  14.947  0.00  0.00    +0.000 NA
ATOM     25  H   UNL     1      49.572   8.561  15.287  0.00  0.00    +0.000 HD
BRANCH  22  26
ATOM     26  C   UNL     1      47.537   3.490  17.801  0.00  0.00    +0.000 C 
ATOM     27  N   UNL     1      48.192   3.085  18.930  0.00  0.00    +0.000 N 
ATOM     28  O   UNL     1      46.490   2.951  17.449  0.00  0.00    +0.000 OA
ATOM     29  H   UNL     1      49.055   3.530  19.224  0.00  0.00    +0.000 HD
ATOM     30  H   UNL     1      47.798   2.330  19.474  0.00  0.00    +0.000 HD
ENDBRANCH  22  26
ENDBRANCH  17  18
ENDBRANCH  16  17
ENDBRANCH   5  16
TORSDOF 6
ENDMDL
MODEL 4
REMARK VINA RESULT:    -7.654      4.263      8.095
REMARK INTER + INTRA:         -11.110
REMARK INTER:                 -10.286
REMARK INTRA:                  -0.823
REMARK UNBOUND:                -0.995
REMARK  Name = 
REMARK  7 active torsions:
REMARK  status: ('A' for Active; 'I' for Inactive)
REMARK    1  A    between atoms: C_1  and  C_2
REMARK    2  A    between atoms: C_2  and  C_3
REMARK    3  A    between atoms: C_7  and  C_8
REMARK    4  A    between atoms: C_8  and  C_9
REMARK    5  A    between atoms: C_9  and  N_10
REMARK    6  A    between atoms: C_14  and  C_15
REMARK    7  A    between atoms: C_23  and  O_24
REMARK                            x       y       z     vdW  Elec       q    Type
REMARK                         _______ _______ _______ _____ _____    ______ ____
ROOT
ATOM      1  C   UNL     1      44.819   4.528   9.835  0.00  0.00    +0.000 A 
ATOM      2  C   UNL     1      43.509   4.407  10.318  0.00  0.00    +0.000 A 
ATOM      3  C   UNL     1      43.099   5.084  11.469  0.00  0.00    +0.000 A 
ATOM      4  C   UNL     1      43.998   5.885  12.178  0.00  0.00    +0.000 A 
ATOM      5  C   UNL     1      45.314   6.029  11.730  0.00  0.00    +0.000 A 
ATOM      6  C   UNL     1      45.681   5.376  10.541  0.00  0.00    +0.000 A 
ENDROOT
BRANCH   1   8
ATOM      7  C   UNL     1      44.134   3.559   7.668  0.00  0.00    +0.000 C 
ATOM      8  C   UNL     1      45.322   3.670   8.654  0.00  0.00    +0.000 C 
ATOM      9  C   UNL     1      46.543   4.350   7.981  0.00  0.00    +0.000 C 
ATOM     10  C   UNL     1      47.150   3.523   6.846  0.00  0.00    +0.000 C 
ATOM     11  C   UNL     1      47.518   2.110   7.292  0.00  0.00    +0.000 C 
ATOM     12  C   UNL     1      46.343   1.396   7.947  0.00  0.00    +0.000 C 
ATOM     13  C   UNL     1      45.752   2.229   9.079  0.00  0.00    +0.000 C 
BRANCH  11  14
ATOM     14  O   UNL     1      47.963   1.357   6.169  0.00  0.00    +0.000 OA
ATOM     15  H   UNL     1      47.470   0.519   6.155  0.00  0.00    +0.000 HD
ENDBRANCH  11  14
ENDBRANCH   1   8
BRANCH   5  16
ATOM     16  C   UNL     1      46.331   6.816  12.546  0.00  0.00    +0.000 C 
BRANCH  16  17
ATOM     17  C   UNL     1      47.427   5.936  13.172  0.00  0.00    +0.000 C 
BRANCH  17  18
ATOM     18  N   UNL     1      46.908   4.784  13.916  0.00  0.00    +0.000 N 
ATOM     19  C   UNL     1      47.456   4.745  15.223  0.00  0.00    +0.000 A 
ATOM     20  C   UNL     1      47.092   3.727  16.113  0.00  0.00    +0.000 A 
ATOM     21  N   UNL     1      47.563   3.614  17.387  0.00  0.00    +0.000 NA
ATOM     22  C   UNL     1      48.434   4.595  17.753  0.00  0.00    +0.000 A 
ATOM     23  C   UNL     1      48.806   5.611  16.890  0.00  0.00    +0.000 A 
ATOM     24  N   UNL     1      48.323   5.705  15.627  0.00  0.00    +0.000 NA
ATOM     25  H   UNL     1      47.129   3.908  13.448  0.00  0.00    +0.000 HD
BRANCH  22  26
ATOM     26  C   UNL     1      49.003   4.556  19.127  0.00  0.00    +0.000 C 
ATOM     27  N   UNL     1      48.518   3.602  19.976  0.00  0.00    +0.000 N 
ATOM     28  O   UNL     1      49.874   5.344  19.490  0.00  0.00    +0.000 OA
ATOM     29  H   UNL     1      47.801   2.949  19.678  0.00  0.00    +0.000 HD
ATOM     30  H   UNL     1      48.892   3.552  20.914  0.00  0.00    +0.000 HD
ENDBRANCH  22  26
ENDBRANCH  17  18
ENDBRANCH  16  17
ENDBRANCH   5  16
TORSDOF 6
ENDMDL
MODEL 5
REMARK VINA RESULT:    -7.392      1.503      2.407
REMARK INTER + INTRA:         -10.764
REMARK INTER:                  -9.981
REMARK INTRA:                  -0.784
REMARK UNBOUND:                -0.995
REMARK  Name = 
REMARK  7 active torsions:
REMARK  status: ('A' for Active; 'I' for Inactive)
REMARK    1  A    between atoms: C_1  and  C_2
REMARK    2  A    between atoms: C_2  and  C_3
REMARK    3  A    between atoms: C_7  and  C_8
REMARK    4  A    between atoms: C_8  and  C_9
REMARK    5  A    between atoms: C_9  and  N_10
REMARK    6  A    between atoms: C_14  and  C_15
REMARK    7  A    between atoms: C_23  and  O_24
REMARK                            x       y       z     vdW  Elec       q    Type
REMARK                         _______ _______ _______ _____ _____    ______ ____
ROOT
ATOM      1  C   UNL     1      46.102   7.589  12.455  0.00  0.00    +0.000 A 
ATOM      2  C   UNL     1      45.767   8.819  11.871  0.00  0.00    +0.000 A 
ATOM      3  C   UNL     1      44.501   9.036  11.322  0.00  0.00    +0.000 A 
ATOM      4  C   UNL     1      43.542   8.019  11.329  0.00  0.00    +0.000 A 
ATOM      5  C   UNL     1      43.838   6.779  11.901  0.00  0.00    +0.000 A 
ATOM      6  C   UNL     1      45.103   6.609  12.489  0.00  0.00    +0.000 A 
ENDROOT
BRANCH   1   8
ATOM      7  C   UNL     1      47.565   5.790  13.310  0.00  0.00    +0.000 C 
ATOM      8  C   UNL     1      47.541   7.290  12.928  0.00  0.00    +0.000 C 
ATOM      9  C   UNL     1      48.551   7.591  11.789  0.00  0.00    +0.000 C 
ATOM     10  C   UNL     1      50.010   7.394  12.203  0.00  0.00    +0.000 C 
ATOM     11  C   UNL     1      50.372   8.196  13.450  0.00  0.00    +0.000 C 
ATOM     12  C   UNL     1      49.415   7.922  14.602  0.00  0.00    +0.000 C 
ATOM     13  C   UNL     1      47.966   8.128  14.176  0.00  0.00    +0.000 C 
BRANCH  11  14
ATOM     14  O   UNL     1      51.700   7.879  13.852  0.00  0.00    +0.000 OA
ATOM     15  H   UNL     1      52.189   8.712  13.958  0.00  0.00    +0.000 HD
ENDBRANCH  11  14
ENDBRANCH   1   8
BRANCH   5  16
ATOM     16  C   UNL     1      42.841   5.631  11.825  0.00  0.00    +0.000 C 
BRANCH  16  17
ATOM     17  C   UNL     1      43.218   4.558  10.788  0.00  0.00    +0.000 C 
BRANCH  17  18
ATOM     18  N   UNL     1      44.049   5.063   9.691  0.00  0.00    +0.000 N 
ATOM     19  C   UNL     1      44.804   4.012   9.113  0.00  0.00    +0.000 A 
ATOM     20  C   UNL     1      45.667   4.268   8.039  0.00  0.00    +0.000 A 
ATOM     21  N   UNL     1      46.426   3.321   7.418  0.00  0.00    +0.000 NA
ATOM     22  C   UNL     1      46.278   2.064   7.922  0.00  0.00    +0.000 A 
ATOM     23  C   UNL     1      45.430   1.789   8.980  0.00  0.00    +0.000 A 
ATOM     24  N   UNL     1      44.683   2.747   9.582  0.00  0.00    +0.000 NA
ATOM     25  H   UNL     1      44.693   5.783  10.012  0.00  0.00    +0.000 HD
BRANCH  22  26
ATOM     26  C   UNL     1      47.066   0.962   7.309  0.00  0.00    +0.000 C 
ATOM     27  N   UNL     1      46.733  -0.315   7.665  0.00  0.00    +0.000 N 
ATOM     28  O   UNL     1      47.976   1.181   6.512  0.00  0.00    +0.000 OA
ATOM     29  H   UNL     1      45.981  -0.499   8.319  0.00  0.00    +0.000 HD
ATOM     30  H   UNL     1      47.251  -1.082   7.257  0.00  0.00    +0.000 HD
ENDBRANCH  22  26
ENDBRANCH  17  18
ENDBRANCH  16  17
ENDBRANCH   5  16
TORSDOF 6
ENDMDL
MODEL 6
REMARK VINA RESULT:    -6.964      1.631      2.659
REMARK INTER + INTRA:         -10.199
REMARK INTER:                  -9.385
REMARK INTRA:                  -0.814
REMARK UNBOUND:                -0.995
REMARK  Name = 
REMARK  7 active torsions:
REMARK  status: ('A' for Active; 'I' for Inactive)
REMARK    1  A    between atoms: C_1  and  C_2
REMARK    2  A    between atoms: C_2  and  C_3
REMARK    3  A    between atoms: C_7  and  C_8
REMARK    4  A    between atoms: C_8  and  C_9
REMARK    5  A    between atoms: C_9  and  N_10
REMARK    6  A    between atoms: C_14  and  C_15
REMARK    7  A    between atoms: C_23  and  O_24
REMARK                            x       y       z     vdW  Elec       q    Type
REMARK                         _______ _______ _______ _____ _____    ______ ____
ROOT
ATOM      1  C   UNL     1      46.747   8.755  12.123  0.00  0.00    +0.000 A 
ATOM      2  C   UNL     1      45.870   9.740  11.647  0.00  0.00    +0.000 A 
ATOM      3  C   UNL     1      44.537   9.439  11.358  0.00  0.00    +0.000 A 
ATOM      4  C   UNL     1      44.052   8.139  11.520  0.00  0.00    +0.000 A 
ATOM      5  C   UNL     1      44.895   7.129  11.991  0.00  0.00    +0.000 A 
ATOM      6  C   UNL     1      46.218   7.475  12.321  0.00  0.00    +0.000 A 
ENDROOT
BRANCH   1   8
ATOM      7  C   UNL     1      48.481   9.200  13.826  0.00  0.00    +0.000 C 
ATOM      8  C   UNL     1      48.254   9.041  12.303  0.00  0.00    +0.000 C 
ATOM      9  C   UNL     1      49.092   7.867  11.734  0.00  0.00    +0.000 C 
ATOM     10  C   UNL     1      50.601   8.108  11.804  0.00  0.00    +0.000 C 
ATOM     11  C   UNL     1      51.010   9.416  11.134  0.00  0.00    +0.000 C 
ATOM     12  C   UNL     1      50.222  10.603  11.672  0.00  0.00    +0.000 C 
ATOM     13  C   UNL     1      48.721  10.351  11.591  0.00  0.00    +0.000 C 
BRANCH  11  14
ATOM     14  O   UNL     1      52.401   9.641  11.337  0.00  0.00    +0.000 OA
ATOM     15  H   UNL     1      52.734   8.947  11.930  0.00  0.00    +0.000 HD
ENDBRANCH  11  14
ENDBRANCH   1   8
BRANCH   5  16
ATOM     16  C   UNL     1      44.410   5.688  12.076  0.00  0.00    +0.000 C 
BRANCH  16  17
ATOM     17  C   UNL     1      43.746   5.187  10.782  0.00  0.00    +0.000 C 
BRANCH  17  18
ATOM     18  N   UNL     1      43.823   3.733  10.602  0.00  0.00    +0.000 N 
ATOM     19  C   UNL     1      44.725   3.407   9.559  0.00  0.00    +0.000 A 
ATOM     20  C   UNL     1      44.959   2.068   9.219  0.00  0.00    +0.000 A 
ATOM     21  N   UNL     1      45.812   1.661   8.236  0.00  0.00    +0.000 NA
ATOM     22  C   UNL     1      46.450   2.677   7.591  0.00  0.00    +0.000 A 
ATOM     23  C   UNL     1      46.236   4.005   7.912  0.00  0.00    +0.000 A 
ATOM     24  N   UNL     1      45.384   4.387   8.895  0.00  0.00    +0.000 NA
ATOM     25  H   UNL     1      42.914   3.337  10.376  0.00  0.00    +0.000 HD
BRANCH  22  26
ATOM     26  C   UNL     1      47.403   2.331   6.501  0.00  0.00    +0.000 C 
ATOM     27  N   UNL     1      47.249   2.981   5.309  0.00  0.00    +0.000 N 
ATOM     28  O   UNL     1      48.295   1.501   6.660  0.00  0.00    +0.000 OA
ATOM     29  H   UNL     1      46.515   3.668   5.177  0.00  0.00    +0.000 HD
ATOM     30  H   UNL     1      47.887   2.767   4.554  0.00  0.00    +0.000 HD
ENDBRANCH  22  26
ENDBRANCH  17  18
ENDBRANCH  16  17
ENDBRANCH   5  16
TORSDOF 6
ENDMDL
MODEL 7
REMARK VINA RESULT:    -6.762      5.552      8.030
REMARK INTER + INTRA:          -9.932
REMARK INTER:                  -9.472
REMARK INTRA:                  -0.459
REMARK UNBOUND:                -0.995
REMARK  Name = 
REMARK  7 active torsions:
REMARK  status: ('A' for Active; 'I' for Inactive)
REMARK    1  A    between atoms: C_1  and  C_2
REMARK    2  A    between atoms: C_2  and  C_3
REMARK    3  A    between atoms: C_7  and  C_8
REMARK    4  A    between atoms: C_8  and  C_9
REMARK    5  A    between atoms: C_9  and  N_10
REMARK    6  A    between atoms: C_14  and  C_15
REMARK    7  A    between atoms: C_23  and  O_24
REMARK                            x       y       z     vdW  Elec       q    Type
REMARK                         _______ _______ _______ _____ _____    ______ ____
ROOT
ATOM      1  C   UNL     1      46.590   6.630  13.007  0.00  0.00    +0.000 A 
ATOM      2  C   UNL     1      46.457   8.017  12.853  0.00  0.00    +0.000 A 
ATOM      3  C   UNL     1      47.223   8.904  13.614  0.00  0.00    +0.000 A 
ATOM      4  C   UNL     1      48.130   8.423  14.562  0.00  0.00    +0.000 A 
ATOM      5  C   UNL     1      48.291   7.047  14.745  0.00  0.00    +0.000 A 
ATOM      6  C   UNL     1      47.542   6.181  13.929  0.00  0.00    +0.000 A 
ENDROOT
BRANCH   1   8
ATOM      7  C   UNL     1      45.786   5.953  10.770  0.00  0.00    +0.000 C 
ATOM      8  C   UNL     1      45.645   5.648  12.281  0.00  0.00    +0.000 C 
ATOM      9  C   UNL     1      46.052   4.184  12.594  0.00  0.00    +0.000 C 
ATOM     10  C   UNL     1      45.115   3.147  11.973  0.00  0.00    +0.000 C 
ATOM     11  C   UNL     1      43.657   3.378  12.360  0.00  0.00    +0.000 C 
ATOM     12  C   UNL     1      43.207   4.801  12.056  0.00  0.00    +0.000 C 
ATOM     13  C   UNL     1      44.146   5.823  12.686  0.00  0.00    +0.000 C 
BRANCH  11  14
ATOM     14  O   UNL     1      42.826   2.460  11.659  0.00  0.00    +0.000 OA
ATOM     15  H   UNL     1      42.338   2.955  10.979  0.00  0.00    +0.000 HD
ENDBRANCH  11  14
ENDBRANCH   1   8
BRANCH   5  16
ATOM     16  C   UNL     1      49.198   6.510  15.844  0.00  0.00    +0.000 C 
BRANCH  16  17
ATOM     17  C   UNL     1      48.439   5.780  16.966  0.00  0.00    +0.000 C 
BRANCH  17  18
ATOM     18  N   UNL     1      48.155   4.373  16.668  0.00  0.00    +0.000 N 
ATOM     19  C   UNL     1      49.292   3.568  16.928  0.00  0.00    +0.000 A 
ATOM     20  C   UNL     1      49.242   2.184  16.719  0.00  0.00    +0.000 A 
ATOM     21  N   UNL     1      50.283   1.333  16.946  0.00  0.00    +0.000 NA
ATOM     22  C   UNL     1      51.410   1.937  17.415  0.00  0.00    +0.000 A 
ATOM     23  C   UNL     1      51.479   3.302  17.632  0.00  0.00    +0.000 A 
ATOM     24  N   UNL     1      50.431   4.129  17.400  0.00  0.00    +0.000 NA
ATOM     25  H   UNL     1      47.885   4.245  15.695  0.00  0.00    +0.000 HD
BRANCH  22  26
ATOM     26  C   UNL     1      52.600   1.089  17.694  0.00  0.00    +0.000 C 
ATOM     27  N   UNL     1      52.377  -0.125  18.281  0.00  0.00    +0.000 N 
ATOM     28  O   UNL     1      53.738   1.456  17.409  0.00  0.00    +0.000 OA
ATOM     29  H   UNL     1      51.439  -0.431  18.514  0.00  0.00    +0.000 HD
ATOM     30  H   UNL     1      53.169  -0.722  18.476  0.00  0.00    +0.000 HD
ENDBRANCH  22  26
ENDBRANCH  17  18
ENDBRANCH  16  17
ENDBRANCH   5  16
TORSDOF 6
ENDMDL
MODEL 8
REMARK VINA RESULT:    -6.657      5.227      8.292
REMARK INTER + INTRA:          -9.793
REMARK INTER:                  -9.018
REMARK INTRA:                  -0.775
REMARK UNBOUND:                -0.995
REMARK  Name = 
REMARK  7 active torsions:
REMARK  status: ('A' for Active; 'I' for Inactive)
REMARK    1  A    between atoms: C_1  and  C_2
REMARK    2  A    between atoms: C_2  and  C_3
REMARK    3  A    between atoms: C_7  and  C_8
REMARK    4  A    between atoms: C_8  and  C_9
REMARK    5  A    between atoms: C_9  and  N_10
REMARK    6  A    between atoms: C_14  and  C_15
REMARK    7  A    between atoms: C_23  and  O_24
REMARK                            x       y       z     vdW  Elec       q    Type
REMARK                         _______ _______ _______ _____ _____    ______ ____
ROOT
ATOM      1  C   UNL     1      45.673   6.609  11.824  0.00  0.00    +0.000 A 
ATOM      2  C   UNL     1      45.002   7.827  12.004  0.00  0.00    +0.000 A 
ATOM      3  C   UNL     1      45.579   8.866  12.739  0.00  0.00    +0.000 A 
ATOM      4  C   UNL     1      46.836   8.705  13.328  0.00  0.00    +0.000 A 
ATOM      5  C   UNL     1      47.535   7.505  13.173  0.00  0.00    +0.000 A 
ATOM      6  C   UNL     1      46.950   6.498  12.386  0.00  0.00    +0.000 A 
ENDROOT
BRANCH   1   8
ATOM      7  C   UNL     1      43.474   5.746  11.097  0.00  0.00    +0.000 C 
ATOM      8  C   UNL     1      44.983   5.406  11.143  0.00  0.00    +0.000 C 
ATOM      9  C   UNL     1      45.552   5.203   9.715  0.00  0.00    +0.000 C 
ATOM     10  C   UNL     1      44.975   3.980   8.999  0.00  0.00    +0.000 C 
ATOM     11  C   UNL     1      45.139   2.701   9.815  0.00  0.00    +0.000 C 
ATOM     12  C   UNL     1      44.580   2.849  11.224  0.00  0.00    +0.000 C 
ATOM     13  C   UNL     1      45.168   4.067  11.926  0.00  0.00    +0.000 C 
BRANCH  11  14
ATOM     14  O   UNL     1      44.479   1.627   9.155  0.00  0.00    +0.000 OA
ATOM     15  H   UNL     1      44.077   1.058   9.834  0.00  0.00    +0.000 HD
ENDBRANCH  11  14
ENDBRANCH   1   8
BRANCH   5  16
ATOM     16  C   UNL     1      48.857   7.278  13.893  0.00  0.00    +0.000 C 
BRANCH  16  17
ATOM     17  C   UNL     1      48.741   7.346  15.425  0.00  0.00    +0.000 C 
BRANCH  17  18
ATOM     18  N   UNL     1      48.211   6.121  16.033  0.00  0.00    +0.000 N 
ATOM     19  C   UNL     1      49.248   5.386  16.660  0.00  0.00    +0.000 A 
ATOM     20  C   UNL     1      48.966   4.179  17.312  0.00  0.00    +0.000 A 
ATOM     21  N   UNL     1      49.897   3.410  17.945  0.00  0.00    +0.000 NA
ATOM     22  C   UNL     1      51.161   3.914  17.908  0.00  0.00    +0.000 A 
ATOM     23  C   UNL     1      51.462   5.105  17.272  0.00  0.00    +0.000 A 
ATOM     24  N   UNL     1      50.519   5.855  16.649  0.00  0.00    +0.000 NA
ATOM     25  H   UNL     1      47.767   5.523  15.340  0.00  0.00    +0.000 HD
BRANCH  22  26
ATOM     26  C   UNL     1      52.247   3.144  18.573  0.00  0.00    +0.000 C 
ATOM     27  N   UNL     1      52.331   1.810  18.288  0.00  0.00    +0.000 N 
ATOM     28  O   UNL     1      53.041   3.679  19.344  0.00  0.00    +0.000 OA
ATOM     29  H   UNL     1      51.678   1.368  17.650  0.00  0.00    +0.000 HD
ATOM     30  H   UNL     1      53.063   1.267  18.724  0.00  0.00    +0.000 HD
ENDBRANCH  22  26
ENDBRANCH  17  18
ENDBRANCH  16  17
ENDBRANCH   5  16
TORSDOF 6
ENDMDL
MODEL 9
REMARK VINA RESULT:    -6.522      4.401      6.796
REMARK INTER + INTRA:          -9.614
REMARK INTER:                  -8.587
REMARK INTRA:                  -1.027
REMARK UNBOUND:                -0.995
REMARK  Name = 
REMARK  7 active torsions:
REMARK  status: ('A' for Active; 'I' for Inactive)
REMARK    1  A    between atoms: C_1  and  C_2
REMARK    2  A    between atoms: C_2  and  C_3
REMARK    3  A    between atoms: C_7  and  C_8
REMARK    4  A    between atoms: C_8  and  C_9
REMARK    5  A    between atoms: C_9  and  N_10
REMARK    6  A    between atoms: C_14  and  C_15
REMARK    7  A    between atoms: C_23  and  O_24
REMARK                            x       y       z     vdW  Elec       q    Type
REMARK                         _______ _______ _______ _____ _____    ______ ____
ROOT
ATOM      1  C   UNL     1      48.968   6.446  17.230  0.00  0.00    +0.000 A 
ATOM      2  C   UNL     1      48.531   7.437  18.121  0.00  0.00    +0.000 A 
ATOM      3  C   UNL     1      48.217   8.722  17.673  0.00  0.00    +0.000 A 
ATOM      4  C   UNL     1      48.351   9.055  16.323  0.00  0.00    +0.000 A 
ATOM      5  C   UNL     1      48.785   8.096  15.404  0.00  0.00    +0.000 A 
ATOM      6  C   UNL     1      49.044   6.798  15.877  0.00  0.00    +0.000 A 
ENDROOT
BRANCH   1   8
ATOM      7  C   UNL     1      49.256   5.081  19.270  0.00  0.00    +0.000 C 
ATOM      8  C   UNL     1      49.458   5.072  17.735  0.00  0.00    +0.000 C 
ATOM      9  C   UNL     1      48.637   3.935  17.072  0.00  0.00    +0.000 C 
ATOM     10  C   UNL     1      49.114   2.535  17.461  0.00  0.00    +0.000 C 
ATOM     11  C   UNL     1      50.602   2.333  17.190  0.00  0.00    +0.000 C 
ATOM     12  C   UNL     1      51.451   3.420  17.836  0.00  0.00    +0.000 C 
ATOM     13  C   UNL     1      50.968   4.809  17.434  0.00  0.00    +0.000 C 
BRANCH  11  14
ATOM     14  O   UNL     1      51.008   1.061  17.682  0.00  0.00    +0.000 OA
ATOM     15  H   UNL     1      50.234   0.472  17.669  0.00  0.00    +0.000 HD
ENDBRANCH  11  14
ENDBRANCH   1   8
BRANCH   5  16
ATOM     16  C   UNL     1      49.033   8.470  13.949  0.00  0.00    +0.000 C 
BRANCH  16  17
ATOM     17  C   UNL     1      49.081   7.258  13.002  0.00  0.00    +0.000 C 
BRANCH  17  18
ATOM     18  N   UNL     1      48.173   7.366  11.856  0.00  0.00    +0.000 N 
ATOM     19  C   UNL     1      47.068   6.492  12.011  0.00  0.00    +0.000 A 
ATOM     20  C   UNL     1      46.068   6.435  11.032  0.00  0.00    +0.000 A 
ATOM     21  N   UNL     1      44.970   5.630  11.099  0.00  0.00    +0.000 NA
ATOM     22  C   UNL     1      44.903   4.865  12.224  0.00  0.00    +0.000 A 
ATOM     23  C   UNL     1      45.878   4.907  13.204  0.00  0.00    +0.000 A 
ATOM     24  N   UNL     1      46.962   5.717  13.117  0.00  0.00    +0.000 NA
ATOM     25  H   UNL     1      48.645   7.137  10.984  0.00  0.00    +0.000 HD
BRANCH  22  26
ATOM     26  C   UNL     1      43.739   3.953  12.387  0.00  0.00    +0.000 C 
ATOM     27  N   UNL     1      42.652   4.180  11.590  0.00  0.00    +0.000 N 
ATOM     28  O   UNL     1      43.747   3.031  13.200  0.00  0.00    +0.000 OA
ATOM     29  H   UNL     1      42.644   4.938  10.917  0.00  0.00    +0.000 HD
ATOM     30  H   UNL     1      41.850   3.570  11.679  0.00  0.00    +0.000 HD
ENDBRANCH  22  26
ENDBRANCH  17  18
ENDBRANCH  16  17
ENDBRANCH   5  16
TORSDOF 6
ENDMDL
