MODEL 1
REMARK VINA RESULT:    -7.685      0.000      0.000
REMARK INTER + INTRA:         -11.963
REMARK INTER:                 -10.830
REMARK INTRA:                  -1.133
REMARK UNBOUND:                -1.133
REMARK  Name = 
REMARK  8 active torsions:
REMARK  status: ('A' for Active; 'I' for Inactive)
REMARK    1  A    between atoms: C_1  and  N_2
REMARK    2  A    between atoms: N_2  and  C_3
REMARK    3  A    between atoms: C_3  and  C_4
REMARK    4  A    between atoms: C_8  and  C_9
REMARK    5  A    between atoms: C_9  and  C_10
REMARK    6  A    between atoms: C_13  and  C_14
REMARK    7  A    between atoms: C_14  and  N_15
REMARK    8  A    between atoms: C_16  and  C_18
REMARK                            x       y       z     vdW  Elec       q    Type
REMARK                         _______ _______ _______ _____ _____    ______ ____
ROOT
ATOM      1  C   UNL     1      44.819   6.158  11.356  0.00  0.00    +0.000 A 
ATOM      2  C   UNL     1      45.999   5.573  11.803  0.00  0.00    +0.000 A 
ATOM      3  C   UNL     1      46.867   6.322  12.594  0.00  0.00    +0.000 A 
ATOM      4  C   UNL     1      46.561   7.651  12.898  0.00  0.00    +0.000 A 
ATOM      5  C   UNL     1      45.387   8.164  12.369  0.00  0.00    +0.000 A 
ATOM      6  N   UNL     1      44.516   7.458  11.602  0.00  0.00    +0.000 NA
ENDROOT
BRANCH   1   7
ATOM      7  C   UNL     1      43.777   5.314  10.656  0.00  0.00    +0.000 C 
BRANCH   7  12
ATOM      8  C   UNL     1      45.817   3.489   7.967  0.00  0.00    +0.000 A 
ATOM      9  C   UNL     1      45.631   2.156   8.360  0.00  0.00    +0.000 A 
ATOM     10  C   UNL     1      44.786   1.841   9.425  0.00  0.00    +0.000 A 
ATOM     11  C   UNL     1      44.145   2.854  10.138  0.00  0.00    +0.000 A 
ATOM     12  C   UNL     1      44.359   4.199   9.807  0.00  0.00    +0.000 A 
ATOM     13  C   UNL     1      45.178   4.498   8.703  0.00  0.00    +0.000 A 
BRANCH   8  14
ATOM     14  C   UNL     1      46.725   3.846   6.809  0.00  0.00    +0.000 C 
BRANCH  14  16
ATOM     15  C   UNL     1      47.926   2.275   5.430  0.00  0.00    +0.000 C 
ATOM     16  N   UNL     1      47.876   2.944   6.721  0.00  0.00    +0.000 NA
ATOM     17  H   UNL     1      48.727   3.486   6.848  0.00  0.00    +0.000 HD
ENDBRANCH  14  16
ENDBRANCH   8  14
ENDBRANCH   7  12
ENDBRANCH   1   7
BRANCH   4  18
ATOM     18  C   UNL     1      47.446   8.489  13.779  0.00  0.00    +0.000 C 
BRANCH  18  19
ATOM     19  N   UNL     1      47.875   7.778  14.961  0.00  0.00    +0.000 N 
ATOM     20  C   UNL     1      49.144   7.260  15.060  0.00  0.00    +0.000 C 
ATOM     21  O   UNL     1      49.978   7.401  14.172  0.00  0.00    +0.000 OA
ATOM     22  H   UNL     1      47.151   7.423  15.577  0.00  0.00    +0.000 HD
BRANCH  20  23
ATOM     23  C   UNL     1      49.473   6.585  16.325  0.00  0.00    +0.000 A 
ATOM     24  C   UNL     1      50.469   7.099  17.148  0.00  0.00    +0.000 A 
ATOM     25  S   UNL     1      50.689   6.214  18.590  0.00  0.00    +0.000 S 
ATOM     26  C   UNL     1      49.497   5.086  18.146  0.00  0.00    +0.000 A 
ATOM     27  N   UNL     1      49.207   4.018  18.943  0.00  0.00    +0.000 NA
ATOM     28  C   UNL     1      48.307   3.226  18.470  0.00  0.00    +0.000 A 
ATOM     29  N   UNL     1      47.655   3.411  17.270  0.00  0.00    +0.000 N 
ATOM     30  C   UNL     1      47.885   4.494  16.458  0.00  0.00    +0.000 A 
ATOM     31  O   UNL     1      47.249   4.659  15.425  0.00  0.00    +0.000 OA
ATOM     32  C   UNL     1      48.916   5.396  16.930  0.00  0.00    +0.000 A 
ATOM     33  H   UNL     1      46.941   2.766  16.968  0.00  0.00    +0.000 HD
ENDBRANCH  20  23
ENDBRANCH  18  19
ENDBRANCH   4  18
TORSDOF 7
ENDMDL
MODEL 2
REMARK VINA RESULT:    -7.214      1.941      2.167
REMARK INTER + INTRA:         -11.300
REMARK INTER:                 -10.331
REMARK INTRA:                  -0.969
REMARK UNBOUND:                -1.133
REMARK  Name = 
REMARK  8 active torsions:
REMARK  status: ('A' for Active; 'I' for Inactive)
REMARK    1  A    between atoms: C_1  and  N_2
REMARK    2  A    between atoms: N_2  and  C_3
REMARK    3  A    between atoms: C_3  and  C_4
REMARK    4  A    between atoms: C_8  and  C_9
REMARK    5  A    between atoms: C_9  and  C_10
REMARK    6  A    between atoms: C_13  and  C_14
REMARK    7  A    between atoms: C_14  and  N_15
REMARK    8  A    between atoms: C_16  and  C_18
REMARK                            x       y       z     vdW  Elec       q    Type
REMARK                         _______ _______ _______ _____ _____    ______ ____
ROOT
ATOM      1  C   UNL     1      45.317   5.909  11.952  0.00  0.00    +0.000 A 
ATOM      2  C   UNL     1      45.819   7.174  11.662  0.00  0.00    +0.000 A 
ATOM      3  C   UNL     1      47.002   7.587  12.270  0.00  0.00    +0.000 A 
ATOM      4  C   UNL     1      47.647   6.747  13.182  0.00  0.00    +0.000 A 
ATOM      5  C   UNL     1      47.048   5.525  13.446  0.00  0.00    +0.000 A 
ATOM      6  N   UNL     1      45.901   5.090  12.864  0.00  0.00    +0.000 NA
ENDROOT
BRANCH   1   7
ATOM      7  C   UNL     1      44.142   5.366  11.169  0.00  0.00    +0.000 C 
BRANCH   7  12
ATOM      8  C   UNL     1      45.776   3.629   8.163  0.00  0.00    +0.000 A 
ATOM      9  C   UNL     1      45.417   2.296   8.407  0.00  0.00    +0.000 A 
ATOM     10  C   UNL     1      44.583   1.970   9.477  0.00  0.00    +0.000 A 
ATOM     11  C   UNL     1      44.127   2.964  10.343  0.00  0.00    +0.000 A 
ATOM     12  C   UNL     1      44.519   4.297  10.160  0.00  0.00    +0.000 A 
ATOM     13  C   UNL     1      45.323   4.617   9.051  0.00  0.00    +0.000 A 
BRANCH   8  14
ATOM     14  C   UNL     1      46.675   4.000   7.002  0.00  0.00    +0.000 C 
BRANCH  14  16
ATOM     15  C   UNL     1      47.732   2.267   5.702  0.00  0.00    +0.000 C 
ATOM     16  N   UNL     1      47.824   3.098   6.893  0.00  0.00    +0.000 NA
ATOM     17  H   UNL     1      48.674   3.655   6.845  0.00  0.00    +0.000 HD
ENDBRANCH  14  16
ENDBRANCH   8  14
ENDBRANCH   7  12
ENDBRANCH   1   7
BRANCH   4  18
ATOM     18  C   UNL     1      48.946   7.132  13.836  0.00  0.00    +0.000 C 
BRANCH  18  19
ATOM     19  N   UNL     1      48.764   7.574  15.198  0.00  0.00    +0.000 N 
ATOM     20  C   UNL     1      49.298   6.874  16.253  0.00  0.00    +0.000 C 
ATOM     21  O   UNL     1      49.975   5.865  16.090  0.00  0.00    +0.000 OA
ATOM     22  H   UNL     1      48.010   8.230  15.376  0.00  0.00    +0.000 HD
BRANCH  20  23
ATOM     23  C   UNL     1      49.071   7.442  17.591  0.00  0.00    +0.000 A 
ATOM     24  C   UNL     1      49.613   8.679  17.920  0.00  0.00    +0.000 A 
ATOM     25  S   UNL     1      49.218   9.202  19.496  0.00  0.00    +0.000 S 
ATOM     26  C   UNL     1      48.350   7.775  19.812  0.00  0.00    +0.000 A 
ATOM     27  N   UNL     1      47.770   7.559  21.027  0.00  0.00    +0.000 NA
ATOM     28  C   UNL     1      47.172   6.422  21.139  0.00  0.00    +0.000 A 
ATOM     29  N   UNL     1      47.087   5.480  20.138  0.00  0.00    +0.000 N 
ATOM     30  C   UNL     1      47.619   5.675  18.887  0.00  0.00    +0.000 A 
ATOM     31  O   UNL     1      47.479   4.842  18.001  0.00  0.00    +0.000 OA
ATOM     32  C   UNL     1      48.334   6.925  18.721  0.00  0.00    +0.000 A 
ATOM     33  H   UNL     1      46.582   4.620  20.283  0.00  0.00    +0.000 HD
ENDBRANCH  20  23
ENDBRANCH  18  19
ENDBRANCH   4  18
TORSDOF 7
ENDMDL
MODEL 3
REMARK VINA RESULT:    -7.116      3.025      4.802
REMARK INTER + INTRA:         -11.161
REMARK INTER:                 -10.249
REMARK INTRA:                  -0.912
REMARK UNBOUND:                -1.133
REMARK  Name = 
REMARK  8 active torsions:
REMARK  status: ('A' for Active; 'I' for Inactive)
REMARK    1  A    between atoms: C_1  and  N_2
REMARK    2  A    between atoms: N_2  and  C_3
REMARK    3  A    between atoms: C_3  and  C_4
REMARK    4  A    between atoms: C_8  and  C_9
REMARK    5  A    between atoms: C_9  and  C_10
REMARK    6  A    between atoms: C_13  and  C_14
REMARK    7  A    between atoms: C_14  and  N_15
REMARK    8  A    between atoms: C_16  and  C_18
REMARK                            x       y       z     vdW  Elec       q    Type
REMARK                         _______ _______ _______ _____ _____    ______ ____
ROOT
ATOM      1  C   UNL     1      47.362   5.576  13.780  0.00  0.00    +0.000 A 
ATOM      2  C   UNL     1      46.867   4.280  13.885  0.00  0.00    +0.000 A 
ATOM      3  C   UNL     1      47.043   3.585  15.078  0.00  0.00    +0.000 A 
ATOM      4  C   UNL     1      47.736   4.179  16.135  0.00  0.00    +0.000 A 
ATOM      5  C   UNL     1      48.236   5.454  15.923  0.00  0.00    +0.000 A 
ATOM      6  N   UNL     1      48.075   6.162  14.776  0.00  0.00    +0.000 NA
ENDROOT
BRANCH   1   7
ATOM      7  C   UNL     1      47.024   6.417  12.568  0.00  0.00    +0.000 C 
BRANCH   7  12
ATOM      8  C   UNL     1      44.554   4.859  10.080  0.00  0.00    +0.000 A 
ATOM      9  C   UNL     1      43.339   5.091  10.740  0.00  0.00    +0.000 A 
ATOM     10  C   UNL     1      43.305   5.821  11.930  0.00  0.00    +0.000 A 
ATOM     11  C   UNL     1      44.488   6.295  12.498  0.00  0.00    +0.000 A 
ATOM     12  C   UNL     1      45.723   6.025  11.893  0.00  0.00    +0.000 A 
ATOM     13  C   UNL     1      45.737   5.328  10.671  0.00  0.00    +0.000 A 
BRANCH   8  14
ATOM     14  C   UNL     1      44.606   4.076   8.785  0.00  0.00    +0.000 C 
BRANCH  14  16
ATOM     15  C   UNL     1      45.240   1.755   8.933  0.00  0.00    +0.000 C 
ATOM     16  N   UNL     1      44.134   2.700   8.961  0.00  0.00    +0.000 NA
ATOM     17  H   UNL     1      43.659   2.629   9.857  0.00  0.00    +0.000 HD
ENDBRANCH  14  16
ENDBRANCH   8  14
ENDBRANCH   7  12
ENDBRANCH   1   7
BRANCH   4  18
ATOM     18  C   UNL     1      47.919   3.484  17.457  0.00  0.00    +0.000 C 
BRANCH  18  19
ATOM     19  N   UNL     1      49.310   3.248  17.764  0.00  0.00    +0.000 N 
ATOM     20  C   UNL     1      50.042   2.307  17.080  0.00  0.00    +0.000 C 
ATOM     21  O   UNL     1      49.563   1.649  16.163  0.00  0.00    +0.000 OA
ATOM     22  H   UNL     1      49.648   3.572  18.665  0.00  0.00    +0.000 HD
BRANCH  20  23
ATOM     23  C   UNL     1      51.457   2.181  17.463  0.00  0.00    +0.000 A 
ATOM     24  C   UNL     1      52.018   0.921  17.643  0.00  0.00    +0.000 A 
ATOM     25  S   UNL     1      53.675   0.961  18.045  0.00  0.00    +0.000 S 
ATOM     26  C   UNL     1      53.693   2.661  18.041  0.00  0.00    +0.000 A 
ATOM     27  N   UNL     1      54.826   3.354  18.349  0.00  0.00    +0.000 NA
ATOM     28  C   UNL     1      54.688   4.636  18.339  0.00  0.00    +0.000 A 
ATOM     29  N   UNL     1      53.518   5.295  18.033  0.00  0.00    +0.000 N 
ATOM     30  C   UNL     1      52.367   4.638  17.675  0.00  0.00    +0.000 A 
ATOM     31  O   UNL     1      51.358   5.254  17.354  0.00  0.00    +0.000 OA
ATOM     32  C   UNL     1      52.460   3.192  17.706  0.00  0.00    +0.000 A 
ATOM     33  H   UNL     1      53.483   6.303  18.019  0.00  0.00    +0.000 HD
ENDBRANCH  20  23
ENDBRANCH  18  19
ENDBRANCH   4  18
TORSDOF 7
ENDMDL
MODEL 4
REMARK VINA RESULT:    -6.791      3.547      8.002
REMARK INTER + INTRA:         -10.704
REMARK INTER:                  -8.954
REMARK INTRA:                  -1.750
REMARK UNBOUND:                -1.133
REMARK  Name = 
REMARK  8 active torsions:
REMARK  status: ('A' for Active; 'I' for Inactive)
REMARK    1  A    between atoms: C_1  and  N_2
REMARK    2  A    between atoms: N_2  and  C_3
REMARK    3  A    between atoms: C_3  and  C_4
REMARK    4  A    between atoms: C_8  and  C_9
REMARK    5  A    between atoms: C_9  and  C_10
REMARK    6  A    between atoms: C_13  and  C_14
REMARK    7  A    between atoms: C_14  and  N_15
REMARK    8  A    between atoms: C_16  and  C_18
REMARK                            x       y       z     vdW  Elec       q    Type
REMARK                         _______ _______ _______ _____ _____    ______ ____
ROOT
ATOM      1  C   UNL     1      51.612   6.540  17.511  0.00  0.00    +0.000 A 
ATOM      2  C   UNL     1      50.699   7.196  18.330  0.00  0.00    +0.000 A 
ATOM      3  C   UNL     1      49.712   7.986  17.745  0.00  0.00    +0.000 A 
ATOM      4  C   UNL     1      49.671   8.135  16.357  0.00  0.00    +0.000 A 
ATOM      5  C   UNL     1      50.650   7.483  15.624  0.00  0.00    +0.000 A 
ATOM      6  N   UNL     1      51.620   6.699  16.162  0.00  0.00    +0.000 NA
ENDROOT
BRANCH   1   7
ATOM      7  C   UNL     1      52.572   5.533  18.106  0.00  0.00    +0.000 C 
BRANCH   7  12
ATOM      8  C   UNL     1      50.395   2.469  17.338  0.00  0.00    +0.000 A 
ATOM      9  C   UNL     1      51.359   1.451  17.366  0.00  0.00    +0.000 A 
ATOM     10  C   UNL     1      52.680   1.735  17.717  0.00  0.00    +0.000 A 
ATOM     11  C   UNL     1      53.066   3.044  18.006  0.00  0.00    +0.000 A 
ATOM     12  C   UNL     1      52.138   4.090  17.926  0.00  0.00    +0.000 A 
ATOM     13  C   UNL     1      50.801   3.783  17.616  0.00  0.00    +0.000 A 
BRANCH   8  14
ATOM     14  C   UNL     1      48.956   2.176  16.966  0.00  0.00    +0.000 C 
BRANCH  14  16
ATOM     15  C   UNL     1      47.083   3.655  17.310  0.00  0.00    +0.000 C 
ATOM     16  N   UNL     1      48.259   3.378  16.500  0.00  0.00    +0.000 NA
ATOM     17  H   UNL     1      48.896   4.169  16.556  0.00  0.00    +0.000 HD
ENDBRANCH  14  16
ENDBRANCH   8  14
ENDBRANCH   7  12
ENDBRANCH   1   7
BRANCH   4  18
ATOM     18  C   UNL     1      48.603   8.946  15.675  0.00  0.00    +0.000 C 
BRANCH  18  19
ATOM     19  N   UNL     1      47.662   8.119  14.957  0.00  0.00    +0.000 N 
ATOM     20  C   UNL     1      47.400   8.330  13.624  0.00  0.00    +0.000 C 
ATOM     21  O   UNL     1      47.969   9.202  12.977  0.00  0.00    +0.000 OA
ATOM     22  H   UNL     1      46.999   7.583  15.508  0.00  0.00    +0.000 HD
BRANCH  20  23
ATOM     23  C   UNL     1      46.446   7.402  12.995  0.00  0.00    +0.000 A 
ATOM     24  C   UNL     1      45.426   7.895  12.191  0.00  0.00    +0.000 A 
ATOM     25  S   UNL     1      44.440   6.679  11.512  0.00  0.00    +0.000 S 
ATOM     26  C   UNL     1      45.310   5.453  12.306  0.00  0.00    +0.000 A 
ATOM     27  N   UNL     1      44.954   4.143  12.181  0.00  0.00    +0.000 NA
ATOM     28  C   UNL     1      45.680   3.324  12.862  0.00  0.00    +0.000 A 
ATOM     29  N   UNL     1      46.746   3.694  13.653  0.00  0.00    +0.000 N 
ATOM     30  C   UNL     1      47.165   4.995  13.773  0.00  0.00    +0.000 A 
ATOM     31  O   UNL     1      48.151   5.286  14.439  0.00  0.00    +0.000 OA
ATOM     32  C   UNL     1      46.358   5.961  13.053  0.00  0.00    +0.000 A 
ATOM     33  H   UNL     1      47.289   2.999  14.141  0.00  0.00    +0.000 HD
ENDBRANCH  20  23
ENDBRANCH  18  19
ENDBRANCH   4  18
TORSDOF 7
ENDMDL
MODEL 5
REMARK VINA RESULT:    -6.698      3.026      4.572
REMARK INTER + INTRA:         -10.572
REMARK INTER:                  -9.628
REMARK INTRA:                  -0.945
REMARK UNBOUND:                -1.133
REMARK  Name = 
REMARK  8 active torsions:
REMARK  status: ('A' for Active; 'I' for Inactive)
REMARK    1  A    between atoms: C_1  and  N_2
REMARK    2  A    between atoms: N_2  and  C_3
REMARK    3  A    between atoms: C_3  and  C_4
REMARK    4  A    between atoms: C_8  and  C_9
REMARK    5  A    between atoms: C_9  and  C_10
REMARK    6  A    between atoms: C_13  and  C_14
REMARK    7  A    between atoms: C_14  and  N_15
REMARK    8  A    between atoms: C_16  and  C_18
REMARK                            x       y       z     vdW  Elec       q    Type
REMARK                         _______ _______ _______ _____ _____    ______ ____
ROOT
ATOM      1  C   UNL     1      47.495   5.556  14.064  0.00  0.00    +0.000 A 
ATOM      2  C   UNL     1      46.976   4.454  14.735  0.00  0.00    +0.000 A 
ATOM      3  C   UNL     1      47.268   4.287  16.086  0.00  0.00    +0.000 A 
ATOM      4  C   UNL     1      48.098   5.202  16.738  0.00  0.00    +0.000 A 
ATOM      5  C   UNL     1      48.608   6.242  15.977  0.00  0.00    +0.000 A 
ATOM      6  N   UNL     1      48.336   6.438  14.662  0.00  0.00    +0.000 NA
ENDROOT
BRANCH   1   7
ATOM      7  C   UNL     1      47.044   5.861  12.652  0.00  0.00    +0.000 C 
BRANCH   7  12
ATOM      8  C   UNL     1      44.172   3.745  11.240  0.00  0.00    +0.000 A 
ATOM      9  C   UNL     1      43.079   4.307  11.916  0.00  0.00    +0.000 A 
ATOM     10  C   UNL     1      43.252   5.413  12.748  0.00  0.00    +0.000 A 
ATOM     11  C   UNL     1      44.523   5.951  12.950  0.00  0.00    +0.000 A 
ATOM     12  C   UNL     1      45.642   5.372  12.336  0.00  0.00    +0.000 A 
ATOM     13  C   UNL     1      45.447   4.286  11.465  0.00  0.00    +0.000 A 
BRANCH   8  14
ATOM     14  C   UNL     1      43.999   2.548  10.328  0.00  0.00    +0.000 C 
BRANCH  14  16
ATOM     15  C   UNL     1      45.135   2.855   8.223  0.00  0.00    +0.000 C 
ATOM     16  N   UNL     1      45.213   2.274   9.555  0.00  0.00    +0.000 NA
ATOM     17  H   UNL     1      46.011   2.671  10.045  0.00  0.00    +0.000 HD
ENDBRANCH  14  16
ENDBRANCH   8  14
ENDBRANCH   7  12
ENDBRANCH   1   7
BRANCH   4  18
ATOM     18  C   UNL     1      48.412   5.086  18.205  0.00  0.00    +0.000 C 
BRANCH  18  19
ATOM     19  N   UNL     1      49.608   4.314  18.450  0.00  0.00    +0.000 N 
ATOM     20  C   UNL     1      50.841   4.916  18.532  0.00  0.00    +0.000 C 
ATOM     21  O   UNL     1      50.982   6.130  18.433  0.00  0.00    +0.000 OA
ATOM     22  H   UNL     1      49.561   3.316  18.273  0.00  0.00    +0.000 HD
BRANCH  20  23
ATOM     23  C   UNL     1      51.979   4.028  18.817  0.00  0.00    +0.000 A 
ATOM     24  C   UNL     1      52.976   4.438  19.695  0.00  0.00    +0.000 A 
ATOM     25  S   UNL     1      54.196   3.270  19.939  0.00  0.00    +0.000 S 
ATOM     26  C   UNL     1      53.463   2.195  18.844  0.00  0.00    +0.000 A 
ATOM     27  N   UNL     1      54.030   0.990  18.556  0.00  0.00    +0.000 NA
ATOM     28  C   UNL     1      53.385   0.289  17.686  0.00  0.00    +0.000 A 
ATOM     29  N   UNL     1      52.210   0.680  17.083  0.00  0.00    +0.000 N 
ATOM     30  C   UNL     1      51.582   1.865  17.376  0.00  0.00    +0.000 A 
ATOM     31  O   UNL     1      50.509   2.159  16.865  0.00  0.00    +0.000 OA
ATOM     32  C   UNL     1      52.288   2.706  18.324  0.00  0.00    +0.000 A 
ATOM     33  H   UNL     1      51.742   0.073  16.428  0.00  0.00    +0.000 HD
ENDBRANCH  20  23
ENDBRANCH  18  19
ENDBRANCH   4  18
TORSDOF 7
ENDMDL
MODEL 6
REMARK VINA RESULT:    -6.657      1.749      2.415
REMARK INTER + INTRA:         -10.514
REMARK INTER:                  -9.366
REMARK INTRA:                  -1.148
REMARK UNBOUND:                -1.133
REMARK  Name = 
REMARK  8 active torsions:
REMARK  status: ('A' for Active; 'I' for Inactive)
REMARK    1  A    between atoms: C_1  and  N_2
REMARK    2  A    between atoms: N_2  and  C_3
REMARK    3  A    between atoms: C_3  and  C_4
REMARK    4  A    between atoms: C_8  and  C_9
REMARK    5  A    between atoms: C_9  and  C_10
REMARK    6  A    between atoms: C_13  and  C_14
REMARK    7  A    between atoms: C_14  and  N_15
REMARK    8  A    between atoms: C_16  and  C_18
REMARK                            x       y       z     vdW  Elec       q    Type
REMARK                         _______ _______ _______ _____ _____    ______ ____
ROOT
ATOM      1  C   UNL     1      45.070   6.013  12.107  0.00  0.00    +0.000 A 
ATOM      2  C   UNL     1      45.339   7.369  11.950  0.00  0.00    +0.000 A 
ATOM      3  C   UNL     1      46.490   7.901  12.526  0.00  0.00    +0.000 A 
ATOM      4  C   UNL     1      47.337   7.081  13.276  0.00  0.00    +0.000 A 
ATOM      5  C   UNL     1      46.964   5.754  13.419  0.00  0.00    +0.000 A 
ATOM      6  N   UNL     1      45.854   5.202  12.864  0.00  0.00    +0.000 NA
ENDROOT
BRANCH   1   7
ATOM      7  C   UNL     1      43.933   5.375  11.340  0.00  0.00    +0.000 C 
BRANCH   7  12
ATOM      8  C   UNL     1      45.776   3.722   8.410  0.00  0.00    +0.000 A 
ATOM      9  C   UNL     1      45.401   2.383   8.589  0.00  0.00    +0.000 A 
ATOM     10  C   UNL     1      44.493   2.028   9.587  0.00  0.00    +0.000 A 
ATOM     11  C   UNL     1      43.977   2.998  10.446  0.00  0.00    +0.000 A 
ATOM     12  C   UNL     1      44.381   4.335  10.330  0.00  0.00    +0.000 A 
ATOM     13  C   UNL     1      45.261   4.685   9.291  0.00  0.00    +0.000 A 
BRANCH   8  14
ATOM     14  C   UNL     1      46.755   4.124   7.326  0.00  0.00    +0.000 C 
BRANCH  14  16
ATOM     15  C   UNL     1      47.338   2.618   5.536  0.00  0.00    +0.000 C 
ATOM     16  N   UNL     1      47.603   3.003   6.914  0.00  0.00    +0.000 NA
ATOM     17  H   UNL     1      48.578   3.281   7.001  0.00  0.00    +0.000 HD
ENDBRANCH  14  16
ENDBRANCH   8  14
ENDBRANCH   7  12
ENDBRANCH   1   7
BRANCH   4  18
ATOM     18  C   UNL     1      48.611   7.599  13.886  0.00  0.00    +0.000 C 
BRANCH  18  19
ATOM     19  N   UNL     1      49.079   6.766  14.968  0.00  0.00    +0.000 N 
ATOM     20  C   UNL     1      48.933   7.151  16.279  0.00  0.00    +0.000 C 
ATOM     21  O   UNL     1      48.376   8.197  16.594  0.00  0.00    +0.000 OA
ATOM     22  H   UNL     1      49.761   6.049  14.740  0.00  0.00    +0.000 HD
BRANCH  20  23
ATOM     23  C   UNL     1      49.421   6.203  17.293  0.00  0.00    +0.000 A 
ATOM     24  C   UNL     1      48.535   5.651  18.211  0.00  0.00    +0.000 A 
ATOM     25  S   UNL     1      49.263   4.544  19.285  0.00  0.00    +0.000 S 
ATOM     26  C   UNL     1      50.796   4.797  18.595  0.00  0.00    +0.000 A 
ATOM     27  N   UNL     1      51.901   4.165  19.084  0.00  0.00    +0.000 NA
ATOM     28  C   UNL     1      53.001   4.474  18.488  0.00  0.00    +0.000 A 
ATOM     29  N   UNL     1      53.099   5.352  17.431  0.00  0.00    +0.000 N 
ATOM     30  C   UNL     1      52.008   5.977  16.880  0.00  0.00    +0.000 A 
ATOM     31  O   UNL     1      52.120   6.709  15.905  0.00  0.00    +0.000 OA
ATOM     32  C   UNL     1      50.749   5.689  17.539  0.00  0.00    +0.000 A 
ATOM     33  H   UNL     1      53.989   5.531  16.992  0.00  0.00    +0.000 HD
ENDBRANCH  20  23
ENDBRANCH  18  19
ENDBRANCH   4  18
TORSDOF 7
ENDMDL
MODEL 7
REMARK VINA RESULT:    -6.584      2.458      3.861
REMARK INTER + INTRA:         -10.412
REMARK INTER:                  -9.451
REMARK INTRA:                  -0.961
REMARK UNBOUND:                -1.133
REMARK  Name = 
REMARK  8 active torsions:
REMARK  status: ('A' for Active; 'I' for Inactive)
REMARK    1  A    between atoms: C_1  and  N_2
REMARK    2  A    between atoms: N_2  and  C_3
REMARK    3  A    between atoms: C_3  and  C_4
REMARK    4  A    between atoms: C_8  and  C_9
REMARK    5  A    between atoms: C_9  and  C_10
REMARK    6  A    between atoms: C_13  and  C_14
REMARK    7  A    between atoms: C_14  and  N_15
REMARK    8  A    between atoms: C_16  and  C_18
REMARK                            x       y       z     vdW  Elec       q    Type
REMARK                         _______ _______ _______ _____ _____    ______ ____
ROOT
ATOM      1  C   UNL     1      48.187   7.944  13.223  0.00  0.00    +0.000 A 
ATOM      2  C   UNL     1      49.372   7.256  13.462  0.00  0.00    +0.000 A 
ATOM      3  C   UNL     1      49.966   7.349  14.718  0.00  0.00    +0.000 A 
ATOM      4  C   UNL     1      49.387   8.151  15.705  0.00  0.00    +0.000 A 
ATOM      5  C   UNL     1      48.233   8.838  15.362  0.00  0.00    +0.000 A 
ATOM      6  N   UNL     1      47.625   8.762  14.150  0.00  0.00    +0.000 NA
ENDROOT
BRANCH   1   7
ATOM      7  C   UNL     1      47.427   7.713  11.936  0.00  0.00    +0.000 C 
BRANCH   7  12
ATOM      8  C   UNL     1      45.164   4.831  10.797  0.00  0.00    +0.000 A 
ATOM      9  C   UNL     1      44.940   4.179  12.018  0.00  0.00    +0.000 A 
ATOM     10  C   UNL     1      45.438   4.710  13.208  0.00  0.00    +0.000 A 
ATOM     11  C   UNL     1      46.199   5.879  13.193  0.00  0.00    +0.000 A 
ATOM     12  C   UNL     1      46.490   6.520  11.982  0.00  0.00    +0.000 A 
ATOM     13  C   UNL     1      45.944   5.998  10.795  0.00  0.00    +0.000 A 
BRANCH   8  14
ATOM     14  C   UNL     1      44.624   4.272   9.498  0.00  0.00    +0.000 C 
BRANCH  14  16
ATOM     15  C   UNL     1      45.948   3.593   7.600  0.00  0.00    +0.000 C 
ATOM     16  N   UNL     1      45.408   4.721   8.344  0.00  0.00    +0.000 NA
ATOM     17  H   UNL     1      44.806   5.266   7.731  0.00  0.00    +0.000 HD
ENDBRANCH  14  16
ENDBRANCH   8  14
ENDBRANCH   7  12
ENDBRANCH   1   7
BRANCH   4  18
ATOM     18  C   UNL     1      49.969   8.254  17.089  0.00  0.00    +0.000 C 
BRANCH  18  19
ATOM     19  N   UNL     1      50.850   7.152  17.396  0.00  0.00    +0.000 N 
ATOM     20  C   UNL     1      50.420   6.083  18.144  0.00  0.00    +0.000 C 
ATOM     21  O   UNL     1      49.269   5.997  18.558  0.00  0.00    +0.000 OA
ATOM     22  H   UNL     1      51.848   7.315  17.302  0.00  0.00    +0.000 HD
BRANCH  20  23
ATOM     23  C   UNL     1      51.400   5.007  18.364  0.00  0.00    +0.000 A 
ATOM     24  C   UNL     1      52.583   5.275  19.042  0.00  0.00    +0.000 A 
ATOM     25  S   UNL     1      53.583   3.906  19.241  0.00  0.00    +0.000 S 
ATOM     26  C   UNL     1      52.495   2.918  18.386  0.00  0.00    +0.000 A 
ATOM     27  N   UNL     1      52.770   1.603  18.156  0.00  0.00    +0.000 NA
ATOM     28  C   UNL     1      51.874   0.981  17.468  0.00  0.00    +0.000 A 
ATOM     29  N   UNL     1      50.713   1.553  16.996  0.00  0.00    +0.000 N 
ATOM     30  C   UNL     1      50.376   2.861  17.241  0.00  0.00    +0.000 A 
ATOM     31  O   UNL     1      49.311   3.325  16.856  0.00  0.00    +0.000 OA
ATOM     32  C   UNL     1      51.370   3.614  17.982  0.00  0.00    +0.000 A 
ATOM     33  H   UNL     1      50.041   1.004  16.484  0.00  0.00    +0.000 HD
ENDBRANCH  20  23
ENDBRANCH  18  19
ENDBRANCH   4  18
TORSDOF 7
ENDMDL
MODEL 8
REMARK VINA RESULT:    -6.510      5.063      7.086
REMARK INTER + INTRA:         -10.307
REMARK INTER:                  -9.219
REMARK INTRA:                  -1.088
REMARK UNBOUND:                -1.133
REMARK  Name = 
REMARK  8 active torsions:
REMARK  status: ('A' for Active; 'I' for Inactive)
REMARK    1  A    between atoms: C_1  and  N_2
REMARK    2  A    between atoms: N_2  and  C_3
REMARK    3  A    between atoms: C_3  and  C_4
REMARK    4  A    between atoms: C_8  and  C_9
REMARK    5  A    between atoms: C_9  and  C_10
REMARK    6  A    between atoms: C_13  and  C_14
REMARK    7  A    between atoms: C_14  and  N_15
REMARK    8  A    between atoms: C_16  and  C_18
REMARK                            x       y       z     vdW  Elec       q    Type
REMARK                         _______ _______ _______ _____ _____    ______ ____
ROOT
ATOM      1  C   UNL     1      46.865   7.588  12.501  0.00  0.00    +0.000 A 
ATOM      2  C   UNL     1      47.306   8.835  12.069  0.00  0.00    +0.000 A 
ATOM      3  C   UNL     1      48.671   9.047  11.898  0.00  0.00    +0.000 A 
ATOM      4  C   UNL     1      49.577   8.025  12.193  0.00  0.00    +0.000 A 
ATOM      5  C   UNL     1      49.050   6.833  12.664  0.00  0.00    +0.000 A 
ATOM      6  N   UNL     1      47.725   6.591  12.833  0.00  0.00    +0.000 NA
ENDROOT
BRANCH   1   7
ATOM      7  C   UNL     1      45.385   7.274  12.516  0.00  0.00    +0.000 C 
BRANCH   7  12
ATOM      8  C   UNL     1      44.825   4.325  10.126  0.00  0.00    +0.000 A 
ATOM      9  C   UNL     1      44.650   3.278  11.042  0.00  0.00    +0.000 A 
ATOM     10  C   UNL     1      44.623   3.532  12.414  0.00  0.00    +0.000 A 
ATOM     11  C   UNL     1      44.809   4.829  12.893  0.00  0.00    +0.000 A 
ATOM     12  C   UNL     1      45.047   5.886  12.004  0.00  0.00    +0.000 A 
ATOM     13  C   UNL     1      45.027   5.622  10.623  0.00  0.00    +0.000 A 
BRANCH   8  14
ATOM     14  C   UNL     1      44.849   4.067   8.634  0.00  0.00    +0.000 C 
BRANCH  14  16
ATOM     15  C   UNL     1      46.648   3.691   7.073  0.00  0.00    +0.000 C 
ATOM     16  N   UNL     1      46.044   4.634   8.002  0.00  0.00    +0.000 NA
ATOM     17  H   UNL     1      45.778   5.476   7.497  0.00  0.00    +0.000 HD
ENDBRANCH  14  16
ENDBRANCH   8  14
ENDBRANCH   7  12
ENDBRANCH   1   7
BRANCH   4  18
ATOM     18  C   UNL     1      51.058   8.192  11.989  0.00  0.00    +0.000 C 
BRANCH  18  19
ATOM     19  N   UNL     1      51.461   7.904  10.633  0.00  0.00    +0.000 N 
ATOM     20  C   UNL     1      52.496   8.583  10.035  0.00  0.00    +0.000 C 
ATOM     21  O   UNL     1      53.142   9.439  10.629  0.00  0.00    +0.000 OA
ATOM     22  H   UNL     1      50.796   7.410  10.046  0.00  0.00    +0.000 HD
BRANCH  20  23
ATOM     23  C   UNL     1      52.833   8.177   8.662  0.00  0.00    +0.000 A 
ATOM     24  C   UNL     1      52.746   9.099   7.625  0.00  0.00    +0.000 A 
ATOM     25  S   UNL     1      53.210   8.469   6.109  0.00  0.00    +0.000 S 
ATOM     26  C   UNL     1      53.498   6.931   6.773  0.00  0.00    +0.000 A 
ATOM     27  N   UNL     1      53.894   5.889   5.989  0.00  0.00    +0.000 NA
ATOM     28  C   UNL     1      54.044   4.773   6.618  0.00  0.00    +0.000 A 
ATOM     29  N   UNL     1      53.846   4.605   7.971  0.00  0.00    +0.000 N 
ATOM     30  C   UNL     1      53.490   5.636   8.804  0.00  0.00    +0.000 A 
ATOM     31  O   UNL     1      53.376   5.466  10.011  0.00  0.00    +0.000 OA
ATOM     32  C   UNL     1      53.274   6.905   8.138  0.00  0.00    +0.000 A 
ATOM     33  H   UNL     1      54.005   3.709   8.406  0.00  0.00    +0.000 HD
ENDBRANCH  20  23
ENDBRANCH  18  19
ENDBRANCH   4  18
TORSDOF 7
ENDMDL
MODEL 9
REMARK VINA RESULT:    -6.396      3.697      5.478
REMARK INTER + INTRA:         -10.147
REMARK INTER:                  -9.066
REMARK INTRA:                  -1.081
REMARK UNBOUND:                -1.133
REMARK  Name = 
REMARK  8 active torsions:
REMARK  status: ('A' for Active; 'I' for Inactive)
REMARK    1  A    between atoms: C_1  and  N_2
REMARK    2  A    between atoms: N_2  and  C_3
REMARK    3  A    between atoms: C_3  and  C_4
REMARK    4  A    between atoms: C_8  and  C_9
REMARK    5  A    between atoms: C_9  and  C_10
REMARK    6  A    between atoms: C_13  and  C_14
REMARK    7  A    between atoms: C_14  and  N_15
REMARK    8  A    between atoms: C_16  and  C_18
REMARK                            x       y       z     vdW  Elec       q    Type
REMARK                         _______ _______ _______ _____ _____    ______ ____
ROOT
ATOM      1  C   UNL     1      45.338   5.924  11.947  0.00  0.00    +0.000 A 
ATOM      2  C   UNL     1      45.976   7.132  11.686  0.00  0.00    +0.000 A 
ATOM      3  C   UNL     1      47.139   7.446  12.384  0.00  0.00    +0.000 A 
ATOM      4  C   UNL     1      47.628   6.567  13.354  0.00  0.00    +0.000 A 
ATOM      5  C   UNL     1      46.900   5.410  13.580  0.00  0.00    +0.000 A 
ATOM      6  N   UNL     1      45.768   5.070  12.911  0.00  0.00    +0.000 NA
ENDROOT
BRANCH   1   7
ATOM      7  C   UNL     1      44.185   5.476  11.075  0.00  0.00    +0.000 C 
BRANCH   7  12
ATOM      8  C   UNL     1      45.831   3.638   8.137  0.00  0.00    +0.000 A 
ATOM      9  C   UNL     1      45.419   2.322   8.390  0.00  0.00    +0.000 A 
ATOM     10  C   UNL     1      44.548   2.041   9.443  0.00  0.00    +0.000 A 
ATOM     11  C   UNL     1      44.106   3.064  10.283  0.00  0.00    +0.000 A 
ATOM     12  C   UNL     1      44.549   4.379  10.091  0.00  0.00    +0.000 A 
ATOM     13  C   UNL     1      45.391   4.655   8.999  0.00  0.00    +0.000 A 
BRANCH   8  14
ATOM     14  C   UNL     1      46.771   3.961   6.994  0.00  0.00    +0.000 C 
BRANCH  14  16
ATOM     15  C   UNL     1      47.759   2.311   5.539  0.00  0.00    +0.000 C 
ATOM     16  N   UNL     1      47.818   2.946   6.847  0.00  0.00    +0.000 NA
ATOM     17  H   UNL     1      48.725   3.393   6.960  0.00  0.00    +0.000 HD
ENDBRANCH  14  16
ENDBRANCH   8  14
ENDBRANCH   7  12
ENDBRANCH   1   7
BRANCH   4  18
ATOM     18  C   UNL     1      48.900   6.843  14.108  0.00  0.00    +0.000 C 
BRANCH  18  19
ATOM     19  N   UNL     1      49.942   7.364  13.254  0.00  0.00    +0.000 N 
ATOM     20  C   UNL     1      50.426   8.640  13.417  0.00  0.00    +0.000 C 
ATOM     21  O   UNL     1      50.024   9.382  14.306  0.00  0.00    +0.000 OA
ATOM     22  H   UNL     1      50.099   6.889  12.371  0.00  0.00    +0.000 HD
BRANCH  20  23
ATOM     23  C   UNL     1      51.509   9.044  12.506  0.00  0.00    +0.000 A 
ATOM     24  C   UNL     1      52.802   8.579  12.715  0.00  0.00    +0.000 A 
ATOM     25  S   UNL     1      53.920   9.115  11.543  0.00  0.00    +0.000 S 
ATOM     26  C   UNL     1      52.729  10.027  10.742  0.00  0.00    +0.000 A 
ATOM     27  N   UNL     1      53.036  10.779   9.648  0.00  0.00    +0.000 NA
ATOM     28  C   UNL     1      52.045  11.444   9.160  0.00  0.00    +0.000 A 
ATOM     29  N   UNL     1      50.762  11.416   9.661  0.00  0.00    +0.000 N 
ATOM     30  C   UNL     1      50.400  10.640  10.734  0.00  0.00    +0.000 A 
ATOM     31  O   UNL     1      49.239  10.593  11.121  0.00  0.00    +0.000 OA
ATOM     32  C   UNL     1      51.489   9.899  11.341  0.00  0.00    +0.000 A 
ATOM     33  H   UNL     1      50.025  11.941   9.218  0.00  0.00    +0.000 HD
ENDBRANCH  20  23
ENDBRANCH  18  19
ENDBRANCH   4  18
TORSDOF 7
ENDMDL
