MODEL 1
REMARK VINA RESULT:    -7.582      0.000      0.000
REMARK INTER + INTRA:         -10.444
REMARK INTER:                 -10.019
REMARK INTRA:                  -0.424
REMARK UNBOUND:                -0.424
REMARK  Name = 
REMARK  7 active torsions:
REMARK  status: ('A' for Active; 'I' for Inactive)
REMARK    1  A    between atoms: C_1  and  C_2
REMARK    2  A    between atoms: N_4  and  C_5
REMARK    3  A    between atoms: C_5  and  C_6
REMARK    4  A    between atoms: C_9  and  C_10
REMARK    5  A    between atoms: C_10  and  N_11
REMARK    6  A    between atoms: CA_16  and  C_17
REMARK    7  A    between atoms: C_17  and  O_18
REMARK                            x       y       z     vdW  Elec       q    Type
REMARK                         _______ _______ _______ _____ _____    ______ ____
ROOT
ATOM      1  C   UNL     1      44.883   4.325  10.176  0.00  0.00    +0.000 A 
ATOM      2  C   UNL     1      44.862   3.231  11.050  0.00  0.00    +0.000 A 
ATOM      3  C   UNL     1      45.410   3.334  12.334  0.00  0.00    +0.000 A 
ATOM      4  C   UNL     1      45.975   4.539  12.776  0.00  0.00    +0.000 A 
ATOM      5  C   UNL     1      45.976   5.639  11.905  0.00  0.00    +0.000 A 
ATOM      6  C   UNL     1      45.426   5.536  10.624  0.00  0.00    +0.000 A 
ENDROOT
BRANCH   1   7
ATOM      7  C   UNL     1      44.323   4.207   8.784  0.00  0.00    +0.000 C 
BRANCH   7  11
ATOM      8  C   UNL     1      46.833   2.383   6.646  0.00  0.00    +0.000 C 
ATOM      9  C   UNL     1      46.240   3.531   7.417  0.00  0.00    +0.000 C 
ATOM     10  O   UNL     1      46.787   4.622   7.505  0.00  0.00    +0.000 OA
ATOM     11  N   UNL     1      45.037   3.225   8.007  0.00  0.00    +0.000 N 
ATOM     12  H   UNL     1      44.615   2.318   7.859  0.00  0.00    +0.000 HD
ENDBRANCH   7  11
ENDBRANCH   1   7
BRANCH   4  13
ATOM     13  C   UNL     1      46.576   4.662  14.159  0.00  0.00    +0.000 C 
BRANCH  13  14
ATOM     14  N   UNL     1      47.079   3.377  14.602  0.00  0.00    +0.000 N 
ATOM     15  C   UNL     1      47.740   3.410  15.820  0.00  0.00    +0.000 A 
ATOM     16  N   UNL     1      48.735   2.530  15.968  0.00  0.00    +0.000 NA
ATOM     17  C   UNL     1      49.385   2.527  17.149  0.00  0.00    +0.000 A 
ATOM     18  C   UNL     1      49.090   3.390  18.175  0.00  0.00    +0.000 A 
ATOM     19  CA  UNL     1      48.058   4.274  17.936  0.00  0.00    +0.000 A 
ATOM     20  N   UNL     1      47.379   4.287  16.765  0.00  0.00    +0.000 NA
ATOM     21  H   UNL     1      47.705   2.912  13.953  0.00  0.00    +0.000 HD
BRANCH  19  22
ATOM     22  C   UNL     1      47.625   5.261  18.988  0.00  0.00    +0.000 C 
BRANCH  22  23
ATOM     23  O   UNL     1      46.250   5.599  18.840  0.00  0.00    +0.000 OA
ATOM     24  H   UNL     1      45.749   4.820  19.142  0.00  0.00    +0.000 HD
ENDBRANCH  22  23
ENDBRANCH  19  22
ENDBRANCH  13  14
ENDBRANCH   4  13
TORSDOF 6
ENDMDL
MODEL 2
REMARK VINA RESULT:    -7.401      1.745      2.099
REMARK INTER + INTRA:         -10.205
REMARK INTER:                  -9.726
REMARK INTRA:                  -0.478
REMARK UNBOUND:                -0.424
REMARK  Name = 
REMARK  7 active torsions:
REMARK  status: ('A' for Active; 'I' for Inactive)
REMARK    1  A    between atoms: C_1  and  C_2
REMARK    2  A    between atoms: N_4  and  C_5
REMARK    3  A    between atoms: C_5  and  C_6
REMARK    4  A    between atoms: C_9  and  C_10
REMARK    5  A    between atoms: C_10  and  N_11
REMARK    6  A    between atoms: CA_16  and  C_17
REMARK    7  A    between atoms: C_17  and  O_18
REMARK                            x       y       z     vdW  Elec       q    Type
REMARK                         _______ _______ _______ _____ _____    ______ ____
ROOT
ATOM      1  C   UNL     1      44.945   3.857   9.402  0.00  0.00    +0.000 A 
ATOM      2  C   UNL     1      44.598   3.048  10.491  0.00  0.00    +0.000 A 
ATOM      3  C   UNL     1      44.842   3.473  11.801  0.00  0.00    +0.000 A 
ATOM      4  C   UNL     1      45.422   4.726  12.051  0.00  0.00    +0.000 A 
ATOM      5  C   UNL     1      45.750   5.543  10.958  0.00  0.00    +0.000 A 
ATOM      6  C   UNL     1      45.503   5.119   9.650  0.00  0.00    +0.000 A 
ENDROOT
BRANCH   1   7
ATOM      7  C   UNL     1      44.713   3.389   7.991  0.00  0.00    +0.000 C 
BRANCH   7  11
ATOM      8  C   UNL     1      47.978   2.204   6.530  0.00  0.00    +0.000 C 
ATOM      9  C   UNL     1      46.725   2.141   7.360  0.00  0.00    +0.000 C 
ATOM     10  O   UNL     1      46.433   1.172   8.047  0.00  0.00    +0.000 OA
ATOM     11  N   UNL     1      45.950   3.273   7.260  0.00  0.00    +0.000 N 
ATOM     12  H   UNL     1      46.269   4.059   6.710  0.00  0.00    +0.000 HD
ENDBRANCH   7  11
ENDBRANCH   1   7
BRANCH   4  13
ATOM     13  C   UNL     1      45.697   5.195  13.463  0.00  0.00    +0.000 C 
BRANCH  13  14
ATOM     14  N   UNL     1      47.035   5.746  13.556  0.00  0.00    +0.000 N 
ATOM     15  C   UNL     1      47.677   5.489  14.757  0.00  0.00    +0.000 A 
ATOM     16  N   UNL     1      48.530   6.429  15.176  0.00  0.00    +0.000 NA
ATOM     17  C   UNL     1      49.182   6.198  16.332  0.00  0.00    +0.000 A 
ATOM     18  C   UNL     1      48.993   5.072  17.094  0.00  0.00    +0.000 A 
ATOM     19  CA  UNL     1      48.088   4.157  16.597  0.00  0.00    +0.000 A 
ATOM     20  N   UNL     1      47.431   4.358  15.430  0.00  0.00    +0.000 NA
ATOM     21  H   UNL     1      47.099   6.748  13.410  0.00  0.00    +0.000 HD
BRANCH  19  22
ATOM     22  C   UNL     1      47.804   2.872  17.329  0.00  0.00    +0.000 C 
BRANCH  22  23
ATOM     23  O   UNL     1      46.435   2.791  17.710  0.00  0.00    +0.000 OA
ATOM     24  H   UNL     1      46.019   3.614  17.395  0.00  0.00    +0.000 HD
ENDBRANCH  22  23
ENDBRANCH  19  22
ENDBRANCH  13  14
ENDBRANCH   4  13
TORSDOF 6
ENDMDL
MODEL 3
REMARK VINA RESULT:    -6.997      1.744      2.113
REMARK INTER + INTRA:          -9.671
REMARK INTER:                  -9.191
REMARK INTRA:                  -0.479
REMARK UNBOUND:                -0.424
REMARK  Name = 
REMARK  7 active torsions:
REMARK  status: ('A' for Active; 'I' for Inactive)
REMARK    1  A    between atoms: C_1  and  C_2
REMARK    2  A    between atoms: N_4  and  C_5
REMARK    3  A    between atoms: C_5  and  C_6
REMARK    4  A    between atoms: C_9  and  C_10
REMARK    5  A    between atoms: C_10  and  N_11
REMARK    6  A    between atoms: CA_16  and  C_17
REMARK    7  A    between atoms: C_17  and  O_18
REMARK                            x       y       z     vdW  Elec       q    Type
REMARK                         _______ _______ _______ _____ _____    ______ ____
ROOT
ATOM      1  C   UNL     1      44.953   4.372  10.491  0.00  0.00    +0.000 A 
ATOM      2  C   UNL     1      45.661   5.578  10.562  0.00  0.00    +0.000 A 
ATOM      3  C   UNL     1      46.357   5.929  11.724  0.00  0.00    +0.000 A 
ATOM      4  C   UNL     1      46.374   5.071  12.834  0.00  0.00    +0.000 A 
ATOM      5  C   UNL     1      45.681   3.854  12.752  0.00  0.00    +0.000 A 
ATOM      6  C   UNL     1      44.989   3.504  11.590  0.00  0.00    +0.000 A 
ENDROOT
BRANCH   1   7
ATOM      7  C   UNL     1      44.177   4.007   9.254  0.00  0.00    +0.000 C 
BRANCH   7  11
ATOM      8  C   UNL     1      46.618   3.070   6.541  0.00  0.00    +0.000 C 
ATOM      9  C   UNL     1      45.807   2.902   7.798  0.00  0.00    +0.000 C 
ATOM     10  O   UNL     1      45.850   1.890   8.483  0.00  0.00    +0.000 OA
ATOM     11  N   UNL     1      45.020   3.992   8.085  0.00  0.00    +0.000 N 
ATOM     12  H   UNL     1      45.063   4.817   7.502  0.00  0.00    +0.000 HD
ENDBRANCH   7  11
ENDBRANCH   1   7
BRANCH   4  13
ATOM     13  C   UNL     1      47.119   5.442  14.098  0.00  0.00    +0.000 C 
BRANCH  13  14
ATOM     14  N   UNL     1      46.470   4.851  15.253  0.00  0.00    +0.000 N 
ATOM     15  C   UNL     1      47.341   4.316  16.188  0.00  0.00    +0.000 A 
ATOM     16  N   UNL     1      46.893   3.253  16.862  0.00  0.00    +0.000 NA
ATOM     17  C   UNL     1      47.712   2.722  17.791  0.00  0.00    +0.000 A 
ATOM     18  C   UNL     1      48.972   3.201  18.048  0.00  0.00    +0.000 A 
ATOM     19  CA  UNL     1      49.363   4.293  17.301  0.00  0.00    +0.000 A 
ATOM     20  N   UNL     1      48.553   4.855  16.373  0.00  0.00    +0.000 NA
ATOM     21  H   UNL     1      45.797   4.122  15.042  0.00  0.00    +0.000 HD
BRANCH  19  22
ATOM     22  C   UNL     1      50.715   4.924  17.501  0.00  0.00    +0.000 C 
BRANCH  22  23
ATOM     23  O   UNL     1      51.073   5.733  16.385  0.00  0.00    +0.000 OA
ATOM     24  H   UNL     1      51.986   5.483  16.155  0.00  0.00    +0.000 HD
ENDBRANCH  22  23
ENDBRANCH  19  22
ENDBRANCH  13  14
ENDBRANCH   4  13
TORSDOF 6
ENDMDL
MODEL 4
REMARK VINA RESULT:    -6.351      4.963      8.208
REMARK INTER + INTRA:          -8.817
REMARK INTER:                  -8.294
REMARK INTRA:                  -0.523
REMARK UNBOUND:                -0.424
REMARK  Name = 
REMARK  7 active torsions:
REMARK  status: ('A' for Active; 'I' for Inactive)
REMARK    1  A    between atoms: C_1  and  C_2
REMARK    2  A    between atoms: N_4  and  C_5
REMARK    3  A    between atoms: C_5  and  C_6
REMARK    4  A    between atoms: C_9  and  C_10
REMARK    5  A    between atoms: C_10  and  N_11
REMARK    6  A    between atoms: CA_16  and  C_17
REMARK    7  A    between atoms: C_17  and  O_18
REMARK                            x       y       z     vdW  Elec       q    Type
REMARK                         _______ _______ _______ _____ _____    ______ ____
ROOT
ATOM      1  C   UNL     1      45.209   7.037  11.913  0.00  0.00    +0.000 A 
ATOM      2  C   UNL     1      46.117   6.532  10.975  0.00  0.00    +0.000 A 
ATOM      3  C   UNL     1      45.774   5.445  10.164  0.00  0.00    +0.000 A 
ATOM      4  C   UNL     1      44.507   4.852  10.261  0.00  0.00    +0.000 A 
ATOM      5  C   UNL     1      43.591   5.372  11.188  0.00  0.00    +0.000 A 
ATOM      6  C   UNL     1      43.934   6.460  11.996  0.00  0.00    +0.000 A 
ENDROOT
BRANCH   1   7
ATOM      7  C   UNL     1      45.587   8.185  12.809  0.00  0.00    +0.000 C 
BRANCH   7  11
ATOM      8  C   UNL     1      45.815  11.490  11.014  0.00  0.00    +0.000 C 
ATOM      9  C   UNL     1      45.184  10.394  11.829  0.00  0.00    +0.000 C 
ATOM     10  O   UNL     1      44.038  10.458  12.250  0.00  0.00    +0.000 OA
ATOM     11  N   UNL     1      46.026   9.329  12.049  0.00  0.00    +0.000 N 
ATOM     12  H   UNL     1      46.948   9.316  11.635  0.00  0.00    +0.000 HD
ENDBRANCH   7  11
ENDBRANCH   1   7
BRANCH   4  13
ATOM     13  C   UNL     1      44.125   3.672   9.394  0.00  0.00    +0.000 C 
BRANCH  13  14
ATOM     14  N   UNL     1      44.959   2.528   9.709  0.00  0.00    +0.000 N 
ATOM     15  C   UNL     1      45.698   2.047   8.640  0.00  0.00    +0.000 A 
ATOM     16  N   UNL     1      45.930   0.731   8.636  0.00  0.00    +0.000 NA
ATOM     17  C   UNL     1      46.661   0.237   7.618  0.00  0.00    +0.000 A 
ATOM     18  C   UNL     1      47.145   1.009   6.592  0.00  0.00    +0.000 A 
ATOM     19  CA  UNL     1      46.851   2.356   6.665  0.00  0.00    +0.000 A 
ATOM     20  N   UNL     1      46.132   2.879   7.685  0.00  0.00    +0.000 NA
ATOM     21  H   UNL     1      44.467   1.730  10.095  0.00  0.00    +0.000 HD
BRANCH  19  22
ATOM     22  C   UNL     1      47.340   3.313   5.610  0.00  0.00    +0.000 C 
BRANCH  22  23
ATOM     23  O   UNL     1      48.332   2.708   4.788  0.00  0.00    +0.000 OA
ATOM     24  H   UNL     1      48.736   2.006   5.328  0.00  0.00    +0.000 HD
ENDBRANCH  22  23
ENDBRANCH  19  22
ENDBRANCH  13  14
ENDBRANCH   4  13
TORSDOF 6
ENDMDL
MODEL 5
REMARK VINA RESULT:    -6.066      4.424      7.020
REMARK INTER + INTRA:          -8.441
REMARK INTER:                  -7.963
REMARK INTRA:                  -0.479
REMARK UNBOUND:                -0.424
REMARK  Name = 
REMARK  7 active torsions:
REMARK  status: ('A' for Active; 'I' for Inactive)
REMARK    1  A    between atoms: C_1  and  C_2
REMARK    2  A    between atoms: N_4  and  C_5
REMARK    3  A    between atoms: C_5  and  C_6
REMARK    4  A    between atoms: C_9  and  C_10
REMARK    5  A    between atoms: C_10  and  N_11
REMARK    6  A    between atoms: CA_16  and  C_17
REMARK    7  A    between atoms: C_17  and  O_18
REMARK                            x       y       z     vdW  Elec       q    Type
REMARK                         _______ _______ _______ _____ _____    ______ ____
ROOT
ATOM      1  C   UNL     1      49.668   8.465  11.844  0.00  0.00    +0.000 A 
ATOM      2  C   UNL     1      48.654   9.431  11.867  0.00  0.00    +0.000 A 
ATOM      3  C   UNL     1      47.329   9.067  12.128  0.00  0.00    +0.000 A 
ATOM      4  C   UNL     1      46.992   7.730  12.390  0.00  0.00    +0.000 A 
ATOM      5  C   UNL     1      48.013   6.768  12.386  0.00  0.00    +0.000 A 
ATOM      6  C   UNL     1      49.337   7.133  12.128  0.00  0.00    +0.000 A 
ENDROOT
BRANCH   1   7
ATOM      7  C   UNL     1      51.089   8.849  11.531  0.00  0.00    +0.000 C 
BRANCH   7  11
ATOM      8  C   UNL     1      53.386   6.308   9.962  0.00  0.00    +0.000 C 
ATOM      9  C   UNL     1      52.597   7.585  10.073  0.00  0.00    +0.000 C 
ATOM     10  O   UNL     1      52.587   8.436   9.195  0.00  0.00    +0.000 OA
ATOM     11  N   UNL     1      51.903   7.692  11.255  0.00  0.00    +0.000 N 
ATOM     12  H   UNL     1      51.916   6.933  11.922  0.00  0.00    +0.000 HD
ENDBRANCH   7  11
ENDBRANCH   1   7
BRANCH   4  13
ATOM     13  C   UNL     1      45.561   7.323  12.668  0.00  0.00    +0.000 C 
BRANCH  13  14
ATOM     14  N   UNL     1      45.526   6.018  13.299  0.00  0.00    +0.000 N 
ATOM     15  C   UNL     1      44.921   5.030  12.539  0.00  0.00    +0.000 A 
ATOM     16  N   UNL     1      44.280   4.078  13.222  0.00  0.00    +0.000 NA
ATOM     17  C   UNL     1      43.697   3.094  12.510  0.00  0.00    +0.000 A 
ATOM     18  C   UNL     1      43.711   3.045  11.138  0.00  0.00    +0.000 A 
ATOM     19  CA  UNL     1      44.384   4.072  10.509  0.00  0.00    +0.000 A 
ATOM     20  N   UNL     1      44.992   5.064  11.202  0.00  0.00    +0.000 NA
ATOM     21  H   UNL     1      45.076   5.991  14.208  0.00  0.00    +0.000 HD
BRANCH  19  22
ATOM     22  C   UNL     1      44.488   4.125   9.007  0.00  0.00    +0.000 C 
BRANCH  22  23
ATOM     23  O   UNL     1      45.409   5.127   8.592  0.00  0.00    +0.000 OA
ATOM     24  H   UNL     1      45.736   5.546   9.408  0.00  0.00    +0.000 HD
ENDBRANCH  22  23
ENDBRANCH  19  22
ENDBRANCH  13  14
ENDBRANCH   4  13
TORSDOF 6
ENDMDL
MODEL 6
REMARK VINA RESULT:    -6.061      2.607      3.729
REMARK INTER + INTRA:          -8.435
REMARK INTER:                  -7.885
REMARK INTRA:                  -0.550
REMARK UNBOUND:                -0.424
REMARK  Name = 
REMARK  7 active torsions:
REMARK  status: ('A' for Active; 'I' for Inactive)
REMARK    1  A    between atoms: C_1  and  C_2
REMARK    2  A    between atoms: N_4  and  C_5
REMARK    3  A    between atoms: C_5  and  C_6
REMARK    4  A    between atoms: C_9  and  C_10
REMARK    5  A    between atoms: C_10  and  N_11
REMARK    6  A    between atoms: CA_16  and  C_17
REMARK    7  A    between atoms: C_17  and  O_18
REMARK                            x       y       z     vdW  Elec       q    Type
REMARK                         _______ _______ _______ _____ _____    ______ ____
ROOT
ATOM      1  C   UNL     1      45.827   6.799  12.280  0.00  0.00    +0.000 A 
ATOM      2  C   UNL     1      46.229   8.020  12.834  0.00  0.00    +0.000 A 
ATOM      3  C   UNL     1      47.323   8.082  13.705  0.00  0.00    +0.000 A 
ATOM      4  C   UNL     1      48.048   6.925  14.026  0.00  0.00    +0.000 A 
ATOM      5  C   UNL     1      47.654   5.706  13.454  0.00  0.00    +0.000 A 
ATOM      6  C   UNL     1      46.564   5.646  12.581  0.00  0.00    +0.000 A 
ENDROOT
BRANCH   1   7
ATOM      7  C   UNL     1      44.631   6.725  11.368  0.00  0.00    +0.000 C 
BRANCH   7  11
ATOM      8  C   UNL     1      44.489   3.851   8.935  0.00  0.00    +0.000 C 
ATOM      9  C   UNL     1      44.109   4.672  10.137  0.00  0.00    +0.000 C 
ATOM     10  O   UNL     1      43.218   4.344  10.908  0.00  0.00    +0.000 OA
ATOM     11  N   UNL     1      44.857   5.818  10.270  0.00  0.00    +0.000 N 
ATOM     12  H   UNL     1      45.610   6.011   9.624  0.00  0.00    +0.000 HD
ENDBRANCH   7  11
ENDBRANCH   1   7
BRANCH   4  13
ATOM     13  C   UNL     1      49.229   6.977  14.971  0.00  0.00    +0.000 C 
BRANCH  13  14
ATOM     14  N   UNL     1      48.769   7.089  16.341  0.00  0.00    +0.000 N 
ATOM     15  C   UNL     1      48.657   5.880  17.008  0.00  0.00    +0.000 A 
ATOM     16  N   UNL     1      47.691   5.807  17.928  0.00  0.00    +0.000 NA
ATOM     17  C   UNL     1      47.570   4.648  18.605  0.00  0.00    +0.000 A 
ATOM     18  C   UNL     1      48.365   3.553  18.375  0.00  0.00    +0.000 A 
ATOM     19  CA  UNL     1      49.330   3.707  17.402  0.00  0.00    +0.000 A 
ATOM     20  N   UNL     1      49.483   4.866  16.719  0.00  0.00    +0.000 NA
ATOM     21  H   UNL     1      47.879   7.561  16.460  0.00  0.00    +0.000 HD
BRANCH  19  22
ATOM     22  C   UNL     1      50.278   2.586  17.067  0.00  0.00    +0.000 C 
BRANCH  22  23
ATOM     23  O   UNL     1      49.760   1.771  16.021  0.00  0.00    +0.000 OA
ATOM     24  H   UNL     1      48.794   1.755  16.147  0.00  0.00    +0.000 HD
ENDBRANCH  22  23
ENDBRANCH  19  22
ENDBRANCH  13  14
ENDBRANCH   4  13
TORSDOF 6
ENDMDL
MODEL 7
REMARK VINA RESULT:    -5.869      3.716      4.748
REMARK INTER + INTRA:          -8.180
REMARK INTER:                  -7.660
REMARK INTRA:                  -0.521
REMARK UNBOUND:                -0.424
REMARK  Name = 
REMARK  7 active torsions:
REMARK  status: ('A' for Active; 'I' for Inactive)
REMARK    1  A    between atoms: C_1  and  C_2
REMARK    2  A    between atoms: N_4  and  C_5
REMARK    3  A    between atoms: C_5  and  C_6
REMARK    4  A    between atoms: C_9  and  C_10
REMARK    5  A    between atoms: C_10  and  N_11
REMARK    6  A    between atoms: CA_16  and  C_17
REMARK    7  A    between atoms: C_17  and  O_18
REMARK                            x       y       z     vdW  Elec       q    Type
REMARK                         _______ _______ _______ _____ _____    ______ ____
ROOT
ATOM      1  C   UNL     1      45.407   8.769  12.135  0.00  0.00    +0.000 A 
ATOM      2  C   UNL     1      44.903   7.539  11.692  0.00  0.00    +0.000 A 
ATOM      3  C   UNL     1      45.458   6.337  12.143  0.00  0.00    +0.000 A 
ATOM      4  C   UNL     1      46.518   6.338  13.062  0.00  0.00    +0.000 A 
ATOM      5  C   UNL     1      47.008   7.571  13.519  0.00  0.00    +0.000 A 
ATOM      6  C   UNL     1      46.451   8.771  13.070  0.00  0.00    +0.000 A 
ENDROOT
BRANCH   1   7
ATOM      7  C   UNL     1      44.834  10.064  11.626  0.00  0.00    +0.000 C 
BRANCH   7  11
ATOM      8  C   UNL     1      41.141  10.215  10.891  0.00  0.00    +0.000 C 
ATOM      9  C   UNL     1      42.617  10.217  10.596  0.00  0.00    +0.000 C 
ATOM     10  O   UNL     1      43.065  10.327   9.463  0.00  0.00    +0.000 OA
ATOM     11  N   UNL     1      43.395  10.079  11.721  0.00  0.00    +0.000 N 
ATOM     12  H   UNL     1      42.965  10.038  12.634  0.00  0.00    +0.000 HD
ENDBRANCH   7  11
ENDBRANCH   1   7
BRANCH   4  13
ATOM     13  C   UNL     1      47.131   5.044  13.553  0.00  0.00    +0.000 C 
BRANCH  13  14
ATOM     14  N   UNL     1      46.411   4.558  14.714  0.00  0.00    +0.000 N 
ATOM     15  C   UNL     1      47.198   4.377  15.840  0.00  0.00    +0.000 A 
ATOM     16  N   UNL     1      46.827   3.387  16.658  0.00  0.00    +0.000 NA
ATOM     17  C   UNL     1      47.563   3.199  17.771  0.00  0.00    +0.000 A 
ATOM     18  C   UNL     1      48.670   3.949  18.079  0.00  0.00    +0.000 A 
ATOM     19  CA  UNL     1      48.992   4.943  17.178  0.00  0.00    +0.000 A 
ATOM     20  N   UNL     1      48.259   5.163  16.061  0.00  0.00    +0.000 NA
ATOM     21  H   UNL     1      45.909   3.688  14.576  0.00  0.00    +0.000 HD
BRANCH  19  22
ATOM     22  C   UNL     1      50.174   5.847  17.410  0.00  0.00    +0.000 C 
BRANCH  22  23
ATOM     23  O   UNL     1      51.291   5.442  16.626  0.00  0.00    +0.000 OA
ATOM     24  H   UNL     1      52.007   6.068  16.836  0.00  0.00    +0.000 HD
ENDBRANCH  22  23
ENDBRANCH  19  22
ENDBRANCH  13  14
ENDBRANCH   4  13
TORSDOF 6
ENDMDL
MODEL 8
REMARK VINA RESULT:    -5.796      2.594      3.692
REMARK INTER + INTRA:          -8.084
REMARK INTER:                  -7.624
REMARK INTRA:                  -0.460
REMARK UNBOUND:                -0.424
REMARK  Name = 
REMARK  7 active torsions:
REMARK  status: ('A' for Active; 'I' for Inactive)
REMARK    1  A    between atoms: C_1  and  C_2
REMARK    2  A    between atoms: N_4  and  C_5
REMARK    3  A    between atoms: C_5  and  C_6
REMARK    4  A    between atoms: C_9  and  C_10
REMARK    5  A    between atoms: C_10  and  N_11
REMARK    6  A    between atoms: CA_16  and  C_17
REMARK    7  A    between atoms: C_17  and  O_18
REMARK                            x       y       z     vdW  Elec       q    Type
REMARK                         _______ _______ _______ _____ _____    ______ ____
ROOT
ATOM      1  C   UNL     1      46.385   5.716  12.339  0.00  0.00    +0.000 A 
ATOM      2  C   UNL     1      47.368   6.524  12.924  0.00  0.00    +0.000 A 
ATOM      3  C   UNL     1      47.850   6.245  14.207  0.00  0.00    +0.000 A 
ATOM      4  C   UNL     1      47.372   5.140  14.927  0.00  0.00    +0.000 A 
ATOM      5  C   UNL     1      46.401   4.321  14.331  0.00  0.00    +0.000 A 
ATOM      6  C   UNL     1      45.923   4.598  13.047  0.00  0.00    +0.000 A 
ENDROOT
BRANCH   1   7
ATOM      7  C   UNL     1      45.842   6.033  10.972  0.00  0.00    +0.000 C 
BRANCH   7  11
ATOM      8  C   UNL     1      44.582   3.334   8.664  0.00  0.00    +0.000 C 
ATOM      9  C   UNL     1      45.381   4.537   9.087  0.00  0.00    +0.000 C 
ATOM     10  O   UNL     1      46.146   5.122   8.335  0.00  0.00    +0.000 OA
ATOM     11  N   UNL     1      45.163   4.899  10.396  0.00  0.00    +0.000 N 
ATOM     12  H   UNL     1      44.482   4.402  10.954  0.00  0.00    +0.000 HD
ENDBRANCH   7  11
ENDBRANCH   1   7
BRANCH   4  13
ATOM     13  C   UNL     1      47.881   4.831  16.318  0.00  0.00    +0.000 C 
BRANCH  13  14
ATOM     14  N   UNL     1      49.062   5.621  16.607  0.00  0.00    +0.000 N 
ATOM     15  C   UNL     1      50.076   4.922  17.242  0.00  0.00    +0.000 A 
ATOM     16  N   UNL     1      50.833   5.631  18.085  0.00  0.00    +0.000 NA
ATOM     17  C   UNL     1      51.839   4.982  18.704  0.00  0.00    +0.000 A 
ATOM     18  C   UNL     1      52.096   3.645  18.529  0.00  0.00    +0.000 A 
ATOM     19  CA  UNL     1      51.261   2.984  17.651  0.00  0.00    +0.000 A 
ATOM     20  N   UNL     1      50.253   3.616  17.004  0.00  0.00    +0.000 NA
ATOM     21  H   UNL     1      48.898   6.452  17.164  0.00  0.00    +0.000 HD
BRANCH  19  22
ATOM     22  C   UNL     1      51.448   1.519  17.358  0.00  0.00    +0.000 C 
BRANCH  22  23
ATOM     23  O   UNL     1      52.290   0.905  18.328  0.00  0.00    +0.000 OA
ATOM     24  H   UNL     1      52.136  -0.053  18.250  0.00  0.00    +0.000 HD
ENDBRANCH  22  23
ENDBRANCH  19  22
ENDBRANCH  13  14
ENDBRANCH   4  13
TORSDOF 6
ENDMDL
MODEL 9
REMARK VINA RESULT:    -5.318      2.932      3.748
REMARK INTER + INTRA:          -7.453
REMARK INTER:                  -7.012
REMARK INTRA:                  -0.441
REMARK UNBOUND:                -0.424
REMARK  Name = 
REMARK  7 active torsions:
REMARK  status: ('A' for Active; 'I' for Inactive)
REMARK    1  A    between atoms: C_1  and  C_2
REMARK    2  A    between atoms: N_4  and  C_5
REMARK    3  A    between atoms: C_5  and  C_6
REMARK    4  A    between atoms: C_9  and  C_10
REMARK    5  A    between atoms: C_10  and  N_11
REMARK    6  A    between atoms: CA_16  and  C_17
REMARK    7  A    between atoms: C_17  and  O_18
REMARK                            x       y       z     vdW  Elec       q    Type
REMARK                         _______ _______ _______ _____ _____    ______ ____
ROOT
ATOM      1  C   UNL     1      45.648   6.886  12.301  0.00  0.00    +0.000 A 
ATOM      2  C   UNL     1      45.755   8.198  12.780  0.00  0.00    +0.000 A 
ATOM      3  C   UNL     1      46.849   8.583  13.563  0.00  0.00    +0.000 A 
ATOM      4  C   UNL     1      47.867   7.669  13.870  0.00  0.00    +0.000 A 
ATOM      5  C   UNL     1      47.767   6.361  13.372  0.00  0.00    +0.000 A 
ATOM      6  C   UNL     1      46.677   5.978  12.587  0.00  0.00    +0.000 A 
ENDROOT
BRANCH   1   7
ATOM      7  C   UNL     1      44.457   6.460  11.485  0.00  0.00    +0.000 C 
BRANCH   7  11
ATOM      8  C   UNL     1      43.290   2.878  11.537  0.00  0.00    +0.000 C 
ATOM      9  C   UNL     1      43.787   4.168  10.941  0.00  0.00    +0.000 C 
ATOM     10  O   UNL     1      43.993   4.309   9.744  0.00  0.00    +0.000 OA
ATOM     11  N   UNL     1      43.986   5.155  11.877  0.00  0.00    +0.000 N 
ATOM     12  H   UNL     1      43.754   4.991  12.847  0.00  0.00    +0.000 HD
ENDBRANCH   7  11
ENDBRANCH   1   7
BRANCH   4  13
ATOM     13  C   UNL     1      49.052   8.072  14.722  0.00  0.00    +0.000 C 
BRANCH  13  14
ATOM     14  N   UNL     1      49.933   6.938  14.922  0.00  0.00    +0.000 N 
ATOM     15  C   UNL     1      49.905   6.411  16.203  0.00  0.00    +0.000 A 
ATOM     16  N   UNL     1      51.051   5.882  16.642  0.00  0.00    +0.000 NA
ATOM     17  C   UNL     1      51.049   5.346  17.878  0.00  0.00    +0.000 A 
ATOM     18  C   UNL     1      49.948   5.344  18.698  0.00  0.00    +0.000 A 
ATOM     19  CA  UNL     1      48.809   5.919  18.174  0.00  0.00    +0.000 A 
ATOM     20  N   UNL     1      48.780   6.450  16.929  0.00  0.00    +0.000 NA
ATOM     21  H   UNL     1      50.910   7.109  14.707  0.00  0.00    +0.000 HD
BRANCH  19  22
ATOM     22  C   UNL     1      47.529   5.964  18.966  0.00  0.00    +0.000 C 
BRANCH  22  23
ATOM     23  O   UNL     1      46.544   5.107  18.398  0.00  0.00    +0.000 OA
ATOM     24  H   UNL     1      46.962   4.230  18.325  0.00  0.00    +0.000 HD
ENDBRANCH  22  23
ENDBRANCH  19  22
ENDBRANCH  13  14
ENDBRANCH   4  13
TORSDOF 6
ENDMDL
