MODEL 1
REMARK VINA RESULT:    -8.369      0.000      0.000
REMARK INTER + INTRA:         -12.256
REMARK INTER:                 -11.305
REMARK INTRA:                  -0.951
REMARK UNBOUND:                -0.951
REMARK  Name = 
REMARK  7 active torsions:
REMARK  status: ('A' for Active; 'I' for Inactive)
REMARK    1  A    between atoms: C_1  and  C_2
REMARK    2  A    between atoms: C_2  and  C_3
REMARK    3  A    between atoms: C_2  and  C_14
REMARK    4  A    between atoms: C_3  and  N_4
REMARK    5  A    between atoms: N_4  and  C_5
REMARK    6  A    between atoms: C_8  and  C_9
REMARK    7  A    between atoms: C_18  and  C_19
REMARK                            x       y       z     vdW  Elec       q    Type
REMARK                         _______ _______ _______ _____ _____    ______ ____
ROOT
ATOM      1  C   UNL     1      44.323   5.730  10.993  0.00  0.00    +0.000 C 
ENDROOT
BRANCH   1   3
ATOM      2  C   UNL     1      43.592   4.109  12.847  0.00  0.00    +0.000 C 
ATOM      3  C   UNL     1      44.664   4.949  12.226  0.00  0.00    +0.000 C 
BRANCH   3   4
ATOM      4  C   UNL     1      45.856   5.322  12.997  0.00  0.00    +0.000 A 
ATOM      5  C   UNL     1      46.584   6.475  12.681  0.00  0.00    +0.000 A 
ATOM      6  C   UNL     1      47.677   6.859  13.460  0.00  0.00    +0.000 A 
ATOM      7  C   UNL     1      48.043   6.101  14.573  0.00  0.00    +0.000 A 
ATOM      8  C   UNL     1      47.327   4.944  14.906  0.00  0.00    +0.000 A 
ATOM      9  C   UNL     1      46.246   4.555  14.097  0.00  0.00    +0.000 A 
BRANCH   8  10
ATOM     10  C   UNL     1      47.665   4.125  16.125  0.00  0.00    +0.000 C 
ATOM     11  F   UNL     1      47.855   2.803  15.861  0.00  0.00    +0.000 F 
ATOM     12  F   UNL     1      48.810   4.552  16.728  0.00  0.00    +0.000 F 
ATOM     13  F   UNL     1      46.696   4.183  17.079  0.00  0.00    +0.000 F 
ENDBRANCH   8  10
ENDBRANCH   3   4
ENDBRANCH   1   3
BRANCH   1  14
ATOM     14  N   UNL     1      43.767   4.791  10.022  0.00  0.00    +0.000 N 
ATOM     15  H   UNL     1      43.135   5.260   9.376  0.00  0.00    +0.000 HD
BRANCH  14  16
ATOM     16  C   UNL     1      44.661   3.955   9.335  0.00  0.00    +0.000 A 
ATOM     17  C   UNL     1      44.618   2.561   9.425  0.00  0.00    +0.000 A 
ATOM     18  C   UNL     1      45.495   1.762   8.687  0.00  0.00    +0.000 A 
ATOM     19  C   UNL     1      46.407   2.342   7.806  0.00  0.00    +0.000 A 
ATOM     20  C   UNL     1      46.434   3.732   7.664  0.00  0.00    +0.000 A 
ATOM     21  C   UNL     1      45.551   4.524   8.412  0.00  0.00    +0.000 A 
BRANCH  19  22
ATOM     22  C   UNL     1      47.322   1.439   7.059  0.00  0.00    +0.000 C 
ATOM     23  N   UNL     1      48.388   2.002   6.417  0.00  0.00    +0.000 N 
ATOM     24  O   UNL     1      47.113   0.234   6.985  0.00  0.00    +0.000 OA
ATOM     25  H   UNL     1      48.457   2.995   6.245  0.00  0.00    +0.000 HD
ATOM     26  H   UNL     1      48.918   1.383   5.818  0.00  0.00    +0.000 HD
ENDBRANCH  19  22
ENDBRANCH  14  16
ENDBRANCH   1  14
TORSDOF 6
ENDMDL
MODEL 2
REMARK VINA RESULT:    -8.268      2.413      3.087
REMARK INTER + INTRA:         -12.120
REMARK INTER:                 -11.020
REMARK INTRA:                  -1.100
REMARK UNBOUND:                -0.951
REMARK  Name = 
REMARK  7 active torsions:
REMARK  status: ('A' for Active; 'I' for Inactive)
REMARK    1  A    between atoms: C_1  and  C_2
REMARK    2  A    between atoms: C_2  and  C_3
REMARK    3  A    between atoms: C_2  and  C_14
REMARK    4  A    between atoms: C_3  and  N_4
REMARK    5  A    between atoms: N_4  and  C_5
REMARK    6  A    between atoms: C_8  and  C_9
REMARK    7  A    between atoms: C_18  and  C_19
REMARK                            x       y       z     vdW  Elec       q    Type
REMARK                         _______ _______ _______ _____ _____    ______ ____
ROOT
ATOM      1  C   UNL     1      43.702   4.657  11.399  0.00  0.00    +0.000 C 
ENDROOT
BRANCH   1   3
ATOM      2  C   UNL     1      45.693   3.742  12.740  0.00  0.00    +0.000 C 
ATOM      3  C   UNL     1      45.090   4.848  11.931  0.00  0.00    +0.000 C 
BRANCH   3   4
ATOM      4  C   UNL     1      45.647   6.205  11.996  0.00  0.00    +0.000 A 
ATOM      5  C   UNL     1      44.812   7.316  12.167  0.00  0.00    +0.000 A 
ATOM      6  C   UNL     1      45.354   8.596  12.294  0.00  0.00    +0.000 A 
ATOM      7  C   UNL     1      46.737   8.776  12.267  0.00  0.00    +0.000 A 
ATOM      8  C   UNL     1      47.589   7.676  12.097  0.00  0.00    +0.000 A 
ATOM      9  C   UNL     1      47.029   6.398  11.943  0.00  0.00    +0.000 A 
BRANCH   8  10
ATOM     10  C   UNL     1      49.089   7.826  12.107  0.00  0.00    +0.000 C 
ATOM     11  F   UNL     1      49.713   7.024  13.014  0.00  0.00    +0.000 F 
ATOM     12  F   UNL     1      49.642   7.522  10.899  0.00  0.00    +0.000 F 
ATOM     13  F   UNL     1      49.485   9.096  12.391  0.00  0.00    +0.000 F 
ENDBRANCH   8  10
ENDBRANCH   3   4
ENDBRANCH   1   3
BRANCH   1  14
ATOM     14  N   UNL     1      43.774   4.765   9.945  0.00  0.00    +0.000 N 
ATOM     15  H   UNL     1      43.883   5.734   9.652  0.00  0.00    +0.000 HD
BRANCH  14  16
ATOM     16  C   UNL     1      44.679   3.930   9.271  0.00  0.00    +0.000 A 
ATOM     17  C   UNL     1      44.627   2.535   9.348  0.00  0.00    +0.000 A 
ATOM     18  C   UNL     1      45.517   1.738   8.624  0.00  0.00    +0.000 A 
ATOM     19  C   UNL     1      46.451   2.320   7.768  0.00  0.00    +0.000 A 
ATOM     20  C   UNL     1      46.488   3.711   7.638  0.00  0.00    +0.000 A 
ATOM     21  C   UNL     1      45.593   4.502   8.373  0.00  0.00    +0.000 A 
BRANCH  19  22
ATOM     22  C   UNL     1      47.378   1.418   7.034  0.00  0.00    +0.000 C 
ATOM     23  N   UNL     1      48.468   1.980   6.433  0.00  0.00    +0.000 N 
ATOM     24  O   UNL     1      47.158   0.217   6.936  0.00  0.00    +0.000 OA
ATOM     25  H   UNL     1      48.552   2.974   6.279  0.00  0.00    +0.000 HD
ATOM     26  H   UNL     1      49.009   1.364   5.840  0.00  0.00    +0.000 HD
ENDBRANCH  19  22
ENDBRANCH  14  16
ENDBRANCH   1  14
TORSDOF 6
ENDMDL
MODEL 3
REMARK VINA RESULT:    -8.074      3.505      4.177
REMARK INTER + INTRA:         -11.858
REMARK INTER:                 -10.968
REMARK INTRA:                  -0.890
REMARK UNBOUND:                -0.951
REMARK  Name = 
REMARK  7 active torsions:
REMARK  status: ('A' for Active; 'I' for Inactive)
REMARK    1  A    between atoms: C_1  and  C_2
REMARK    2  A    between atoms: C_2  and  C_3
REMARK    3  A    between atoms: C_2  and  C_14
REMARK    4  A    between atoms: C_3  and  N_4
REMARK    5  A    between atoms: N_4  and  C_5
REMARK    6  A    between atoms: C_8  and  C_9
REMARK    7  A    between atoms: C_18  and  C_19
REMARK                            x       y       z     vdW  Elec       q    Type
REMARK                         _______ _______ _______ _____ _____    ______ ____
ROOT
ATOM      1  C   UNL     1      43.673   4.535  11.472  0.00  0.00    +0.000 C 
ENDROOT
BRANCH   1   3
ATOM      2  C   UNL     1      45.770   3.731  12.719  0.00  0.00    +0.000 C 
ATOM      3  C   UNL     1      45.064   4.809  11.957  0.00  0.00    +0.000 C 
BRANCH   3   4
ATOM      4  C   UNL     1      45.530   6.200  12.032  0.00  0.00    +0.000 A 
ATOM      5  C   UNL     1      46.846   6.497  12.406  0.00  0.00    +0.000 A 
ATOM      6  C   UNL     1      47.300   7.817  12.412  0.00  0.00    +0.000 A 
ATOM      7  C   UNL     1      46.447   8.852  12.027  0.00  0.00    +0.000 A 
ATOM      8  C   UNL     1      45.126   8.574  11.648  0.00  0.00    +0.000 A 
ATOM      9  C   UNL     1      44.674   7.245  11.674  0.00  0.00    +0.000 A 
BRANCH   8  10
ATOM     10  C   UNL     1      44.189   9.660  11.184  0.00  0.00    +0.000 C 
ATOM     11  F   UNL     1      43.035   9.190  10.637  0.00  0.00    +0.000 F 
ATOM     12  F   UNL     1      43.810  10.480  12.205  0.00  0.00    +0.000 F 
ATOM     13  F   UNL     1      44.751  10.468  10.244  0.00  0.00    +0.000 F 
ENDBRANCH   8  10
ENDBRANCH   3   4
ENDBRANCH   1   3
BRANCH   1  14
ATOM     14  N   UNL     1      43.692   4.631  10.015  0.00  0.00    +0.000 N 
ATOM     15  H   UNL     1      43.740   5.601   9.710  0.00  0.00    +0.000 HD
BRANCH  14  16
ATOM     16  C   UNL     1      44.617   3.838   9.320  0.00  0.00    +0.000 A 
ATOM     17  C   UNL     1      44.617   2.441   9.380  0.00  0.00    +0.000 A 
ATOM     18  C   UNL     1      45.526   1.685   8.635  0.00  0.00    +0.000 A 
ATOM     19  C   UNL     1      46.428   2.312   7.775  0.00  0.00    +0.000 A 
ATOM     20  C   UNL     1      46.412   3.705   7.662  0.00  0.00    +0.000 A 
ATOM     21  C   UNL     1      45.499   4.453   8.418  0.00  0.00    +0.000 A 
BRANCH  19  22
ATOM     22  C   UNL     1      47.377   1.453   7.019  0.00  0.00    +0.000 C 
ATOM     23  N   UNL     1      48.510   2.037   6.529  0.00  0.00    +0.000 N 
ATOM     24  O   UNL     1      47.141   0.270   6.807  0.00  0.00    +0.000 OA
ATOM     25  H   UNL     1      48.622   3.038   6.465  0.00  0.00    +0.000 HD
ATOM     26  H   UNL     1      49.073   1.461   5.916  0.00  0.00    +0.000 HD
ENDBRANCH  19  22
ENDBRANCH  14  16
ENDBRANCH   1  14
TORSDOF 6
ENDMDL
MODEL 4
REMARK VINA RESULT:    -8.027      2.624      3.175
REMARK INTER + INTRA:         -11.794
REMARK INTER:                 -10.881
REMARK INTRA:                  -0.913
REMARK UNBOUND:                -0.951
REMARK  Name = 
REMARK  7 active torsions:
REMARK  status: ('A' for Active; 'I' for Inactive)
REMARK    1  A    between atoms: C_1  and  C_2
REMARK    2  A    between atoms: C_2  and  C_3
REMARK    3  A    between atoms: C_2  and  C_14
REMARK    4  A    between atoms: C_3  and  N_4
REMARK    5  A    between atoms: N_4  and  C_5
REMARK    6  A    between atoms: C_8  and  C_9
REMARK    7  A    between atoms: C_18  and  C_19
REMARK                            x       y       z     vdW  Elec       q    Type
REMARK                         _______ _______ _______ _____ _____    ______ ____
ROOT
ATOM      1  C   UNL     1      43.851   3.286  11.773  0.00  0.00    +0.000 C 
ENDROOT
BRANCH   1   3
ATOM      2  C   UNL     1      42.570   5.470  12.211  0.00  0.00    +0.000 C 
ATOM      3  C   UNL     1      43.793   4.634  12.426  0.00  0.00    +0.000 C 
BRANCH   3   4
ATOM      4  C   UNL     1      45.039   5.249  12.900  0.00  0.00    +0.000 A 
ATOM      5  C   UNL     1      45.951   4.521  13.674  0.00  0.00    +0.000 A 
ATOM      6  C   UNL     1      47.163   5.092  14.065  0.00  0.00    +0.000 A 
ATOM      7  C   UNL     1      47.483   6.392  13.673  0.00  0.00    +0.000 A 
ATOM      8  C   UNL     1      46.584   7.137  12.898  0.00  0.00    +0.000 A 
ATOM      9  C   UNL     1      45.356   6.560  12.535  0.00  0.00    +0.000 A 
BRANCH   8  10
ATOM     10  C   UNL     1      46.912   8.528  12.418  0.00  0.00    +0.000 C 
ATOM     11  F   UNL     1      45.894   9.129  11.745  0.00  0.00    +0.000 F 
ATOM     12  F   UNL     1      47.223   9.365  13.448  0.00  0.00    +0.000 F 
ATOM     13  F   UNL     1      47.985   8.551  11.580  0.00  0.00    +0.000 F 
ENDBRANCH   8  10
ENDBRANCH   3   4
ENDBRANCH   1   3
BRANCH   1  14
ATOM     14  N   UNL     1      43.582   3.479  10.351  0.00  0.00    +0.000 N 
ATOM     15  H   UNL     1      43.186   4.400  10.172  0.00  0.00    +0.000 HD
BRANCH  14  16
ATOM     16  C   UNL     1      44.612   3.189   9.445  0.00  0.00    +0.000 A 
ATOM     17  C   UNL     1      45.063   1.888   9.199  0.00  0.00    +0.000 A 
ATOM     18  C   UNL     1      46.060   1.636   8.253  0.00  0.00    +0.000 A 
ATOM     19  C   UNL     1      46.597   2.678   7.497  0.00  0.00    +0.000 A 
ATOM     20  C   UNL     1      46.126   3.979   7.692  0.00  0.00    +0.000 A 
ATOM     21  C   UNL     1      45.128   4.221   8.647  0.00  0.00    +0.000 A 
BRANCH  19  22
ATOM     22  C   UNL     1      47.664   2.346   6.516  0.00  0.00    +0.000 C 
ATOM     23  N   UNL     1      47.745   3.106   5.385  0.00  0.00    +0.000 N 
ATOM     24  O   UNL     1      48.423   1.401   6.691  0.00  0.00    +0.000 OA
ATOM     25  H   UNL     1      47.001   3.720   5.087  0.00  0.00    +0.000 HD
ATOM     26  H   UNL     1      48.396   2.781   4.681  0.00  0.00    +0.000 HD
ENDBRANCH  19  22
ENDBRANCH  14  16
ENDBRANCH   1  14
TORSDOF 6
ENDMDL
MODEL 5
REMARK VINA RESULT:    -7.765      4.491      6.739
REMARK INTER + INTRA:         -11.440
REMARK INTER:                 -10.141
REMARK INTRA:                  -1.299
REMARK UNBOUND:                -0.951
REMARK  Name = 
REMARK  7 active torsions:
REMARK  status: ('A' for Active; 'I' for Inactive)
REMARK    1  A    between atoms: C_1  and  C_2
REMARK    2  A    between atoms: C_2  and  C_3
REMARK    3  A    between atoms: C_2  and  C_14
REMARK    4  A    between atoms: C_3  and  N_4
REMARK    5  A    between atoms: N_4  and  C_5
REMARK    6  A    between atoms: C_8  and  C_9
REMARK    7  A    between atoms: C_18  and  C_19
REMARK                            x       y       z     vdW  Elec       q    Type
REMARK                         _______ _______ _______ _____ _____    ______ ____
ROOT
ATOM      1  C   UNL     1      43.233   4.671  11.246  0.00  0.00    +0.000 C 
ENDROOT
BRANCH   1   3
ATOM      2  C   UNL     1      43.638   2.145  11.479  0.00  0.00    +0.000 C 
ATOM      3  C   UNL     1      43.763   3.396  10.666  0.00  0.00    +0.000 C 
BRANCH   3   4
ATOM      4  C   UNL     1      44.714   3.463   9.549  0.00  0.00    +0.000 A 
ATOM      5  C   UNL     1      45.175   4.696   9.071  0.00  0.00    +0.000 A 
ATOM      6  C   UNL     1      46.128   4.750   8.053  0.00  0.00    +0.000 A 
ATOM      7  C   UNL     1      46.643   3.571   7.514  0.00  0.00    +0.000 A 
ATOM      8  C   UNL     1      46.195   2.327   7.978  0.00  0.00    +0.000 A 
ATOM      9  C   UNL     1      45.215   2.288   8.984  0.00  0.00    +0.000 A 
BRANCH   8  10
ATOM     10  C   UNL     1      46.759   1.033   7.451  0.00  0.00    +0.000 C 
ATOM     11  F   UNL     1      46.209  -0.075   8.018  0.00  0.00    +0.000 F 
ATOM     12  F   UNL     1      46.566   0.900   6.109  0.00  0.00    +0.000 F 
ATOM     13  F   UNL     1      48.102   0.930   7.648  0.00  0.00    +0.000 F 
ENDBRANCH   8  10
ENDBRANCH   3   4
ENDBRANCH   1   3
BRANCH   1  14
ATOM     14  N   UNL     1      43.687   4.742  12.632  0.00  0.00    +0.000 N 
ATOM     15  H   UNL     1      43.546   3.855  13.112  0.00  0.00    +0.000 HD
BRANCH  14  16
ATOM     16  C   UNL     1      44.974   5.246  12.874  0.00  0.00    +0.000 A 
ATOM     17  C   UNL     1      45.918   4.575  13.658  0.00  0.00    +0.000 A 
ATOM     18  C   UNL     1      47.205   5.087  13.836  0.00  0.00    +0.000 A 
ATOM     19  C   UNL     1      47.592   6.263  13.193  0.00  0.00    +0.000 A 
ATOM     20  C   UNL     1      46.681   6.924  12.366  0.00  0.00    +0.000 A 
ATOM     21  C   UNL     1      45.390   6.403  12.198  0.00  0.00    +0.000 A 
BRANCH  19  22
ATOM     22  C   UNL     1      48.972   6.763  13.433  0.00  0.00    +0.000 C 
ATOM     23  N   UNL     1      49.705   7.150  12.347  0.00  0.00    +0.000 N 
ATOM     24  O   UNL     1      49.455   6.794  14.558  0.00  0.00    +0.000 OA
ATOM     25  H   UNL     1      49.444   6.912  11.402  0.00  0.00    +0.000 HD
ATOM     26  H   UNL     1      50.677   7.367  12.527  0.00  0.00    +0.000 HD
ENDBRANCH  19  22
ENDBRANCH  14  16
ENDBRANCH   1  14
TORSDOF 6
ENDMDL
MODEL 6
REMARK VINA RESULT:    -7.483      1.860      2.703
REMARK INTER + INTRA:         -11.059
REMARK INTER:                 -10.075
REMARK INTRA:                  -0.984
REMARK UNBOUND:                -0.951
REMARK  Name = 
REMARK  7 active torsions:
REMARK  status: ('A' for Active; 'I' for Inactive)
REMARK    1  A    between atoms: C_1  and  C_2
REMARK    2  A    between atoms: C_2  and  C_3
REMARK    3  A    between atoms: C_2  and  C_14
REMARK    4  A    between atoms: C_3  and  N_4
REMARK    5  A    between atoms: N_4  and  C_5
REMARK    6  A    between atoms: C_8  and  C_9
REMARK    7  A    between atoms: C_18  and  C_19
REMARK                            x       y       z     vdW  Elec       q    Type
REMARK                         _______ _______ _______ _____ _____    ______ ____
ROOT
ATOM      1  C   UNL     1      43.789   5.007  11.274  0.00  0.00    +0.000 C 
ENDROOT
BRANCH   1   3
ATOM      2  C   UNL     1      44.685   7.409  11.104  0.00  0.00    +0.000 C 
ATOM      3  C   UNL     1      44.636   6.106  11.840  0.00  0.00    +0.000 C 
BRANCH   3   4
ATOM      4  C   UNL     1      45.671   5.771  12.826  0.00  0.00    +0.000 A 
ATOM      5  C   UNL     1      45.786   4.471  13.333  0.00  0.00    +0.000 A 
ATOM      6  C   UNL     1      46.812   4.144  14.220  0.00  0.00    +0.000 A 
ATOM      7  C   UNL     1      47.745   5.111  14.597  0.00  0.00    +0.000 A 
ATOM      8  C   UNL     1      47.647   6.418  14.101  0.00  0.00    +0.000 A 
ATOM      9  C   UNL     1      46.593   6.739  13.231  0.00  0.00    +0.000 A 
BRANCH   8  10
ATOM     10  C   UNL     1      48.661   7.477  14.451  0.00  0.00    +0.000 C 
ATOM     11  F   UNL     1      48.659   8.538  13.599  0.00  0.00    +0.000 F 
ATOM     12  F   UNL     1      48.451   7.997  15.693  0.00  0.00    +0.000 F 
ATOM     13  F   UNL     1      49.935   6.999  14.456  0.00  0.00    +0.000 F 
ENDBRANCH   8  10
ENDBRANCH   3   4
ENDBRANCH   1   3
BRANCH   1  14
ATOM     14  N   UNL     1      43.897   5.079   9.820  0.00  0.00    +0.000 N 
ATOM     15  H   UNL     1      44.161   6.014   9.515  0.00  0.00    +0.000 HD
BRANCH  14  16
ATOM     16  C   UNL     1      44.669   4.102   9.173  0.00  0.00    +0.000 A 
ATOM     17  C   UNL     1      45.672   4.415   8.250  0.00  0.00    +0.000 A 
ATOM     18  C   UNL     1      46.451   3.415   7.663  0.00  0.00    +0.000 A 
ATOM     19  C   UNL     1      46.275   2.079   8.022  0.00  0.00    +0.000 A 
ATOM     20  C   UNL     1      45.312   1.749   8.979  0.00  0.00    +0.000 A 
ATOM     21  C   UNL     1      44.532   2.760   9.559  0.00  0.00    +0.000 A 
BRANCH  19  22
ATOM     22  C   UNL     1      47.127   1.062   7.352  0.00  0.00    +0.000 C 
ATOM     23  N   UNL     1      46.837  -0.254   7.573  0.00  0.00    +0.000 N 
ATOM     24  O   UNL     1      48.081   1.384   6.656  0.00  0.00    +0.000 OA
ATOM     25  H   UNL     1      46.232  -0.560   8.321  0.00  0.00    +0.000 HD
ATOM     26  H   UNL     1      47.506  -0.920   7.207  0.00  0.00    +0.000 HD
ENDBRANCH  19  22
ENDBRANCH  14  16
ENDBRANCH   1  14
TORSDOF 6
ENDMDL
MODEL 7
REMARK VINA RESULT:    -6.787      4.586      7.541
REMARK INTER + INTRA:         -10.119
REMARK INTER:                  -9.155
REMARK INTRA:                  -0.964
REMARK UNBOUND:                -0.951
REMARK  Name = 
REMARK  7 active torsions:
REMARK  status: ('A' for Active; 'I' for Inactive)
REMARK    1  A    between atoms: C_1  and  C_2
REMARK    2  A    between atoms: C_2  and  C_3
REMARK    3  A    between atoms: C_2  and  C_14
REMARK    4  A    between atoms: C_3  and  N_4
REMARK    5  A    between atoms: N_4  and  C_5
REMARK    6  A    between atoms: C_8  and  C_9
REMARK    7  A    between atoms: C_18  and  C_19
REMARK                            x       y       z     vdW  Elec       q    Type
REMARK                         _______ _______ _______ _____ _____    ______ ____
ROOT
ATOM      1  C   UNL     1      47.315   6.376  12.518  0.00  0.00    +0.000 C 
ENDROOT
BRANCH   1   3
ATOM      2  C   UNL     1      45.216   7.760  11.992  0.00  0.00    +0.000 C 
ATOM      3  C   UNL     1      45.926   6.442  11.960  0.00  0.00    +0.000 C 
BRANCH   3   4
ATOM      4  C   UNL     1      45.172   5.195  11.780  0.00  0.00    +0.000 A 
ATOM      5  C   UNL     1      44.209   4.796  12.714  0.00  0.00    +0.000 A 
ATOM      6  C   UNL     1      43.450   3.644  12.503  0.00  0.00    +0.000 A 
ATOM      7  C   UNL     1      43.636   2.888  11.345  0.00  0.00    +0.000 A 
ATOM      8  C   UNL     1      44.595   3.270  10.397  0.00  0.00    +0.000 A 
ATOM      9  C   UNL     1      45.370   4.417  10.637  0.00  0.00    +0.000 A 
BRANCH   8  10
ATOM     10  C   UNL     1      44.793   2.504   9.115  0.00  0.00    +0.000 C 
ATOM     11  F   UNL     1      46.100   2.292   8.800  0.00  0.00    +0.000 F 
ATOM     12  F   UNL     1      44.217   1.269   9.162  0.00  0.00    +0.000 F 
ATOM     13  F   UNL     1      44.243   3.132   8.040  0.00  0.00    +0.000 F 
ENDBRANCH   8  10
ENDBRANCH   3   4
ENDBRANCH   1   3
BRANCH   1  14
ATOM     14  N   UNL     1      47.244   6.792  13.916  0.00  0.00    +0.000 N 
ATOM     15  H   UNL     1      46.316   7.138  14.151  0.00  0.00    +0.000 HD
BRANCH  14  16
ATOM     16  C   UNL     1      47.708   5.895  14.890  0.00  0.00    +0.000 A 
ATOM     17  C   UNL     1      48.634   6.255  15.874  0.00  0.00    +0.000 A 
ATOM     18  C   UNL     1      49.035   5.345  16.856  0.00  0.00    +0.000 A 
ATOM     19  C   UNL     1      48.482   4.065  16.901  0.00  0.00    +0.000 A 
ATOM     20  C   UNL     1      47.519   3.701  15.957  0.00  0.00    +0.000 A 
ATOM     21  C   UNL     1      47.127   4.621  14.974  0.00  0.00    +0.000 A 
BRANCH  19  22
ATOM     22  C   UNL     1      48.960   3.140  17.963  0.00  0.00    +0.000 C 
ATOM     23  N   UNL     1      48.373   3.228  19.193  0.00  0.00    +0.000 N 
ATOM     24  O   UNL     1      49.873   2.350  17.759  0.00  0.00    +0.000 OA
ATOM     25  H   UNL     1      47.805   4.015  19.470  0.00  0.00    +0.000 HD
ATOM     26  H   UNL     1      48.802   2.675  19.925  0.00  0.00    +0.000 HD
ENDBRANCH  19  22
ENDBRANCH  14  16
ENDBRANCH   1  14
TORSDOF 6
ENDMDL
MODEL 8
REMARK VINA RESULT:    -6.382      2.753      4.681
REMARK INTER + INTRA:          -9.572
REMARK INTER:                  -8.529
REMARK INTRA:                  -1.043
REMARK UNBOUND:                -0.951
REMARK  Name = 
REMARK  7 active torsions:
REMARK  status: ('A' for Active; 'I' for Inactive)
REMARK    1  A    between atoms: C_1  and  C_2
REMARK    2  A    between atoms: C_2  and  C_3
REMARK    3  A    between atoms: C_2  and  C_14
REMARK    4  A    between atoms: C_3  and  N_4
REMARK    5  A    between atoms: N_4  and  C_5
REMARK    6  A    between atoms: C_8  and  C_9
REMARK    7  A    between atoms: C_18  and  C_19
REMARK                            x       y       z     vdW  Elec       q    Type
REMARK                         _______ _______ _______ _____ _____    ______ ____
ROOT
ATOM      1  C   UNL     1      48.576   7.082  13.855  0.00  0.00    +0.000 C 
ENDROOT
BRANCH   1   3
ATOM      2  C   UNL     1      49.706   8.836  15.354  0.00  0.00    +0.000 C 
ATOM      3  C   UNL     1      48.857   7.609  15.229  0.00  0.00    +0.000 C 
BRANCH   3   4
ATOM      4  C   UNL     1      48.651   6.728  16.385  0.00  0.00    +0.000 A 
ATOM      5  C   UNL     1      48.547   7.253  17.679  0.00  0.00    +0.000 A 
ATOM      6  C   UNL     1      48.286   6.415  18.765  0.00  0.00    +0.000 A 
ATOM      7  C   UNL     1      48.110   5.046  18.565  0.00  0.00    +0.000 A 
ATOM      8  C   UNL     1      48.209   4.501  17.277  0.00  0.00    +0.000 A 
ATOM      9  C   UNL     1      48.500   5.352  16.198  0.00  0.00    +0.000 A 
BRANCH   8  10
ATOM     10  C   UNL     1      47.981   3.035  17.016  0.00  0.00    +0.000 C 
ATOM     11  F   UNL     1      46.910   2.520  17.680  0.00  0.00    +0.000 F 
ATOM     12  F   UNL     1      47.760   2.777  15.696  0.00  0.00    +0.000 F 
ATOM     13  F   UNL     1      49.049   2.269  17.372  0.00  0.00    +0.000 F 
ENDBRANCH   8  10
ENDBRANCH   3   4
ENDBRANCH   1   3
BRANCH   1  14
ATOM     14  N   UNL     1      47.142   7.226  13.618  0.00  0.00    +0.000 N 
ATOM     15  H   UNL     1      46.929   8.119  13.176  0.00  0.00    +0.000 HD
BRANCH  14  16
ATOM     16  C   UNL     1      46.477   6.174  12.971  0.00  0.00    +0.000 A 
ATOM     17  C   UNL     1      46.086   5.004  13.629  0.00  0.00    +0.000 A 
ATOM     18  C   UNL     1      45.383   3.999  12.960  0.00  0.00    +0.000 A 
ATOM     19  C   UNL     1      45.015   4.163  11.625  0.00  0.00    +0.000 A 
ATOM     20  C   UNL     1      45.354   5.345  10.961  0.00  0.00    +0.000 A 
ATOM     21  C   UNL     1      46.062   6.346  11.641  0.00  0.00    +0.000 A 
BRANCH  19  22
ATOM     22  C   UNL     1      44.279   3.052  10.966  0.00  0.00    +0.000 C 
ATOM     23  N   UNL     1      44.914   2.376   9.964  0.00  0.00    +0.000 N 
ATOM     24  O   UNL     1      43.129   2.771  11.279  0.00  0.00    +0.000 OA
ATOM     25  H   UNL     1      45.747   2.727   9.513  0.00  0.00    +0.000 HD
ATOM     26  H   UNL     1      44.347   1.711   9.453  0.00  0.00    +0.000 HD
ENDBRANCH  19  22
ENDBRANCH  14  16
ENDBRANCH   1  14
TORSDOF 6
ENDMDL
MODEL 9
REMARK VINA RESULT:    -6.022      4.504      7.096
REMARK INTER + INTRA:          -9.086
REMARK INTER:                  -8.092
REMARK INTRA:                  -0.994
REMARK UNBOUND:                -0.951
REMARK  Name = 
REMARK  7 active torsions:
REMARK  status: ('A' for Active; 'I' for Inactive)
REMARK    1  A    between atoms: C_1  and  C_2
REMARK    2  A    between atoms: C_2  and  C_3
REMARK    3  A    between atoms: C_2  and  C_14
REMARK    4  A    between atoms: C_3  and  N_4
REMARK    5  A    between atoms: N_4  and  C_5
REMARK    6  A    between atoms: C_8  and  C_9
REMARK    7  A    between atoms: C_18  and  C_19
REMARK                            x       y       z     vdW  Elec       q    Type
REMARK                         _______ _______ _______ _____ _____    ______ ____
ROOT
ATOM      1  C   UNL     1      48.020   6.993  12.328  0.00  0.00    +0.000 C 
ENDROOT
BRANCH   1   3
ATOM      2  C   UNL     1      46.554   9.091  12.550  0.00  0.00    +0.000 C 
ATOM      3  C   UNL     1      46.701   7.669  12.106  0.00  0.00    +0.000 C 
BRANCH   3   4
ATOM      4  C   UNL     1      45.514   6.845  11.849  0.00  0.00    +0.000 A 
ATOM      5  C   UNL     1      44.300   7.431  11.471  0.00  0.00    +0.000 A 
ATOM      6  C   UNL     1      43.194   6.636  11.165  0.00  0.00    +0.000 A 
ATOM      7  C   UNL     1      43.296   5.246  11.217  0.00  0.00    +0.000 A 
ATOM      8  C   UNL     1      44.502   4.640  11.593  0.00  0.00    +0.000 A 
ATOM      9  C   UNL     1      45.599   5.452  11.926  0.00  0.00    +0.000 A 
BRANCH   8  10
ATOM     10  C   UNL     1      44.663   3.141  11.619  0.00  0.00    +0.000 C 
ATOM     11  F   UNL     1      44.981   2.604  10.410  0.00  0.00    +0.000 F 
ATOM     12  F   UNL     1      45.650   2.747  12.473  0.00  0.00    +0.000 F 
ATOM     13  F   UNL     1      43.535   2.502  12.032  0.00  0.00    +0.000 F 
ENDBRANCH   8  10
ENDBRANCH   3   4
ENDBRANCH   1   3
BRANCH   1  14
ATOM     14  N   UNL     1      48.490   7.379  13.656  0.00  0.00    +0.000 N 
ATOM     15  H   UNL     1      48.159   8.308  13.909  0.00  0.00    +0.000 HD
BRANCH  14  16
ATOM     16  C   UNL     1      48.294   6.471  14.707  0.00  0.00    +0.000 A 
ATOM     17  C   UNL     1      47.480   5.340  14.593  0.00  0.00    +0.000 A 
ATOM     18  C   UNL     1      47.348   4.434  15.648  0.00  0.00    +0.000 A 
ATOM     19  C   UNL     1      48.066   4.617  16.830  0.00  0.00    +0.000 A 
ATOM     20  C   UNL     1      48.923   5.715  16.948  0.00  0.00    +0.000 A 
ATOM     21  C   UNL     1      49.045   6.619  15.883  0.00  0.00    +0.000 A 
BRANCH  19  22
ATOM     22  C   UNL     1      47.873   3.626  17.920  0.00  0.00    +0.000 C 
ATOM     23  N   UNL     1      46.928   2.657  17.738  0.00  0.00    +0.000 N 
ATOM     24  O   UNL     1      48.509   3.691  18.965  0.00  0.00    +0.000 OA
ATOM     25  H   UNL     1      46.223   2.714  17.018  0.00  0.00    +0.000 HD
ATOM     26  H   UNL     1      46.733   2.075  18.543  0.00  0.00    +0.000 HD
ENDBRANCH  19  22
ENDBRANCH  14  16
ENDBRANCH   1  14
TORSDOF 6
ENDMDL
