MODEL 1
REMARK VINA RESULT:    -8.343      0.000      0.000
REMARK INTER + INTRA:         -12.455
REMARK INTER:                 -12.002
REMARK INTRA:                  -0.453
REMARK UNBOUND:                -0.453
REMARK  Name = 
REMARK  9 active torsions:
REMARK  status: ('A' for Active; 'I' for Inactive)
REMARK    1  A    between atoms: C_1  and  C_2
REMARK    2  A    between atoms: C_2  and  O_3
REMARK    3  A    between atoms: O_3  and  C_4
REMARK    4  A    between atoms: C_8  and  C_9
REMARK    5  A    between atoms: C_9  and  C_10
REMARK    6  A    between atoms: C_10  and  N_11
REMARK    7  A    between atoms: C_15  and  C_16
REMARK    8  A    between atoms: C_24  and  C_25
REMARK    9  A    between atoms: C_25  and  O_26
REMARK                            x       y       z     vdW  Elec       q    Type
REMARK                         _______ _______ _______ _____ _____    ______ ____
ROOT
ATOM      1  C   UNL     1      46.945   4.511  14.021  0.00  0.00    +0.000 A 
ATOM      2  C   UNL     1      47.618   5.687  13.716  0.00  0.00    +0.000 A 
ATOM      3  C   UNL     1      46.981   6.680  12.967  0.00  0.00    +0.000 A 
ATOM      4  C   UNL     1      45.655   6.521  12.557  0.00  0.00    +0.000 A 
ATOM      5  C   UNL     1      44.937   5.374  12.914  0.00  0.00    +0.000 A 
ATOM      6  C   UNL     1      45.603   4.382  13.661  0.00  0.00    +0.000 A 
ENDROOT
BRANCH   1   7
ATOM      7  O   UNL     1      47.488   3.413  14.652  0.00  0.00    +0.000 OA
BRANCH   7   9
ATOM      8  C   UNL     1      48.896   2.442  16.378  0.00  0.00    +0.000 C 
ATOM      9  C   UNL     1      47.836   3.491  16.063  0.00  0.00    +0.000 C 
ATOM     10  C   UNL     1      46.690   3.588  17.103  0.00  0.00    +0.000 C 
ATOM     11  O   UNL     1      47.301   4.725  17.756  0.00  0.00    +0.000 OA
ATOM     12  C   UNL     1      48.154   4.941  16.590  0.00  0.00    +0.000 C 
BRANCH  12  13
ATOM     13  C   UNL     1      49.550   5.351  17.049  0.00  0.00    +0.000 C 
BRANCH  13  14
ATOM     14  O   UNL     1      50.188   6.119  16.024  0.00  0.00    +0.000 OA
ATOM     15  H   UNL     1      50.249   5.532  15.246  0.00  0.00    +0.000 HD
ENDBRANCH  13  14
ENDBRANCH  12  13
ENDBRANCH   7   9
ENDBRANCH   1   7
BRANCH   5  16
ATOM     16  C   UNL     1      43.489   5.230  12.464  0.00  0.00    +0.000 C 
BRANCH  16  17
ATOM     17  C   UNL     1      43.352   4.498  11.128  0.00  0.00    +0.000 C 
BRANCH  17  18
ATOM     18  N   UNL     1      44.127   5.093  10.036  0.00  0.00    +0.000 N 
ATOM     19  C   UNL     1      44.845   4.080   9.352  0.00  0.00    +0.000 A 
ATOM     20  C   UNL     1      45.654   4.431   8.281  0.00  0.00    +0.000 A 
ATOM     21  C   UNL     1      46.369   3.427   7.612  0.00  0.00    +0.000 A 
ATOM     22  C   UNL     1      46.260   2.100   8.026  0.00  0.00    +0.000 A 
ATOM     23  C   UNL     1      45.422   1.839   9.089  0.00  0.00    +0.000 A 
ATOM     24  N   UNL     1      44.724   2.795   9.745  0.00  0.00    +0.000 NA
ATOM     25  H   UNL     1      44.800   5.776  10.373  0.00  0.00    +0.000 HD
BRANCH  22  26
ATOM     26  C   UNL     1      47.036   1.043   7.336  0.00  0.00    +0.000 C 
ATOM     27  N   UNL     1      46.786  -0.269   7.629  0.00  0.00    +0.000 N 
ATOM     28  O   UNL     1      47.900   1.335   6.519  0.00  0.00    +0.000 OA
ATOM     29  H   UNL     1      46.109  -0.618   8.288  0.00  0.00    +0.000 HD
ATOM     30  H   UNL     1      47.358  -0.954   7.147  0.00  0.00    +0.000 HD
ENDBRANCH  22  26
ENDBRANCH  17  18
ENDBRANCH  16  17
ENDBRANCH   5  16
TORSDOF 8
ENDMDL
MODEL 2
REMARK VINA RESULT:    -8.071      1.050      1.385
REMARK INTER + INTRA:         -12.062
REMARK INTER:                 -11.596
REMARK INTRA:                  -0.467
REMARK UNBOUND:                -0.453
REMARK  Name = 
REMARK  9 active torsions:
REMARK  status: ('A' for Active; 'I' for Inactive)
REMARK    1  A    between atoms: C_1  and  C_2
REMARK    2  A    between atoms: C_2  and  O_3
REMARK    3  A    between atoms: O_3  and  C_4
REMARK    4  A    between atoms: C_8  and  C_9
REMARK    5  A    between atoms: C_9  and  C_10
REMARK    6  A    between atoms: C_10  and  N_11
REMARK    7  A    between atoms: C_15  and  C_16
REMARK    8  A    between atoms: C_24  and  C_25
REMARK    9  A    between atoms: C_25  and  O_26
REMARK                            x       y       z     vdW  Elec       q    Type
REMARK                         _______ _______ _______ _____ _____    ______ ____
ROOT
ATOM      1  C   UNL     1      46.949   4.395  14.092  0.00  0.00    +0.000 A 
ATOM      2  C   UNL     1      47.571   5.611  13.840  0.00  0.00    +0.000 A 
ATOM      3  C   UNL     1      46.921   6.580  13.071  0.00  0.00    +0.000 A 
ATOM      4  C   UNL     1      45.630   6.354  12.585  0.00  0.00    +0.000 A 
ATOM      5  C   UNL     1      44.959   5.163  12.886  0.00  0.00    +0.000 A 
ATOM      6  C   UNL     1      45.638   4.198  13.656  0.00  0.00    +0.000 A 
ENDROOT
BRANCH   1   7
ATOM      7  O   UNL     1      47.517   3.319  14.737  0.00  0.00    +0.000 OA
BRANCH   7   9
ATOM      8  C   UNL     1      48.918   2.378  16.486  0.00  0.00    +0.000 C 
ATOM      9  C   UNL     1      47.862   3.424  16.148  0.00  0.00    +0.000 C 
ATOM     10  C   UNL     1      46.712   3.545  17.182  0.00  0.00    +0.000 C 
ATOM     11  O   UNL     1      47.324   4.692  17.815  0.00  0.00    +0.000 OA
ATOM     12  C   UNL     1      48.182   4.883  16.647  0.00  0.00    +0.000 C 
BRANCH  12  13
ATOM     13  C   UNL     1      49.578   5.298  17.103  0.00  0.00    +0.000 C 
BRANCH  13  14
ATOM     14  O   UNL     1      50.215   6.058  16.071  0.00  0.00    +0.000 OA
ATOM     15  H   UNL     1      50.448   5.419  15.370  0.00  0.00    +0.000 HD
ENDBRANCH  13  14
ENDBRANCH  12  13
ENDBRANCH   7   9
ENDBRANCH   1   7
BRANCH   5  16
ATOM     16  C   UNL     1      43.549   4.947  12.354  0.00  0.00    +0.000 C 
BRANCH  16  17
ATOM     17  C   UNL     1      43.524   4.558  10.876  0.00  0.00    +0.000 C 
BRANCH  17  18
ATOM     18  N   UNL     1      43.835   3.148  10.622  0.00  0.00    +0.000 N 
ATOM     19  C   UNL     1      44.728   3.045   9.526  0.00  0.00    +0.000 A 
ATOM     20  C   UNL     1      45.147   1.790   9.110  0.00  0.00    +0.000 A 
ATOM     21  C   UNL     1      46.024   1.692   8.021  0.00  0.00    +0.000 A 
ATOM     22  C   UNL     1      46.460   2.846   7.371  0.00  0.00    +0.000 A 
ATOM     23  C   UNL     1      46.007   4.052   7.860  0.00  0.00    +0.000 A 
ATOM     24  N   UNL     1      45.161   4.166   8.911  0.00  0.00    +0.000 NA
ATOM     25  H   UNL     1      43.004   2.608  10.397  0.00  0.00    +0.000 HD
BRANCH  22  26
ATOM     26  C   UNL     1      47.365   2.741   6.204  0.00  0.00    +0.000 C 
ATOM     27  N   UNL     1      48.688   2.461   6.407  0.00  0.00    +0.000 N 
ATOM     28  O   UNL     1      46.942   2.912   5.067  0.00  0.00    +0.000 OA
ATOM     29  H   UNL     1      49.141   2.313   7.294  0.00  0.00    +0.000 HD
ATOM     30  H   UNL     1      49.272   2.421   5.577  0.00  0.00    +0.000 HD
ENDBRANCH  22  26
ENDBRANCH  17  18
ENDBRANCH  16  17
ENDBRANCH   5  16
TORSDOF 8
ENDMDL
MODEL 3
REMARK VINA RESULT:    -8.023      2.281      3.499
REMARK INTER + INTRA:         -11.994
REMARK INTER:                 -10.946
REMARK INTRA:                  -1.048
REMARK UNBOUND:                -0.453
REMARK  Name = 
REMARK  9 active torsions:
REMARK  status: ('A' for Active; 'I' for Inactive)
REMARK    1  A    between atoms: C_1  and  C_2
REMARK    2  A    between atoms: C_2  and  O_3
REMARK    3  A    between atoms: O_3  and  C_4
REMARK    4  A    between atoms: C_8  and  C_9
REMARK    5  A    between atoms: C_9  and  C_10
REMARK    6  A    between atoms: C_10  and  N_11
REMARK    7  A    between atoms: C_15  and  C_16
REMARK    8  A    between atoms: C_24  and  C_25
REMARK    9  A    between atoms: C_25  and  O_26
REMARK                            x       y       z     vdW  Elec       q    Type
REMARK                         _______ _______ _______ _____ _____    ______ ____
ROOT
ATOM      1  C   UNL     1      46.686   6.556  13.414  0.00  0.00    +0.000 A 
ATOM      2  C   UNL     1      47.344   5.361  13.673  0.00  0.00    +0.000 A 
ATOM      3  C   UNL     1      46.664   4.147  13.538  0.00  0.00    +0.000 A 
ATOM      4  C   UNL     1      45.337   4.121  13.103  0.00  0.00    +0.000 A 
ATOM      5  C   UNL     1      44.677   5.310  12.770  0.00  0.00    +0.000 A 
ATOM      6  C   UNL     1      45.380   6.521  12.923  0.00  0.00    +0.000 A 
ENDROOT
BRANCH   1   7
ATOM      7  O   UNL     1      47.200   7.819  13.613  0.00  0.00    +0.000 OA
BRANCH   7   9
ATOM      8  C   UNL     1      48.194   9.815  12.646  0.00  0.00    +0.000 C 
ATOM      9  C   UNL     1      48.283   8.298  12.766  0.00  0.00    +0.000 C 
ATOM     10  C   UNL     1      48.562   7.556  11.434  0.00  0.00    +0.000 C 
ATOM     11  O   UNL     1      49.973   7.439  11.727  0.00  0.00    +0.000 OA
ATOM     12  C   UNL     1      49.710   7.739  13.132  0.00  0.00    +0.000 C 
BRANCH  12  13
ATOM     13  C   UNL     1      50.818   8.635  13.678  0.00  0.00    +0.000 C 
BRANCH  13  14
ATOM     14  O   UNL     1      52.073   7.954  13.594  0.00  0.00    +0.000 OA
ATOM     15  H   UNL     1      52.261   7.623  14.494  0.00  0.00    +0.000 HD
ENDBRANCH  13  14
ENDBRANCH  12  13
ENDBRANCH   7   9
ENDBRANCH   1   7
BRANCH   5  16
ATOM     16  C   UNL     1      43.234   5.252  12.288  0.00  0.00    +0.000 C 
BRANCH  16  17
ATOM     17  C   UNL     1      43.082   4.525  10.951  0.00  0.00    +0.000 C 
BRANCH  17  18
ATOM     18  N   UNL     1      43.864   5.111   9.859  0.00  0.00    +0.000 N 
ATOM     19  C   UNL     1      44.657   4.108   9.247  0.00  0.00    +0.000 A 
ATOM     20  C   UNL     1      45.486   4.453   8.189  0.00  0.00    +0.000 A 
ATOM     21  C   UNL     1      46.275   3.460   7.592  0.00  0.00    +0.000 A 
ATOM     22  C   UNL     1      46.221   2.149   8.064  0.00  0.00    +0.000 A 
ATOM     23  C   UNL     1      45.359   1.891   9.109  0.00  0.00    +0.000 A 
ATOM     24  N   UNL     1      44.590   2.837   9.696  0.00  0.00    +0.000 NA
ATOM     25  H   UNL     1      44.488   5.844  10.186  0.00  0.00    +0.000 HD
BRANCH  22  26
ATOM     26  C   UNL     1      47.074   1.105   7.451  0.00  0.00    +0.000 C 
ATOM     27  N   UNL     1      48.080   1.478   6.603  0.00  0.00    +0.000 N 
ATOM     28  O   UNL     1      46.881  -0.081   7.688  0.00  0.00    +0.000 OA
ATOM     29  H   UNL     1      48.320   2.419   6.333  0.00  0.00    +0.000 HD
ATOM     30  H   UNL     1      48.623   0.726   6.191  0.00  0.00    +0.000 HD
ENDBRANCH  22  26
ENDBRANCH  17  18
ENDBRANCH  16  17
ENDBRANCH   5  16
TORSDOF 8
ENDMDL
MODEL 4
REMARK VINA RESULT:    -7.335      2.157      2.776
REMARK INTER + INTRA:         -11.004
REMARK INTER:                 -10.127
REMARK INTRA:                  -0.876
REMARK UNBOUND:                -0.453
REMARK  Name = 
REMARK  9 active torsions:
REMARK  status: ('A' for Active; 'I' for Inactive)
REMARK    1  A    between atoms: C_1  and  C_2
REMARK    2  A    between atoms: C_2  and  O_3
REMARK    3  A    between atoms: O_3  and  C_4
REMARK    4  A    between atoms: C_8  and  C_9
REMARK    5  A    between atoms: C_9  and  C_10
REMARK    6  A    between atoms: C_10  and  N_11
REMARK    7  A    between atoms: C_15  and  C_16
REMARK    8  A    between atoms: C_24  and  C_25
REMARK    9  A    between atoms: C_25  and  O_26
REMARK                            x       y       z     vdW  Elec       q    Type
REMARK                         _______ _______ _______ _____ _____    ______ ____
ROOT
ATOM      1  C   UNL     1      47.910   6.257  13.747  0.00  0.00    +0.000 A 
ATOM      2  C   UNL     1      48.493   6.917  12.673  0.00  0.00    +0.000 A 
ATOM      3  C   UNL     1      47.769   7.100  11.492  0.00  0.00    +0.000 A 
ATOM      4  C   UNL     1      46.445   6.662  11.394  0.00  0.00    +0.000 A 
ATOM      5  C   UNL     1      45.818   6.057  12.489  0.00  0.00    +0.000 A 
ATOM      6  C   UNL     1      46.571   5.875  13.665  0.00  0.00    +0.000 A 
ENDROOT
BRANCH   1   7
ATOM      7  O   UNL     1      48.544   5.914  14.921  0.00  0.00    +0.000 OA
BRANCH   7   9
ATOM      8  C   UNL     1      50.629   7.002  15.533  0.00  0.00    +0.000 C 
ATOM      9  C   UNL     1      49.123   6.955  15.759  0.00  0.00    +0.000 C 
ATOM     10  C   UNL     1      48.685   7.036  17.244  0.00  0.00    +0.000 C 
ATOM     11  O   UNL     1      48.401   8.450  17.144  0.00  0.00    +0.000 OA
ATOM     12  C   UNL     1      48.392   8.348  15.687  0.00  0.00    +0.000 C 
BRANCH  12  13
ATOM     13  C   UNL     1      49.055   9.584  15.086  0.00  0.00    +0.000 C 
BRANCH  13  14
ATOM     14  O   UNL     1      48.320  10.754  15.456  0.00  0.00    +0.000 OA
ATOM     15  H   UNL     1      47.602  10.840  14.799  0.00  0.00    +0.000 HD
ENDBRANCH  13  14
ENDBRANCH  12  13
ENDBRANCH   7   9
ENDBRANCH   1   7
BRANCH   5  16
ATOM     16  C   UNL     1      44.371   5.599  12.359  0.00  0.00    +0.000 C 
BRANCH  16  17
ATOM     17  C   UNL     1      44.005   5.180  10.934  0.00  0.00    +0.000 C 
BRANCH  17  18
ATOM     18  N   UNL     1      43.987   3.731  10.722  0.00  0.00    +0.000 N 
ATOM     19  C   UNL     1      44.847   3.394   9.646  0.00  0.00    +0.000 A 
ATOM     20  C   UNL     1      44.972   2.064   9.270  0.00  0.00    +0.000 A 
ATOM     21  C   UNL     1      45.818   1.737   8.201  0.00  0.00    +0.000 A 
ATOM     22  C   UNL     1      46.518   2.741   7.533  0.00  0.00    +0.000 A 
ATOM     23  C   UNL     1      46.347   4.033   7.983  0.00  0.00    +0.000 A 
ATOM     24  N   UNL     1      45.536   4.367   9.013  0.00  0.00    +0.000 NA
ATOM     25  H   UNL     1      43.057   3.390  10.492  0.00  0.00    +0.000 HD
BRANCH  22  26
ATOM     26  C   UNL     1      47.390   2.397   6.387  0.00  0.00    +0.000 C 
ATOM     27  N   UNL     1      47.171   2.996   5.177  0.00  0.00    +0.000 N 
ATOM     28  O   UNL     1      48.294   1.580   6.512  0.00  0.00    +0.000 OA
ATOM     29  H   UNL     1      46.455   3.670   4.962  0.00  0.00    +0.000 HD
ATOM     30  H   UNL     1      47.781   2.711   4.417  0.00  0.00    +0.000 HD
ENDBRANCH  22  26
ENDBRANCH  17  18
ENDBRANCH  16  17
ENDBRANCH   5  16
TORSDOF 8
ENDMDL
MODEL 5
REMARK VINA RESULT:    -7.070      3.770      7.604
REMARK INTER + INTRA:         -10.624
REMARK INTER:                  -9.634
REMARK INTRA:                  -0.989
REMARK UNBOUND:                -0.453
REMARK  Name = 
REMARK  9 active torsions:
REMARK  status: ('A' for Active; 'I' for Inactive)
REMARK    1  A    between atoms: C_1  and  C_2
REMARK    2  A    between atoms: C_2  and  O_3
REMARK    3  A    between atoms: O_3  and  C_4
REMARK    4  A    between atoms: C_8  and  C_9
REMARK    5  A    between atoms: C_9  and  C_10
REMARK    6  A    between atoms: C_10  and  N_11
REMARK    7  A    between atoms: C_15  and  C_16
REMARK    8  A    between atoms: C_24  and  C_25
REMARK    9  A    between atoms: C_25  and  O_26
REMARK                            x       y       z     vdW  Elec       q    Type
REMARK                         _______ _______ _______ _____ _____    ______ ____
ROOT
ATOM      1  C   UNL     1      46.008   6.904  11.388  0.00  0.00    +0.000 A 
ATOM      2  C   UNL     1      44.967   7.824  11.386  0.00  0.00    +0.000 A 
ATOM      3  C   UNL     1      45.132   9.064  12.011  0.00  0.00    +0.000 A 
ATOM      4  C   UNL     1      46.351   9.406  12.602  0.00  0.00    +0.000 A 
ATOM      5  C   UNL     1      47.434   8.521  12.554  0.00  0.00    +0.000 A 
ATOM      6  C   UNL     1      47.241   7.274  11.927  0.00  0.00    +0.000 A 
ENDROOT
BRANCH   1   7
ATOM      7  O   UNL     1      45.943   5.614  10.910  0.00  0.00    +0.000 OA
BRANCH   7   9
ATOM      8  C   UNL     1      45.313   4.629  13.040  0.00  0.00    +0.000 C 
ATOM      9  C   UNL     1      45.046   4.656  11.540  0.00  0.00    +0.000 C 
ATOM     10  C   UNL     1      44.877   3.261  10.885  0.00  0.00    +0.000 C 
ATOM     11  O   UNL     1      43.434   3.356  10.918  0.00  0.00    +0.000 OA
ATOM     12  C   UNL     1      43.531   4.798  11.134  0.00  0.00    +0.000 C 
BRANCH  12  13
ATOM     13  C   UNL     1      42.460   5.238  12.128  0.00  0.00    +0.000 C 
BRANCH  13  14
ATOM     14  O   UNL     1      41.868   6.464  11.688  0.00  0.00    +0.000 OA
ATOM     15  H   UNL     1      41.100   6.617  12.273  0.00  0.00    +0.000 HD
ENDBRANCH  13  14
ENDBRANCH  12  13
ENDBRANCH   7   9
ENDBRANCH   1   7
BRANCH   5  16
ATOM     16  C   UNL     1      48.755   8.923  13.196  0.00  0.00    +0.000 C 
BRANCH  16  17
ATOM     17  C   UNL     1      49.602   7.721  13.616  0.00  0.00    +0.000 C 
BRANCH  17  18
ATOM     18  N   UNL     1      50.012   7.739  15.023  0.00  0.00    +0.000 N 
ATOM     19  C   UNL     1      49.398   6.665  15.714  0.00  0.00    +0.000 A 
ATOM     20  C   UNL     1      49.646   6.503  17.070  0.00  0.00    +0.000 A 
ATOM     21  C   UNL     1      49.030   5.444  17.752  0.00  0.00    +0.000 A 
ATOM     22  C   UNL     1      48.181   4.575  17.068  0.00  0.00    +0.000 A 
ATOM     23  C   UNL     1      48.002   4.800  15.720  0.00  0.00    +0.000 A 
ATOM     24  N   UNL     1      48.590   5.816  15.045  0.00  0.00    +0.000 NA
ATOM     25  H   UNL     1      49.743   8.602  15.488  0.00  0.00    +0.000 HD
BRANCH  22  26
ATOM     26  C   UNL     1      47.509   3.473  17.794  0.00  0.00    +0.000 C 
ATOM     27  N   UNL     1      48.098   2.953  18.913  0.00  0.00    +0.000 N 
ATOM     28  O   UNL     1      46.442   3.021  17.397  0.00  0.00    +0.000 OA
ATOM     29  H   UNL     1      48.974   3.241  19.319  0.00  0.00    +0.000 HD
ATOM     30  H   UNL     1      47.610   2.185  19.363  0.00  0.00    +0.000 HD
ENDBRANCH  22  26
ENDBRANCH  17  18
ENDBRANCH  16  17
ENDBRANCH   5  16
TORSDOF 8
ENDMDL
MODEL 6
REMARK VINA RESULT:    -7.048      3.320      8.665
REMARK INTER + INTRA:         -10.591
REMARK INTER:                 -10.002
REMARK INTRA:                  -0.589
REMARK UNBOUND:                -0.453
REMARK  Name = 
REMARK  9 active torsions:
REMARK  status: ('A' for Active; 'I' for Inactive)
REMARK    1  A    between atoms: C_1  and  C_2
REMARK    2  A    between atoms: C_2  and  O_3
REMARK    3  A    between atoms: O_3  and  C_4
REMARK    4  A    between atoms: C_8  and  C_9
REMARK    5  A    between atoms: C_9  and  C_10
REMARK    6  A    between atoms: C_10  and  N_11
REMARK    7  A    between atoms: C_15  and  C_16
REMARK    8  A    between atoms: C_24  and  C_25
REMARK    9  A    between atoms: C_25  and  O_26
REMARK                            x       y       z     vdW  Elec       q    Type
REMARK                         _______ _______ _______ _____ _____    ______ ____
ROOT
ATOM      1  C   UNL     1      45.138   4.859   9.818  0.00  0.00    +0.000 A 
ATOM      2  C   UNL     1      43.807   4.564  10.086  0.00  0.00    +0.000 A 
ATOM      3  C   UNL     1      43.274   4.833  11.349  0.00  0.00    +0.000 A 
ATOM      4  C   UNL     1      44.056   5.437  12.337  0.00  0.00    +0.000 A 
ATOM      5  C   UNL     1      45.379   5.806  12.066  0.00  0.00    +0.000 A 
ATOM      6  C   UNL     1      45.897   5.516  10.788  0.00  0.00    +0.000 A 
ENDROOT
BRANCH   1   7
ATOM      7  O   UNL     1      45.815   4.546   8.660  0.00  0.00    +0.000 OA
BRANCH   7   9
ATOM      8  C   UNL     1      44.482   3.298   7.057  0.00  0.00    +0.000 C 
ATOM      9  C   UNL     1      45.635   3.236   8.052  0.00  0.00    +0.000 C 
ATOM     10  C   UNL     1      45.633   1.988   8.972  0.00  0.00    +0.000 C 
ATOM     11  O   UNL     1      46.603   1.305   8.145  0.00  0.00    +0.000 OA
ATOM     12  C   UNL     1      46.954   2.570   7.505  0.00  0.00    +0.000 C 
BRANCH  12  13
ATOM     13  C   UNL     1      47.191   2.340   6.015  0.00  0.00    +0.000 C 
BRANCH  13  14
ATOM     14  O   UNL     1      48.482   1.757   5.817  0.00  0.00    +0.000 OA
ATOM     15  H   UNL     1      49.123   2.490   5.892  0.00  0.00    +0.000 HD
ENDBRANCH  13  14
ENDBRANCH  12  13
ENDBRANCH   7   9
ENDBRANCH   1   7
BRANCH   5  16
ATOM     16  C   UNL     1      46.206   6.473  13.156  0.00  0.00    +0.000 C 
BRANCH  16  17
ATOM     17  C   UNL     1      47.243   5.534  13.774  0.00  0.00    +0.000 C 
BRANCH  17  18
ATOM     18  N   UNL     1      46.678   4.531  14.682  0.00  0.00    +0.000 N 
ATOM     19  C   UNL     1      47.409   4.521  15.897  0.00  0.00    +0.000 A 
ATOM     20  C   UNL     1      47.043   3.634  16.898  0.00  0.00    +0.000 A 
ATOM     21  C   UNL     1      47.773   3.622  18.095  0.00  0.00    +0.000 A 
ATOM     22  C   UNL     1      48.849   4.493  18.265  0.00  0.00    +0.000 A 
ATOM     23  C   UNL     1      49.133   5.351  17.225  0.00  0.00    +0.000 A 
ATOM     24  N   UNL     1      48.439   5.377  16.063  0.00  0.00    +0.000 NA
ATOM     25  H   UNL     1      46.718   3.595  14.289  0.00  0.00    +0.000 HD
BRANCH  22  26
ATOM     26  C   UNL     1      49.636   4.461  19.519  0.00  0.00    +0.000 C 
ATOM     27  N   UNL     1      50.999   4.371  19.450  0.00  0.00    +0.000 N 
ATOM     28  O   UNL     1      49.078   4.505  20.609  0.00  0.00    +0.000 OA
ATOM     29  H   UNL     1      51.555   4.319  18.613  0.00  0.00    +0.000 HD
ATOM     30  H   UNL     1      51.492   4.330  20.337  0.00  0.00    +0.000 HD
ENDBRANCH  22  26
ENDBRANCH  17  18
ENDBRANCH  16  17
ENDBRANCH   5  16
TORSDOF 8
ENDMDL
MODEL 7
REMARK VINA RESULT:    -6.953      2.878      3.870
REMARK INTER + INTRA:         -10.455
REMARK INTER:                  -9.778
REMARK INTRA:                  -0.677
REMARK UNBOUND:                -0.453
REMARK  Name = 
REMARK  9 active torsions:
REMARK  status: ('A' for Active; 'I' for Inactive)
REMARK    1  A    between atoms: C_1  and  C_2
REMARK    2  A    between atoms: C_2  and  O_3
REMARK    3  A    between atoms: O_3  and  C_4
REMARK    4  A    between atoms: C_8  and  C_9
REMARK    5  A    between atoms: C_9  and  C_10
REMARK    6  A    between atoms: C_10  and  N_11
REMARK    7  A    between atoms: C_15  and  C_16
REMARK    8  A    between atoms: C_24  and  C_25
REMARK    9  A    between atoms: C_25  and  O_26
REMARK                            x       y       z     vdW  Elec       q    Type
REMARK                         _______ _______ _______ _____ _____    ______ ____
ROOT
ATOM      1  C   UNL     1      46.256   8.744  12.815  0.00  0.00    +0.000 A 
ATOM      2  C   UNL     1      45.583   9.658  12.015  0.00  0.00    +0.000 A 
ATOM      3  C   UNL     1      44.520   9.232  11.213  0.00  0.00    +0.000 A 
ATOM      4  C   UNL     1      44.098   7.900  11.240  0.00  0.00    +0.000 A 
ATOM      5  C   UNL     1      44.718   6.979  12.092  0.00  0.00    +0.000 A 
ATOM      6  C   UNL     1      45.793   7.429  12.884  0.00  0.00    +0.000 A 
ENDROOT
BRANCH   1   7
ATOM      7  O   UNL     1      47.382   9.005  13.564  0.00  0.00    +0.000 OA
BRANCH   7   9
ATOM      8  C   UNL     1      48.735   8.241  11.696  0.00  0.00    +0.000 C 
ATOM      9  C   UNL     1      48.645   8.372  13.211  0.00  0.00    +0.000 C 
ATOM     10  C   UNL     1      49.086   7.113  14.000  0.00  0.00    +0.000 C 
ATOM     11  O   UNL     1      50.400   7.660  14.254  0.00  0.00    +0.000 OA
ATOM     12  C   UNL     1      49.916   8.993  13.905  0.00  0.00    +0.000 C 
BRANCH  12  13
ATOM     13  C   UNL     1      50.991   9.736  13.116  0.00  0.00    +0.000 C 
BRANCH  13  14
ATOM     14  O   UNL     1      52.154   9.909  13.932  0.00  0.00    +0.000 OA
ATOM     15  H   UNL     1      51.895   9.634  14.833  0.00  0.00    +0.000 HD
ENDBRANCH  13  14
ENDBRANCH  12  13
ENDBRANCH   7   9
ENDBRANCH   1   7
BRANCH   5  16
ATOM     16  C   UNL     1      44.231   5.536  12.110  0.00  0.00    +0.000 C 
BRANCH  16  17
ATOM     17  C   UNL     1      43.751   5.053  10.741  0.00  0.00    +0.000 C 
BRANCH  17  18
ATOM     18  N   UNL     1      43.816   3.600  10.561  0.00  0.00    +0.000 N 
ATOM     19  C   UNL     1      44.737   3.287   9.530  0.00  0.00    +0.000 A 
ATOM     20  C   UNL     1      44.946   1.958   9.190  0.00  0.00    +0.000 A 
ATOM     21  C   UNL     1      45.851   1.653   8.164  0.00  0.00    +0.000 A 
ATOM     22  C   UNL     1      46.525   2.678   7.501  0.00  0.00    +0.000 A 
ATOM     23  C   UNL     1      46.270   3.968   7.913  0.00  0.00    +0.000 A 
ATOM     24  N   UNL     1      45.400   4.281   8.902  0.00  0.00    +0.000 NA
ATOM     25  H   UNL     1      42.916   3.206  10.303  0.00  0.00    +0.000 HD
BRANCH  22  26
ATOM     26  C   UNL     1      47.461   2.357   6.399  0.00  0.00    +0.000 C 
ATOM     27  N   UNL     1      47.386   3.063   5.231  0.00  0.00    +0.000 N 
ATOM     28  O   UNL     1      48.290   1.463   6.523  0.00  0.00    +0.000 OA
ATOM     29  H   UNL     1      46.740   3.807   5.020  0.00  0.00    +0.000 HD
ATOM     30  H   UNL     1      48.034   2.791   4.498  0.00  0.00    +0.000 HD
ENDBRANCH  22  26
ENDBRANCH  17  18
ENDBRANCH  16  17
ENDBRANCH   5  16
TORSDOF 8
ENDMDL
MODEL 8
REMARK VINA RESULT:    -6.745      2.946      7.769
REMARK INTER + INTRA:         -10.155
REMARK INTER:                  -9.564
REMARK INTRA:                  -0.590
REMARK UNBOUND:                -0.453
REMARK  Name = 
REMARK  9 active torsions:
REMARK  status: ('A' for Active; 'I' for Inactive)
REMARK    1  A    between atoms: C_1  and  C_2
REMARK    2  A    between atoms: C_2  and  O_3
REMARK    3  A    between atoms: O_3  and  C_4
REMARK    4  A    between atoms: C_8  and  C_9
REMARK    5  A    between atoms: C_9  and  C_10
REMARK    6  A    between atoms: C_10  and  N_11
REMARK    7  A    between atoms: C_15  and  C_16
REMARK    8  A    between atoms: C_24  and  C_25
REMARK    9  A    between atoms: C_25  and  O_26
REMARK                            x       y       z     vdW  Elec       q    Type
REMARK                         _______ _______ _______ _____ _____    ______ ____
ROOT
ATOM      1  C   UNL     1      44.924   4.423  10.762  0.00  0.00    +0.000 A 
ATOM      2  C   UNL     1      43.580   4.766  10.838  0.00  0.00    +0.000 A 
ATOM      3  C   UNL     1      43.207   6.011  11.353  0.00  0.00    +0.000 A 
ATOM      4  C   UNL     1      44.177   6.934  11.754  0.00  0.00    +0.000 A 
ATOM      5  C   UNL     1      45.538   6.633  11.621  0.00  0.00    +0.000 A 
ATOM      6  C   UNL     1      45.889   5.369  11.108  0.00  0.00    +0.000 A 
ENDROOT
BRANCH   1   7
ATOM      7  O   UNL     1      45.421   3.195  10.382  0.00  0.00    +0.000 OA
BRANCH   7   9
ATOM      8  C   UNL     1      44.657   3.856   8.171  0.00  0.00    +0.000 C 
ATOM      9  C   UNL     1      45.194   2.714   9.026  0.00  0.00    +0.000 C 
ATOM     10  C   UNL     1      44.465   1.360   8.835  0.00  0.00    +0.000 C 
ATOM     11  O   UNL     1      45.485   0.870   7.936  0.00  0.00    +0.000 OA
ATOM     12  C   UNL     1      46.397   1.916   8.395  0.00  0.00    +0.000 C 
BRANCH  12  13
ATOM     13  C   UNL     1      47.196   2.452   7.211  0.00  0.00    +0.000 C 
BRANCH  13  14
ATOM     14  O   UNL     1      48.185   1.493   6.824  0.00  0.00    +0.000 OA
ATOM     15  H   UNL     1      49.015   1.995   6.704  0.00  0.00    +0.000 HD
ENDBRANCH  13  14
ENDBRANCH  12  13
ENDBRANCH   7   9
ENDBRANCH   1   7
BRANCH   5  16
ATOM     16  C   UNL     1      46.574   7.661  12.056  0.00  0.00    +0.000 C 
BRANCH  16  17
ATOM     17  C   UNL     1      47.931   7.035  12.383  0.00  0.00    +0.000 C 
BRANCH  17  18
ATOM     18  N   UNL     1      48.495   7.465  13.666  0.00  0.00    +0.000 N 
ATOM     19  C   UNL     1      48.251   6.475  14.651  0.00  0.00    +0.000 A 
ATOM     20  C   UNL     1      48.697   6.687  15.947  0.00  0.00    +0.000 A 
ATOM     21  C   UNL     1      48.446   5.709  16.920  0.00  0.00    +0.000 A 
ATOM     22  C   UNL     1      47.757   4.546  16.579  0.00  0.00    +0.000 A 
ATOM     23  C   UNL     1      47.364   4.411  15.265  0.00  0.00    +0.000 A 
ATOM     24  N   UNL     1      47.598   5.344  14.312  0.00  0.00    +0.000 NA
ATOM     25  H   UNL     1      48.083   8.335  13.992  0.00  0.00    +0.000 HD
BRANCH  22  26
ATOM     26  C   UNL     1      47.469   3.525  17.613  0.00  0.00    +0.000 C 
ATOM     27  N   UNL     1      48.346   3.359  18.649  0.00  0.00    +0.000 N 
ATOM     28  O   UNL     1      46.465   2.828  17.541  0.00  0.00    +0.000 OA
ATOM     29  H   UNL     1      49.202   3.868  18.799  0.00  0.00    +0.000 HD
ATOM     30  H   UNL     1      48.116   2.632  19.320  0.00  0.00    +0.000 HD
ENDBRANCH  22  26
ENDBRANCH  17  18
ENDBRANCH  16  17
ENDBRANCH   5  16
TORSDOF 8
ENDMDL
MODEL 9
REMARK VINA RESULT:    -6.712      2.199      4.017
REMARK INTER + INTRA:         -10.109
REMARK INTER:                  -9.208
REMARK INTRA:                  -0.901
REMARK UNBOUND:                -0.453
REMARK  Name = 
REMARK  9 active torsions:
REMARK  status: ('A' for Active; 'I' for Inactive)
REMARK    1  A    between atoms: C_1  and  C_2
REMARK    2  A    between atoms: C_2  and  O_3
REMARK    3  A    between atoms: O_3  and  C_4
REMARK    4  A    between atoms: C_8  and  C_9
REMARK    5  A    between atoms: C_9  and  C_10
REMARK    6  A    between atoms: C_10  and  N_11
REMARK    7  A    between atoms: C_15  and  C_16
REMARK    8  A    between atoms: C_24  and  C_25
REMARK    9  A    between atoms: C_25  and  O_26
REMARK                            x       y       z     vdW  Elec       q    Type
REMARK                         _______ _______ _______ _____ _____    ______ ____
ROOT
ATOM      1  C   UNL     1      49.596   6.822  16.314  0.00  0.00    +0.000 A 
ATOM      2  C   UNL     1      49.121   7.825  17.149  0.00  0.00    +0.000 A 
ATOM      3  C   UNL     1      48.366   8.875  16.618  0.00  0.00    +0.000 A 
ATOM      4  C   UNL     1      48.047   8.904  15.258  0.00  0.00    +0.000 A 
ATOM      5  C   UNL     1      48.457   7.867  14.412  0.00  0.00    +0.000 A 
ATOM      6  C   UNL     1      49.225   6.825  14.969  0.00  0.00    +0.000 A 
ENDROOT
BRANCH   1   7
ATOM      7  O   UNL     1      50.438   5.797  16.685  0.00  0.00    +0.000 OA
BRANCH   7   9
ATOM      8  C   UNL     1      49.927   5.227  18.992  0.00  0.00    +0.000 C 
ATOM      9  C   UNL     1      49.943   4.735  17.549  0.00  0.00    +0.000 C 
ATOM     10  C   UNL     1      50.507   3.303  17.357  0.00  0.00    +0.000 C 
ATOM     11  O   UNL     1      49.183   2.725  17.305  0.00  0.00    +0.000 OA
ATOM     12  C   UNL     1      48.612   4.048  17.063  0.00  0.00    +0.000 C 
BRANCH  12  13
ATOM     13  C   UNL     1      47.299   4.185  17.829  0.00  0.00    +0.000 C 
BRANCH  13  14
ATOM     14  O   UNL     1      46.450   3.072  17.534  0.00  0.00    +0.000 OA
ATOM     15  H   UNL     1      45.947   3.321  16.734  0.00  0.00    +0.000 HD
ENDBRANCH  13  14
ENDBRANCH  12  13
ENDBRANCH   7   9
ENDBRANCH   1   7
BRANCH   5  16
ATOM     16  C   UNL     1      48.087   7.917  12.936  0.00  0.00    +0.000 C 
BRANCH  16  17
ATOM     17  C   UNL     1      46.580   7.815  12.697  0.00  0.00    +0.000 C 
BRANCH  17  18
ATOM     18  N   UNL     1      45.965   6.608  13.257  0.00  0.00    +0.000 N 
ATOM     19  C   UNL     1      45.631   5.713  12.210  0.00  0.00    +0.000 A 
ATOM     20  C   UNL     1      45.027   4.503  12.520  0.00  0.00    +0.000 A 
ATOM     21  C   UNL     1      44.691   3.624  11.482  0.00  0.00    +0.000 A 
ATOM     22  C   UNL     1      44.965   3.971  10.159  0.00  0.00    +0.000 A 
ATOM     23  C   UNL     1      45.581   5.184   9.941  0.00  0.00    +0.000 A 
ATOM     24  N   UNL     1      45.913   6.045  10.932  0.00  0.00    +0.000 NA
ATOM     25  H   UNL     1      45.112   6.816  13.770  0.00  0.00    +0.000 HD
BRANCH  22  26
ATOM     26  C   UNL     1      44.586   3.053   9.060  0.00  0.00    +0.000 C 
ATOM     27  N   UNL     1      44.256   3.574   7.839  0.00  0.00    +0.000 N 
ATOM     28  O   UNL     1      44.557   1.842   9.238  0.00  0.00    +0.000 OA
ATOM     29  H   UNL     1      44.237   4.549   7.587  0.00  0.00    +0.000 HD
ATOM     30  H   UNL     1      43.982   2.906   7.125  0.00  0.00    +0.000 HD
ENDBRANCH  22  26
ENDBRANCH  17  18
ENDBRANCH  16  17
ENDBRANCH   5  16
TORSDOF 8
ENDMDL
