MODEL 1
REMARK VINA RESULT:    -7.461      0.000      0.000
REMARK INTER + INTRA:         -10.411
REMARK INTER:                  -9.641
REMARK INTRA:                  -0.769
REMARK UNBOUND:                -0.769
REMARK  Name = 
REMARK  6 active torsions:
REMARK  status: ('A' for Active; 'I' for Inactive)
REMARK    1  A    between atoms: C_1  and  O_2
REMARK    2  A    between atoms: O_2  and  C_3
REMARK    3  A    between atoms: C_6  and  O_7
REMARK    4  A    between atoms: O_7  and  C_8
REMARK    5  A    between atoms: C_8  and  C_9
REMARK    6  A    between atoms: C_16  and  C_17
REMARK                            x       y       z     vdW  Elec       q    Type
REMARK                         _______ _______ _______ _____ _____    ______ ____
ROOT
ATOM      1  C   UNL     1      46.696   6.139  12.701  0.00  0.00    +0.000 A 
ATOM      2  C   UNL     1      46.182   6.699  11.521  0.00  0.00    +0.000 A 
ATOM      3  C   UNL     1      45.338   5.957  10.688  0.00  0.00    +0.000 A 
ATOM      4  C   UNL     1      45.000   4.648  11.015  0.00  0.00    +0.000 A 
ATOM      5  C   UNL     1      45.555   4.065  12.152  0.00  0.00    +0.000 A 
ATOM      6  C   UNL     1      46.380   4.804  13.018  0.00  0.00    +0.000 A 
ENDROOT
BRANCH   6   7
ATOM      7  C   UNL     1      46.802   4.088  14.262  0.00  0.00    +0.000 C 
ATOM      8  N   UNL     1      46.519   4.657  15.469  0.00  0.00    +0.000 N 
ATOM      9  O   UNL     1      47.367   3.000  14.220  0.00  0.00    +0.000 OA
ATOM     10  H   UNL     1      46.081   5.567  15.533  0.00  0.00    +0.000 HD
ATOM     11  H   UNL     1      46.790   4.166  16.307  0.00  0.00    +0.000 HD
ENDBRANCH   6   7
BRANCH   1  13
ATOM     12  C   UNL     1      48.902   6.944  13.118  0.00  0.00    +0.000 C 
ATOM     13  O   UNL     1      47.545   6.823  13.536  0.00  0.00    +0.000 OA
ENDBRANCH   1  13
BRANCH   4  14
ATOM     14  O   UNL     1      44.120   4.027  10.171  0.00  0.00    +0.000 OA
BRANCH  14  15
ATOM     15  C   UNL     1      44.451   2.664   9.862  0.00  0.00    +0.000 C 
BRANCH  15  16
ATOM     16  C   UNL     1      45.418   2.560   8.705  0.00  0.00    +0.000 A 
ATOM     17  C   UNL     1      45.532   3.577   7.760  0.00  0.00    +0.000 A 
ATOM     18  C   UNL     1      46.359   3.382   6.657  0.00  0.00    +0.000 A 
ATOM     19  C   UNL     1      47.035   2.177   6.517  0.00  0.00    +0.000 A 
ATOM     20  C   UNL     1      46.861   1.211   7.493  0.00  0.00    +0.000 A 
ATOM     21  N   UNL     1      46.071   1.375   8.575  0.00  0.00    +0.000 NA
ENDBRANCH  15  16
ENDBRANCH  14  15
ENDBRANCH   4  14
TORSDOF 5
ENDMDL
MODEL 2
REMARK VINA RESULT:    -7.450      0.912      1.242
REMARK INTER + INTRA:         -10.398
REMARK INTER:                  -9.648
REMARK INTRA:                  -0.749
REMARK UNBOUND:                -0.769
REMARK  Name = 
REMARK  6 active torsions:
REMARK  status: ('A' for Active; 'I' for Inactive)
REMARK    1  A    between atoms: C_1  and  O_2
REMARK    2  A    between atoms: O_2  and  C_3
REMARK    3  A    between atoms: C_6  and  O_7
REMARK    4  A    between atoms: O_7  and  C_8
REMARK    5  A    between atoms: C_8  and  C_9
REMARK    6  A    between atoms: C_16  and  C_17
REMARK                            x       y       z     vdW  Elec       q    Type
REMARK                         _______ _______ _______ _____ _____    ______ ____
ROOT
ATOM      1  C   UNL     1      46.917   6.074  12.951  0.00  0.00    +0.000 A 
ATOM      2  C   UNL     1      46.326   6.514  11.757  0.00  0.00    +0.000 A 
ATOM      3  C   UNL     1      45.452   5.685  11.046  0.00  0.00    +0.000 A 
ATOM      4  C   UNL     1      45.161   4.407  11.509  0.00  0.00    +0.000 A 
ATOM      5  C   UNL     1      45.791   3.940  12.661  0.00  0.00    +0.000 A 
ATOM      6  C   UNL     1      46.647   4.769  13.407  0.00  0.00    +0.000 A 
ENDROOT
BRANCH   6   7
ATOM      7  C   UNL     1      47.154   4.177  14.685  0.00  0.00    +0.000 C 
ATOM      8  N   UNL     1      47.152   4.953  15.807  0.00  0.00    +0.000 N 
ATOM      9  O   UNL     1      47.540   3.016  14.750  0.00  0.00    +0.000 OA
ATOM     10  H   UNL     1      46.867   5.924  15.776  0.00  0.00    +0.000 HD
ATOM     11  H   UNL     1      47.479   4.549  16.671  0.00  0.00    +0.000 HD
ENDBRANCH   6   7
BRANCH   1  13
ATOM     12  C   UNL     1      49.082   7.062  13.095  0.00  0.00    +0.000 C 
ATOM     13  O   UNL     1      47.797   6.846  13.669  0.00  0.00    +0.000 OA
ENDBRANCH   1  13
BRANCH   4  14
ATOM     14  O   UNL     1      44.248   3.696  10.779  0.00  0.00    +0.000 OA
BRANCH  14  15
ATOM     15  C   UNL     1      44.169   4.070   9.395  0.00  0.00    +0.000 C 
BRANCH  15  16
ATOM     16  C   UNL     1      45.156   3.309   8.540  0.00  0.00    +0.000 A 
ATOM     17  C   UNL     1      45.421   1.959   8.764  0.00  0.00    +0.000 A 
ATOM     18  C   UNL     1      46.418   1.336   8.018  0.00  0.00    +0.000 A 
ATOM     19  C   UNL     1      47.132   2.074   7.084  0.00  0.00    +0.000 A 
ATOM     20  C   UNL     1      46.817   3.412   6.927  0.00  0.00    +0.000 A 
ATOM     21  N   UNL     1      45.853   4.041   7.632  0.00  0.00    +0.000 NA
ENDBRANCH  15  16
ENDBRANCH  14  15
ENDBRANCH   4  14
TORSDOF 5
ENDMDL
MODEL 3
REMARK VINA RESULT:    -7.195      1.310      2.344
REMARK INTER + INTRA:         -10.067
REMARK INTER:                  -9.352
REMARK INTRA:                  -0.715
REMARK UNBOUND:                -0.769
REMARK  Name = 
REMARK  6 active torsions:
REMARK  status: ('A' for Active; 'I' for Inactive)
REMARK    1  A    between atoms: C_1  and  O_2
REMARK    2  A    between atoms: O_2  and  C_3
REMARK    3  A    between atoms: C_6  and  O_7
REMARK    4  A    between atoms: O_7  and  C_8
REMARK    5  A    between atoms: C_8  and  C_9
REMARK    6  A    between atoms: C_16  and  C_17
REMARK                            x       y       z     vdW  Elec       q    Type
REMARK                         _______ _______ _______ _____ _____    ______ ____
ROOT
ATOM      1  C   UNL     1      46.723   4.878  13.401  0.00  0.00    +0.000 A 
ATOM      2  C   UNL     1      46.105   3.636  13.194  0.00  0.00    +0.000 A 
ATOM      3  C   UNL     1      45.283   3.424  12.083  0.00  0.00    +0.000 A 
ATOM      4  C   UNL     1      45.059   4.447  11.168  0.00  0.00    +0.000 A 
ATOM      5  C   UNL     1      45.619   5.702  11.399  0.00  0.00    +0.000 A 
ATOM      6  C   UNL     1      46.474   5.925  12.492  0.00  0.00    +0.000 A 
ENDROOT
BRANCH   6   7
ATOM      7  C   UNL     1      47.101   7.283  12.545  0.00  0.00    +0.000 C 
ATOM      8  N   UNL     1      46.720   8.138  13.537  0.00  0.00    +0.000 N 
ATOM      9  O   UNL     1      47.960   7.629  11.742  0.00  0.00    +0.000 OA
ATOM     10  H   UNL     1      45.992   7.891  14.195  0.00  0.00    +0.000 HD
ATOM     11  H   UNL     1      47.154   9.047  13.581  0.00  0.00    +0.000 HD
ENDBRANCH   6   7
BRANCH   1  13
ATOM     12  C   UNL     1      47.281   4.364  15.661  0.00  0.00    +0.000 C 
ATOM     13  O   UNL     1      47.521   5.136  14.489  0.00  0.00    +0.000 OA
ENDBRANCH   1  13
BRANCH   4  14
ATOM     14  O   UNL     1      44.291   4.126  10.082  0.00  0.00    +0.000 OA
BRANCH  14  15
ATOM     15  C   UNL     1      44.409   2.762   9.650  0.00  0.00    +0.000 C 
BRANCH  15  16
ATOM     16  C   UNL     1      45.463   2.591   8.581  0.00  0.00    +0.000 A 
ATOM     17  C   UNL     1      45.750   3.608   7.674  0.00  0.00    +0.000 A 
ATOM     18  C   UNL     1      46.653   3.358   6.644  0.00  0.00    +0.000 A 
ATOM     19  C   UNL     1      47.232   2.101   6.536  0.00  0.00    +0.000 A 
ATOM     20  C   UNL     1      46.888   1.139   7.470  0.00  0.00    +0.000 A 
ATOM     21  N   UNL     1      46.021   1.355   8.481  0.00  0.00    +0.000 NA
ENDBRANCH  15  16
ENDBRANCH  14  15
ENDBRANCH   4  14
TORSDOF 5
ENDMDL
MODEL 4
REMARK VINA RESULT:    -6.194      2.474      3.299
REMARK INTER + INTRA:          -8.774
REMARK INTER:                  -7.990
REMARK INTRA:                  -0.784
REMARK UNBOUND:                -0.769
REMARK  Name = 
REMARK  6 active torsions:
REMARK  status: ('A' for Active; 'I' for Inactive)
REMARK    1  A    between atoms: C_1  and  O_2
REMARK    2  A    between atoms: O_2  and  C_3
REMARK    3  A    between atoms: C_6  and  O_7
REMARK    4  A    between atoms: O_7  and  C_8
REMARK    5  A    between atoms: C_8  and  C_9
REMARK    6  A    between atoms: C_16  and  C_17
REMARK                            x       y       z     vdW  Elec       q    Type
REMARK                         _______ _______ _______ _____ _____    ______ ____
ROOT
ATOM      1  C   UNL     1      46.496   7.882  12.362  0.00  0.00    +0.000 A 
ATOM      2  C   UNL     1      47.097   6.628  12.548  0.00  0.00    +0.000 A 
ATOM      3  C   UNL     1      46.418   5.453  12.207  0.00  0.00    +0.000 A 
ATOM      4  C   UNL     1      45.131   5.510  11.685  0.00  0.00    +0.000 A 
ATOM      5  C   UNL     1      44.503   6.747  11.556  0.00  0.00    +0.000 A 
ATOM      6  C   UNL     1      45.180   7.941  11.862  0.00  0.00    +0.000 A 
ENDROOT
BRANCH   6   7
ATOM      7  C   UNL     1      44.427   9.198  11.558  0.00  0.00    +0.000 C 
ATOM      8  N   UNL     1      44.465  10.215  12.465  0.00  0.00    +0.000 N 
ATOM      9  O   UNL     1      43.807   9.340  10.510  0.00  0.00    +0.000 OA
ATOM     10  H   UNL     1      44.943  10.114  13.351  0.00  0.00    +0.000 HD
ATOM     11  H   UNL     1      43.970  11.068  12.251  0.00  0.00    +0.000 HD
ENDBRANCH   6   7
BRANCH   1  13
ATOM     12  C   UNL     1      48.113   9.543  11.807  0.00  0.00    +0.000 C 
ATOM     13  O   UNL     1      47.116   9.058  12.702  0.00  0.00    +0.000 OA
ENDBRANCH   1  13
BRANCH   4  14
ATOM     14  O   UNL     1      44.574   4.313  11.326  0.00  0.00    +0.000 OA
BRANCH  14  15
ATOM     15  C   UNL     1      44.130   4.247   9.962  0.00  0.00    +0.000 C 
BRANCH  15  16
ATOM     16  C   UNL     1      45.128   3.544   9.071  0.00  0.00    +0.000 A 
ATOM     17  C   UNL     1      45.831   4.232   8.084  0.00  0.00    +0.000 A 
ATOM     18  C   UNL     1      46.656   3.516   7.221  0.00  0.00    +0.000 A 
ATOM     19  C   UNL     1      46.747   2.137   7.353  0.00  0.00    +0.000 A 
ATOM     20  C   UNL     1      46.010   1.525   8.352  0.00  0.00    +0.000 A 
ATOM     21  N   UNL     1      45.207   2.194   9.206  0.00  0.00    +0.000 NA
ENDBRANCH  15  16
ENDBRANCH  14  15
ENDBRANCH   4  14
TORSDOF 5
ENDMDL
MODEL 5
REMARK VINA RESULT:    -6.051      3.092      6.725
REMARK INTER + INTRA:          -8.590
REMARK INTER:                  -7.972
REMARK INTRA:                  -0.618
REMARK UNBOUND:                -0.769
REMARK  Name = 
REMARK  6 active torsions:
REMARK  status: ('A' for Active; 'I' for Inactive)
REMARK    1  A    between atoms: C_1  and  O_2
REMARK    2  A    between atoms: O_2  and  C_3
REMARK    3  A    between atoms: C_6  and  O_7
REMARK    4  A    between atoms: O_7  and  C_8
REMARK    5  A    between atoms: C_8  and  C_9
REMARK    6  A    between atoms: C_16  and  C_17
REMARK                            x       y       z     vdW  Elec       q    Type
REMARK                         _______ _______ _______ _____ _____    ______ ____
ROOT
ATOM      1  C   UNL     1      45.712   6.171  12.079  0.00  0.00    +0.000 A 
ATOM      2  C   UNL     1      46.769   6.458  12.957  0.00  0.00    +0.000 A 
ATOM      3  C   UNL     1      47.291   5.467  13.794  0.00  0.00    +0.000 A 
ATOM      4  C   UNL     1      46.763   4.181  13.775  0.00  0.00    +0.000 A 
ATOM      5  C   UNL     1      45.674   3.903  12.952  0.00  0.00    +0.000 A 
ATOM      6  C   UNL     1      45.156   4.877  12.080  0.00  0.00    +0.000 A 
ENDROOT
BRANCH   6   7
ATOM      7  C   UNL     1      44.069   4.403  11.167  0.00  0.00    +0.000 C 
ATOM      8  N   UNL     1      44.063   4.846   9.877  0.00  0.00    +0.000 N 
ATOM      9  O   UNL     1      43.211   3.612  11.542  0.00  0.00    +0.000 OA
ATOM     10  H   UNL     1      44.741   5.523   9.548  0.00  0.00    +0.000 HD
ATOM     11  H   UNL     1      43.339   4.514   9.258  0.00  0.00    +0.000 HD
ENDBRANCH   6   7
BRANCH   1  13
ATOM     12  C   UNL     1      44.905   8.400  11.824  0.00  0.00    +0.000 C 
ATOM     13  O   UNL     1      45.156   7.118  11.255  0.00  0.00    +0.000 OA
ENDBRANCH   1  13
BRANCH   4  14
ATOM     14  O   UNL     1      47.380   3.266  14.585  0.00  0.00    +0.000 OA
BRANCH  14  15
ATOM     15  C   UNL     1      47.400   3.619  15.977  0.00  0.00    +0.000 C 
BRANCH  15  16
ATOM     16  C   UNL     1      48.709   3.257  16.638  0.00  0.00    +0.000 A 
ATOM     17  C   UNL     1      49.368   4.149  17.481  0.00  0.00    +0.000 A 
ATOM     18  C   UNL     1      50.623   3.805  17.977  0.00  0.00    +0.000 A 
ATOM     19  C   UNL     1      51.193   2.594  17.609  0.00  0.00    +0.000 A 
ATOM     20  C   UNL     1      50.480   1.766  16.760  0.00  0.00    +0.000 A 
ATOM     21  N   UNL     1      49.260   2.070  16.268  0.00  0.00    +0.000 NA
ENDBRANCH  15  16
ENDBRANCH  14  15
ENDBRANCH   4  14
TORSDOF 5
ENDMDL
MODEL 6
REMARK VINA RESULT:    -5.790      2.185      3.236
REMARK INTER + INTRA:          -8.252
REMARK INTER:                  -7.512
REMARK INTRA:                  -0.740
REMARK UNBOUND:                -0.769
REMARK  Name = 
REMARK  6 active torsions:
REMARK  status: ('A' for Active; 'I' for Inactive)
REMARK    1  A    between atoms: C_1  and  O_2
REMARK    2  A    between atoms: O_2  and  C_3
REMARK    3  A    between atoms: C_6  and  O_7
REMARK    4  A    between atoms: O_7  and  C_8
REMARK    5  A    between atoms: C_8  and  C_9
REMARK    6  A    between atoms: C_16  and  C_17
REMARK                            x       y       z     vdW  Elec       q    Type
REMARK                         _______ _______ _______ _____ _____    ______ ____
ROOT
ATOM      1  C   UNL     1      48.445   5.714  15.350  0.00  0.00    +0.000 A 
ATOM      2  C   UNL     1      48.301   6.708  14.371  0.00  0.00    +0.000 A 
ATOM      3  C   UNL     1      47.255   6.651  13.444  0.00  0.00    +0.000 A 
ATOM      4  C   UNL     1      46.345   5.600  13.474  0.00  0.00    +0.000 A 
ATOM      5  C   UNL     1      46.517   4.577  14.403  0.00  0.00    +0.000 A 
ATOM      6  C   UNL     1      47.542   4.632  15.364  0.00  0.00    +0.000 A 
ENDROOT
BRANCH   6   7
ATOM      7  C   UNL     1      47.530   3.529  16.374  0.00  0.00    +0.000 C 
ATOM      8  N   UNL     1      48.667   2.798  16.553  0.00  0.00    +0.000 N 
ATOM      9  O   UNL     1      46.540   3.289  17.056  0.00  0.00    +0.000 OA
ATOM     10  H   UNL     1      49.490   2.954  15.984  0.00  0.00    +0.000 HD
ATOM     11  H   UNL     1      48.663   2.064  17.246  0.00  0.00    +0.000 HD
ENDBRANCH   6   7
BRANCH   1  13
ATOM     12  C   UNL     1      49.383   6.672  17.321  0.00  0.00    +0.000 C 
ATOM     13  O   UNL     1      49.467   5.719  16.266  0.00  0.00    +0.000 OA
ENDBRANCH   1  13
BRANCH   4  14
ATOM     14  O   UNL     1      45.323   5.665  12.566  0.00  0.00    +0.000 OA
BRANCH  14  15
ATOM     15  C   UNL     1      45.736   5.940  11.219  0.00  0.00    +0.000 C 
BRANCH  15  16
ATOM     16  C   UNL     1      45.311   4.854  10.258  0.00  0.00    +0.000 A 
ATOM     17  C   UNL     1      44.711   3.680  10.708  0.00  0.00    +0.000 A 
ATOM     18  C   UNL     1      44.438   2.668   9.792  0.00  0.00    +0.000 A 
ATOM     19  C   UNL     1      44.784   2.845   8.458  0.00  0.00    +0.000 A 
ATOM     20  C   UNL     1      45.387   4.036   8.091  0.00  0.00    +0.000 A 
ATOM     21  N   UNL     1      45.658   5.035   8.957  0.00  0.00    +0.000 NA
ENDBRANCH  15  16
ENDBRANCH  14  15
ENDBRANCH   4  14
TORSDOF 5
ENDMDL
MODEL 7
REMARK VINA RESULT:    -5.639      3.118      7.407
REMARK INTER + INTRA:          -8.057
REMARK INTER:                  -7.474
REMARK INTRA:                  -0.583
REMARK UNBOUND:                -0.769
REMARK  Name = 
REMARK  6 active torsions:
REMARK  status: ('A' for Active; 'I' for Inactive)
REMARK    1  A    between atoms: C_1  and  O_2
REMARK    2  A    between atoms: O_2  and  C_3
REMARK    3  A    between atoms: C_6  and  O_7
REMARK    4  A    between atoms: O_7  and  C_8
REMARK    5  A    between atoms: C_8  and  C_9
REMARK    6  A    between atoms: C_16  and  C_17
REMARK                            x       y       z     vdW  Elec       q    Type
REMARK                         _______ _______ _______ _____ _____    ______ ____
ROOT
ATOM      1  C   UNL     1      44.685   4.493  11.589  0.00  0.00    +0.000 A 
ATOM      2  C   UNL     1      45.336   3.397  12.175  0.00  0.00    +0.000 A 
ATOM      3  C   UNL     1      46.302   3.588  13.169  0.00  0.00    +0.000 A 
ATOM      4  C   UNL     1      46.637   4.872  13.586  0.00  0.00    +0.000 A 
ATOM      5  C   UNL     1      46.039   5.967  12.967  0.00  0.00    +0.000 A 
ATOM      6  C   UNL     1      45.044   5.795  11.989  0.00  0.00    +0.000 A 
ENDROOT
BRANCH   6   7
ATOM      7  C   UNL     1      44.403   7.057  11.502  0.00  0.00    +0.000 C 
ATOM      8  N   UNL     1      43.084   7.026  11.159  0.00  0.00    +0.000 N 
ATOM      9  O   UNL     1      45.026   8.110  11.431  0.00  0.00    +0.000 OA
ATOM     10  H   UNL     1      42.553   6.165  11.179  0.00  0.00    +0.000 HD
ATOM     11  H   UNL     1      42.649   7.881  10.845  0.00  0.00    +0.000 HD
ENDBRANCH   6   7
BRANCH   1  13
ATOM     12  C   UNL     1      44.225   3.996   9.303  0.00  0.00    +0.000 C 
ATOM     13  O   UNL     1      43.747   4.352  10.596  0.00  0.00    +0.000 OA
ENDBRANCH   1  13
BRANCH   4  14
ATOM     14  O   UNL     1      47.546   4.954  14.606  0.00  0.00    +0.000 OA
BRANCH  14  15
ATOM     15  C   UNL     1      47.250   4.123  15.739  0.00  0.00    +0.000 C 
BRANCH  15  16
ATOM     16  C   UNL     1      48.244   4.312  16.861  0.00  0.00    +0.000 A 
ATOM     17  C   UNL     1      48.018   3.782  18.129  0.00  0.00    +0.000 A 
ATOM     18  C   UNL     1      48.914   4.078  19.153  0.00  0.00    +0.000 A 
ATOM     19  C   UNL     1      49.999   4.904  18.891  0.00  0.00    +0.000 A 
ATOM     20  C   UNL     1      50.150   5.400  17.608  0.00  0.00    +0.000 A 
ATOM     21  N   UNL     1      49.300   5.126  16.595  0.00  0.00    +0.000 NA
ENDBRANCH  15  16
ENDBRANCH  14  15
ENDBRANCH   4  14
TORSDOF 5
ENDMDL
MODEL 8
REMARK VINA RESULT:    -5.609      3.627      6.809
REMARK INTER + INTRA:          -8.018
REMARK INTER:                  -7.530
REMARK INTRA:                  -0.488
REMARK UNBOUND:                -0.769
REMARK  Name = 
REMARK  6 active torsions:
REMARK  status: ('A' for Active; 'I' for Inactive)
REMARK    1  A    between atoms: C_1  and  O_2
REMARK    2  A    between atoms: O_2  and  C_3
REMARK    3  A    between atoms: C_6  and  O_7
REMARK    4  A    between atoms: O_7  and  C_8
REMARK    5  A    between atoms: C_8  and  C_9
REMARK    6  A    between atoms: C_16  and  C_17
REMARK                            x       y       z     vdW  Elec       q    Type
REMARK                         _______ _______ _______ _____ _____    ______ ____
ROOT
ATOM      1  C   UNL     1      45.408   5.463  11.885  0.00  0.00    +0.000 A 
ATOM      2  C   UNL     1      45.129   4.096  12.034  0.00  0.00    +0.000 A 
ATOM      3  C   UNL     1      45.859   3.312  12.934  0.00  0.00    +0.000 A 
ATOM      4  C   UNL     1      46.879   3.876  13.691  0.00  0.00    +0.000 A 
ATOM      5  C   UNL     1      47.204   5.218  13.505  0.00  0.00    +0.000 A 
ATOM      6  C   UNL     1      46.462   6.030  12.629  0.00  0.00    +0.000 A 
ENDROOT
BRANCH   6   7
ATOM      7  C   UNL     1      46.843   7.477  12.623  0.00  0.00    +0.000 C 
ATOM      8  N   UNL     1      46.289   8.300  13.558  0.00  0.00    +0.000 N 
ATOM      9  O   UNL     1      47.654   7.927  11.821  0.00  0.00    +0.000 OA
ATOM     10  H   UNL     1      45.595   7.963  14.213  0.00  0.00    +0.000 HD
ATOM     11  H   UNL     1      46.559   9.272  13.563  0.00  0.00    +0.000 HD
ENDBRANCH   6   7
BRANCH   1  13
ATOM     12  C   UNL     1      43.346   6.476  11.249  0.00  0.00    +0.000 C 
ATOM     13  O   UNL     1      44.732   6.265  10.999  0.00  0.00    +0.000 OA
ENDBRANCH   1  13
BRANCH   4  14
ATOM     14  O   UNL     1      47.493   3.044  14.587  0.00  0.00    +0.000 OA
BRANCH  14  15
ATOM     15  C   UNL     1      47.487   3.517  15.943  0.00  0.00    +0.000 C 
BRANCH  15  16
ATOM     16  C   UNL     1      48.794   3.242  16.649  0.00  0.00    +0.000 A 
ATOM     17  C   UNL     1      49.415   4.213  17.431  0.00  0.00    +0.000 A 
ATOM     18  C   UNL     1      50.670   3.943  17.970  0.00  0.00    +0.000 A 
ATOM     19  C   UNL     1      51.278   2.723  17.704  0.00  0.00    +0.000 A 
ATOM     20  C   UNL     1      50.601   1.814  16.910  0.00  0.00    +0.000 A 
ATOM     21  N   UNL     1      49.383   2.047  16.379  0.00  0.00    +0.000 NA
ENDBRANCH  15  16
ENDBRANCH  14  15
ENDBRANCH   4  14
TORSDOF 5
ENDMDL
MODEL 9
REMARK VINA RESULT:    -5.587      2.619      6.715
REMARK INTER + INTRA:          -7.990
REMARK INTER:                  -7.456
REMARK INTRA:                  -0.533
REMARK UNBOUND:                -0.769
REMARK  Name = 
REMARK  6 active torsions:
REMARK  status: ('A' for Active; 'I' for Inactive)
REMARK    1  A    between atoms: C_1  and  O_2
REMARK    2  A    between atoms: O_2  and  C_3
REMARK    3  A    between atoms: C_6  and  O_7
REMARK    4  A    between atoms: O_7  and  C_8
REMARK    5  A    between atoms: C_8  and  C_9
REMARK    6  A    between atoms: C_16  and  C_17
REMARK                            x       y       z     vdW  Elec       q    Type
REMARK                         _______ _______ _______ _____ _____    ______ ____
ROOT
ATOM      1  C   UNL     1      45.163   5.445  11.281  0.00  0.00    +0.000 A 
ATOM      2  C   UNL     1      46.287   6.250  11.041  0.00  0.00    +0.000 A 
ATOM      3  C   UNL     1      47.287   6.387  12.010  0.00  0.00    +0.000 A 
ATOM      4  C   UNL     1      47.177   5.732  13.232  0.00  0.00    +0.000 A 
ATOM      5  C   UNL     1      46.035   4.981  13.502  0.00  0.00    +0.000 A 
ATOM      6  C   UNL     1      45.036   4.804  12.529  0.00  0.00    +0.000 A 
ENDROOT
BRANCH   6   7
ATOM      7  C   UNL     1      43.929   3.873  12.913  0.00  0.00    +0.000 C 
ATOM      8  N   UNL     1      43.995   2.576  12.494  0.00  0.00    +0.000 N 
ATOM      9  O   UNL     1      42.990   4.239  13.611  0.00  0.00    +0.000 OA
ATOM     10  H   UNL     1      44.742   2.254  11.893  0.00  0.00    +0.000 HD
ATOM     11  H   UNL     1      43.257   1.945  12.767  0.00  0.00    +0.000 HD
ENDBRANCH   6   7
BRANCH   1  13
ATOM     12  C   UNL     1      44.340   4.326   9.343  0.00  0.00    +0.000 C 
ATOM     13  O   UNL     1      44.149   5.298  10.367  0.00  0.00    +0.000 OA
ENDBRANCH   1  13
BRANCH   4  14
ATOM     14  O   UNL     1      48.233   5.879  14.090  0.00  0.00    +0.000 OA
BRANCH  14  15
ATOM     15  C   UNL     1      47.864   6.086  15.462  0.00  0.00    +0.000 C 
BRANCH  15  16
ATOM     16  C   UNL     1      48.193   4.892  16.327  0.00  0.00    +0.000 A 
ATOM     17  C   UNL     1      47.199   4.027  16.780  0.00  0.00    +0.000 A 
ATOM     18  C   UNL     1      47.544   3.007  17.663  0.00  0.00    +0.000 A 
ATOM     19  C   UNL     1      48.863   2.885  18.082  0.00  0.00    +0.000 A 
ATOM     20  C   UNL     1      49.790   3.790  17.595  0.00  0.00    +0.000 A 
ATOM     21  N   UNL     1      49.485   4.785  16.735  0.00  0.00    +0.000 NA
ENDBRANCH  15  16
ENDBRANCH  14  15
ENDBRANCH   4  14
TORSDOF 5
ENDMDL
