MODEL 1
REMARK VINA RESULT:    -7.632      0.000      0.000
REMARK INTER + INTRA:         -10.147
REMARK INTER:                  -9.640
REMARK INTRA:                  -0.507
REMARK UNBOUND:                -0.507
REMARK  Name = 
REMARK  6 active torsions:
REMARK  status: ('A' for Active; 'I' for Inactive)
REMARK    1  A    between atoms: C_1  and  C_2
REMARK    2  A    between atoms: C_2  and  O_3
REMARK    3  A    between atoms: C_2  and  C_14
REMARK    4  A    between atoms: O_3  and  C_4
REMARK    5  A    between atoms: C_7  and  C_8
REMARK    6  A    between atoms: C_12  and  N_13
REMARK                            x       y       z     vdW  Elec       q    Type
REMARK                         _______ _______ _______ _____ _____    ______ ____
ROOT
ATOM      1  C   UNL     1      44.930   3.931   9.093  0.00  0.00    +0.000 A 
ATOM      2  N   UNL     1      45.631   4.794   8.321  0.00  0.00    +0.000 NA
ATOM      3  C   UNL     1      46.525   4.212   7.483  0.00  0.00    +0.000 A 
ATOM      4  C   UNL     1      46.704   2.836   7.426  0.00  0.00    +0.000 A 
ATOM      5  N   UNL     1      46.022   1.964   8.224  0.00  0.00    +0.000 NA
ATOM      6  C   UNL     1      45.129   2.532   9.061  0.00  0.00    +0.000 A 
ENDROOT
BRANCH   4   7
ATOM      7  C   UNL     1      47.641   2.261   6.422  0.00  0.00    +0.000 C 
ATOM      8  N   UNL     1      47.874   3.028   5.313  0.00  0.00    +0.000 N 
ATOM      9  O   UNL     1      48.185   1.176   6.582  0.00  0.00    +0.000 OA
ATOM     10  H   UNL     1      47.463   3.953   5.242  0.00  0.00    +0.000 HD
ATOM     11  H   UNL     1      48.560   2.725   4.637  0.00  0.00    +0.000 HD
ENDBRANCH   4   7
BRANCH   6  12
ATOM     12  N   UNL     1      44.366   1.656   9.837  0.00  0.00    +0.000 N 
ATOM     13  H   UNL     1      43.550   1.357   9.316  0.00  0.00    +0.000 HD
ATOM     14  H   UNL     1      44.930   0.894  10.206  0.00  0.00    +0.000 HD
ENDBRANCH   6  12
BRANCH   1  15
ATOM     15  O   UNL     1      43.906   4.422   9.875  0.00  0.00    +0.000 OA
BRANCH  15  17
ATOM     16  C   UNL     1      43.010   6.045  11.388  0.00  0.00    +0.000 C 
ATOM     17  C   UNL     1      44.282   5.536  10.702  0.00  0.00    +0.000 C 
BRANCH  17  18
ATOM     18  C   UNL     1      45.271   5.066  11.760  0.00  0.00    +0.000 A 
ATOM     19  N   UNL     1      45.128   3.769  12.177  0.00  0.00    +0.000 NA
ATOM     20  C   UNL     1      45.950   3.317  13.147  0.00  0.00    +0.000 A 
ATOM     21  C   UNL     1      46.942   4.086  13.724  0.00  0.00    +0.000 A 
ATOM     22  C   UNL     1      47.097   5.397  13.284  0.00  0.00    +0.000 A 
ATOM     23  C   UNL     1      46.253   5.902  12.292  0.00  0.00    +0.000 A 
ATOM     24 CL   UNL     1      46.483   7.539  11.807  0.00  0.00    +0.000 Cl
ENDBRANCH  17  18
ENDBRANCH  15  17
ENDBRANCH   1  15
TORSDOF 5
ENDMDL
MODEL 2
REMARK VINA RESULT:    -6.614      1.417      2.052
REMARK INTER + INTRA:          -8.860
REMARK INTER:                  -9.679
REMARK INTRA:                   0.818
REMARK UNBOUND:                -0.507
REMARK  Name = 
REMARK  6 active torsions:
REMARK  status: ('A' for Active; 'I' for Inactive)
REMARK    1  A    between atoms: C_1  and  C_2
REMARK    2  A    between atoms: C_2  and  O_3
REMARK    3  A    between atoms: C_2  and  C_14
REMARK    4  A    between atoms: O_3  and  C_4
REMARK    5  A    between atoms: C_7  and  C_8
REMARK    6  A    between atoms: C_12  and  N_13
REMARK                            x       y       z     vdW  Elec       q    Type
REMARK                         _______ _______ _______ _____ _____    ______ ____
ROOT
ATOM      1  C   UNL     1      44.337   3.609   9.510  0.00  0.00    +0.000 A 
ATOM      2  N   UNL     1      44.032   2.289   9.513  0.00  0.00    +0.000 NA
ATOM      3  C   UNL     1      44.911   1.499   8.848  0.00  0.00    +0.000 A 
ATOM      4  C   UNL     1      46.035   2.009   8.212  0.00  0.00    +0.000 A 
ATOM      5  N   UNL     1      46.331   3.341   8.179  0.00  0.00    +0.000 NA
ATOM      6  C   UNL     1      45.464   4.137   8.839  0.00  0.00    +0.000 A 
ENDROOT
BRANCH   4   7
ATOM      7  C   UNL     1      47.002   1.074   7.574  0.00  0.00    +0.000 C 
ATOM      8  N   UNL     1      48.046   1.656   6.906  0.00  0.00    +0.000 N 
ATOM      9  O   UNL     1      46.886  -0.142   7.654  0.00  0.00    +0.000 OA
ATOM     10  H   UNL     1      48.153   2.665   6.918  0.00  0.00    +0.000 HD
ATOM     11  H   UNL     1      48.774   1.073   6.522  0.00  0.00    +0.000 HD
ENDBRANCH   4   7
BRANCH   6  12
ATOM     12  N   UNL     1      45.782   5.496   8.882  0.00  0.00    +0.000 N 
ATOM     13  H   UNL     1      46.124   5.740   9.804  0.00  0.00    +0.000 HD
ATOM     14  H   UNL     1      46.404   5.759   8.121  0.00  0.00    +0.000 HD
ENDBRANCH   6  12
BRANCH   1  15
ATOM     15  O   UNL     1      43.575   4.468  10.274  0.00  0.00    +0.000 OA
BRANCH  15  17
ATOM     16  C   UNL     1      43.338   2.616  11.770  0.00  0.00    +0.000 C 
ATOM     17  C   UNL     1      43.536   4.132  11.670  0.00  0.00    +0.000 C 
BRANCH  17  18
ATOM     18  C   UNL     1      44.862   4.509  12.316  0.00  0.00    +0.000 A 
ATOM     19  N   UNL     1      45.572   3.477  12.869  0.00  0.00    +0.000 NA
ATOM     20  C   UNL     1      46.733   3.764  13.495  0.00  0.00    +0.000 A 
ATOM     21  C   UNL     1      47.253   5.040  13.587  0.00  0.00    +0.000 A 
ATOM     22  C   UNL     1      46.538   6.084  13.007  0.00  0.00    +0.000 A 
ATOM     23  C   UNL     1      45.325   5.825  12.365  0.00  0.00    +0.000 A 
ATOM     24 CL   UNL     1      44.479   7.164  11.686  0.00  0.00    +0.000 Cl
ENDBRANCH  17  18
ENDBRANCH  15  17
ENDBRANCH   1  15
TORSDOF 5
ENDMDL
MODEL 3
REMARK VINA RESULT:    -6.405      4.421      6.409
REMARK INTER + INTRA:          -8.596
REMARK INTER:                  -7.852
REMARK INTRA:                  -0.744
REMARK UNBOUND:                -0.507
REMARK  Name = 
REMARK  6 active torsions:
REMARK  status: ('A' for Active; 'I' for Inactive)
REMARK    1  A    between atoms: C_1  and  C_2
REMARK    2  A    between atoms: C_2  and  O_3
REMARK    3  A    between atoms: C_2  and  C_14
REMARK    4  A    between atoms: O_3  and  C_4
REMARK    5  A    between atoms: C_7  and  C_8
REMARK    6  A    between atoms: C_12  and  N_13
REMARK                            x       y       z     vdW  Elec       q    Type
REMARK                         _______ _______ _______ _____ _____    ______ ____
ROOT
ATOM      1  C   UNL     1      46.465   4.706  13.780  0.00  0.00    +0.000 A 
ATOM      2  N   UNL     1      45.705   3.630  13.465  0.00  0.00    +0.000 NA
ATOM      3  C   UNL     1      44.644   3.897  12.664  0.00  0.00    +0.000 A 
ATOM      4  C   UNL     1      44.361   5.177  12.206  0.00  0.00    +0.000 A 
ATOM      5  N   UNL     1      45.104   6.270  12.546  0.00  0.00    +0.000 NA
ATOM      6  C   UNL     1      46.164   6.016  13.342  0.00  0.00    +0.000 A 
ENDROOT
BRANCH   4   7
ATOM      7  C   UNL     1      43.229   5.383  11.261  0.00  0.00    +0.000 C 
ATOM      8  N   UNL     1      42.153   6.068  11.757  0.00  0.00    +0.000 N 
ATOM      9  O   UNL     1      43.261   4.981  10.105  0.00  0.00    +0.000 OA
ATOM     10  H   UNL     1      42.185   6.449  12.696  0.00  0.00    +0.000 HD
ATOM     11  H   UNL     1      41.391   6.305  11.139  0.00  0.00    +0.000 HD
ENDBRANCH   4   7
BRANCH   6  12
ATOM     12  N   UNL     1      46.984   7.106  13.646  0.00  0.00    +0.000 N 
ATOM     13  H   UNL     1      47.304   7.544  12.791  0.00  0.00    +0.000 HD
ATOM     14  H   UNL     1      46.532   7.742  14.300  0.00  0.00    +0.000 HD
ENDBRANCH   6  12
BRANCH   1  15
ATOM     15  O   UNL     1      47.639   4.509  14.476  0.00  0.00    +0.000 OA
BRANCH  15  17
ATOM     16  C   UNL     1      47.911   3.135  16.416  0.00  0.00    +0.000 C 
ATOM     17  C   UNL     1      47.481   4.514  15.904  0.00  0.00    +0.000 C 
BRANCH  17  18
ATOM     18  C   UNL     1      48.387   5.579  16.506  0.00  0.00    +0.000 A 
ATOM     19  N   UNL     1      49.396   6.032  15.699  0.00  0.00    +0.000 NA
ATOM     20  C   UNL     1      50.256   6.942  16.201  0.00  0.00    +0.000 A 
ATOM     21  C   UNL     1      50.158   7.458  17.478  0.00  0.00    +0.000 A 
ATOM     22  C   UNL     1      49.120   7.011  18.290  0.00  0.00    +0.000 A 
ATOM     23  C   UNL     1      48.221   6.057  17.807  0.00  0.00    +0.000 A 
ATOM     24 CL   UNL     1      46.971   5.529  18.869  0.00  0.00    +0.000 Cl
ENDBRANCH  17  18
ENDBRANCH  15  17
ENDBRANCH   1  15
TORSDOF 5
ENDMDL
MODEL 4
REMARK VINA RESULT:    -6.361      3.497      6.711
REMARK INTER + INTRA:          -8.541
REMARK INTER:                  -7.939
REMARK INTRA:                  -0.602
REMARK UNBOUND:                -0.507
REMARK  Name = 
REMARK  6 active torsions:
REMARK  status: ('A' for Active; 'I' for Inactive)
REMARK    1  A    between atoms: C_1  and  C_2
REMARK    2  A    between atoms: C_2  and  O_3
REMARK    3  A    between atoms: C_2  and  C_14
REMARK    4  A    between atoms: O_3  and  C_4
REMARK    5  A    between atoms: C_7  and  C_8
REMARK    6  A    between atoms: C_12  and  N_13
REMARK                            x       y       z     vdW  Elec       q    Type
REMARK                         _______ _______ _______ _____ _____    ______ ____
ROOT
ATOM      1  C   UNL     1      46.619   5.704  13.007  0.00  0.00    +0.000 A 
ATOM      2  N   UNL     1      46.151   4.636  13.696  0.00  0.00    +0.000 NA
ATOM      3  C   UNL     1      46.763   4.411  14.885  0.00  0.00    +0.000 A 
ATOM      4  C   UNL     1      47.793   5.216  15.355  0.00  0.00    +0.000 A 
ATOM      5  N   UNL     1      48.290   6.274  14.651  0.00  0.00    +0.000 NA
ATOM      6  C   UNL     1      47.687   6.508  13.466  0.00  0.00    +0.000 A 
ENDROOT
BRANCH   4   7
ATOM      7  C   UNL     1      48.362   4.962  16.707  0.00  0.00    +0.000 C 
ATOM      8  N   UNL     1      47.545   5.257  17.765  0.00  0.00    +0.000 N 
ATOM      9  O   UNL     1      49.484   4.500  16.868  0.00  0.00    +0.000 OA
ATOM     10  H   UNL     1      46.595   5.571  17.598  0.00  0.00    +0.000 HD
ATOM     11  H   UNL     1      47.848   5.031  18.701  0.00  0.00    +0.000 HD
ENDBRANCH   4   7
BRANCH   6  12
ATOM     12  N   UNL     1      48.128   7.629  12.759  0.00  0.00    +0.000 N 
ATOM     13  H   UNL     1      47.463   8.386  12.864  0.00  0.00    +0.000 HD
ATOM     14  H   UNL     1      49.084   7.874  13.005  0.00  0.00    +0.000 HD
ENDBRANCH   6  12
BRANCH   1  15
ATOM     15  O   UNL     1      45.967   6.088  11.855  0.00  0.00    +0.000 OA
BRANCH  15  17
ATOM     16  C   UNL     1      43.657   6.450  11.347  0.00  0.00    +0.000 C 
ATOM     17  C   UNL     1      44.732   5.392  11.621  0.00  0.00    +0.000 C 
BRANCH  17  18
ATOM     18  C   UNL     1      44.881   4.499  10.397  0.00  0.00    +0.000 A 
ATOM     19  N   UNL     1      45.620   5.016   9.366  0.00  0.00    +0.000 NA
ATOM     20  C   UNL     1      45.745   4.284   8.240  0.00  0.00    +0.000 A 
ATOM     21  C   UNL     1      45.184   3.032   8.080  0.00  0.00    +0.000 A 
ATOM     22  C   UNL     1      44.449   2.501   9.136  0.00  0.00    +0.000 A 
ATOM     23  C   UNL     1      44.288   3.239  10.311  0.00  0.00    +0.000 A 
ATOM     24 CL   UNL     1      43.349   2.534  11.573  0.00  0.00    +0.000 Cl
ENDBRANCH  17  18
ENDBRANCH  15  17
ENDBRANCH   1  15
TORSDOF 5
ENDMDL
MODEL 5
REMARK VINA RESULT:    -6.074      3.881      6.951
REMARK INTER + INTRA:          -8.178
REMARK INTER:                  -7.830
REMARK INTRA:                  -0.348
REMARK UNBOUND:                -0.507
REMARK  Name = 
REMARK  6 active torsions:
REMARK  status: ('A' for Active; 'I' for Inactive)
REMARK    1  A    between atoms: C_1  and  C_2
REMARK    2  A    between atoms: C_2  and  O_3
REMARK    3  A    between atoms: C_2  and  C_14
REMARK    4  A    between atoms: O_3  and  C_4
REMARK    5  A    between atoms: C_7  and  C_8
REMARK    6  A    between atoms: C_12  and  N_13
REMARK                            x       y       z     vdW  Elec       q    Type
REMARK                         _______ _______ _______ _____ _____    ______ ____
ROOT
ATOM      1  C   UNL     1      47.496   5.358  14.276  0.00  0.00    +0.000 A 
ATOM      2  N   UNL     1      48.143   6.127  15.183  0.00  0.00    +0.000 NA
ATOM      3  C   UNL     1      48.507   5.484  16.320  0.00  0.00    +0.000 A 
ATOM      4  C   UNL     1      48.233   4.139  16.533  0.00  0.00    +0.000 A 
ATOM      5  N   UNL     1      47.554   3.367  15.635  0.00  0.00    +0.000 NA
ATOM      6  C   UNL     1      47.188   3.997  14.499  0.00  0.00    +0.000 A 
ENDROOT
BRANCH   4   7
ATOM      7  C   UNL     1      48.736   3.476  17.767  0.00  0.00    +0.000 C 
ATOM      8  N   UNL     1      47.816   3.284  18.762  0.00  0.00    +0.000 N 
ATOM      9  O   UNL     1      49.898   3.106  17.884  0.00  0.00    +0.000 OA
ATOM     10  H   UNL     1      46.846   3.538  18.608  0.00  0.00    +0.000 HD
ATOM     11  H   UNL     1      48.081   2.770  19.589  0.00  0.00    +0.000 HD
ENDBRANCH   4   7
BRANCH   6  12
ATOM     12  N   UNL     1      46.555   3.212  13.533  0.00  0.00    +0.000 N 
ATOM     13  H   UNL     1      46.889   2.257  13.594  0.00  0.00    +0.000 HD
ATOM     14  H   UNL     1      45.543   3.306  13.579  0.00  0.00    +0.000 HD
ENDBRANCH   6  12
BRANCH   1  15
ATOM     15  O   UNL     1      47.210   5.893  13.037  0.00  0.00    +0.000 OA
BRANCH  15  17
ATOM     16  C   UNL     1      45.871   7.831  12.618  0.00  0.00    +0.000 C 
ATOM     17  C   UNL     1      45.847   6.322  12.885  0.00  0.00    +0.000 C 
BRANCH  17  18
ATOM     18  C   UNL     1      45.226   5.610  11.692  0.00  0.00    +0.000 A 
ATOM     19  N   UNL     1      45.968   5.612  10.541  0.00  0.00    +0.000 NA
ATOM     20  C   UNL     1      45.443   5.035   9.441  0.00  0.00    +0.000 A 
ATOM     21  C   UNL     1      44.205   4.422   9.420  0.00  0.00    +0.000 A 
ATOM     22  C   UNL     1      43.461   4.404  10.596  0.00  0.00    +0.000 A 
ATOM     23  C   UNL     1      43.969   5.006  11.750  0.00  0.00    +0.000 A 
ATOM     24 CL   UNL     1      42.989   4.968  13.167  0.00  0.00    +0.000 Cl
ENDBRANCH  17  18
ENDBRANCH  15  17
ENDBRANCH   1  15
TORSDOF 5
ENDMDL
MODEL 6
REMARK VINA RESULT:    -5.999      4.755      6.672
REMARK INTER + INTRA:          -8.085
REMARK INTER:                  -7.458
REMARK INTRA:                  -0.626
REMARK UNBOUND:                -0.507
REMARK  Name = 
REMARK  6 active torsions:
REMARK  status: ('A' for Active; 'I' for Inactive)
REMARK    1  A    between atoms: C_1  and  C_2
REMARK    2  A    between atoms: C_2  and  O_3
REMARK    3  A    between atoms: C_2  and  C_14
REMARK    4  A    between atoms: O_3  and  C_4
REMARK    5  A    between atoms: C_7  and  C_8
REMARK    6  A    between atoms: C_12  and  N_13
REMARK                            x       y       z     vdW  Elec       q    Type
REMARK                         _______ _______ _______ _____ _____    ______ ____
ROOT
ATOM      1  C   UNL     1      47.255   4.400  14.253  0.00  0.00    +0.000 A 
ATOM      2  N   UNL     1      47.756   5.636  14.486  0.00  0.00    +0.000 NA
ATOM      3  C   UNL     1      47.269   6.610  13.678  0.00  0.00    +0.000 A 
ATOM      4  C   UNL     1      46.330   6.353  12.687  0.00  0.00    +0.000 A 
ATOM      5  N   UNL     1      45.845   5.104  12.427  0.00  0.00    +0.000 NA
ATOM      6  C   UNL     1      46.322   4.127  13.227  0.00  0.00    +0.000 A 
ENDROOT
BRANCH   4   7
ATOM      7  C   UNL     1      45.775   7.484  11.893  0.00  0.00    +0.000 C 
ATOM      8  N   UNL     1      44.774   7.166  11.017  0.00  0.00    +0.000 N 
ATOM      9  O   UNL     1      46.175   8.634  12.026  0.00  0.00    +0.000 OA
ATOM     10  H   UNL     1      44.416   6.217  10.981  0.00  0.00    +0.000 HD
ATOM     11  H   UNL     1      44.307   7.903  10.510  0.00  0.00    +0.000 HD
ENDBRANCH   4   7
BRANCH   6  12
ATOM     12  N   UNL     1      45.788   2.851  13.030  0.00  0.00    +0.000 N 
ATOM     13  H   UNL     1      46.537   2.169  12.984  0.00  0.00    +0.000 HD
ATOM     14  H   UNL     1      45.067   2.637  13.715  0.00  0.00    +0.000 HD
ENDBRANCH   6  12
BRANCH   1  15
ATOM     15  O   UNL     1      47.591   3.375  15.114  0.00  0.00    +0.000 OA
BRANCH  15  17
ATOM     16  C   UNL     1      46.810   3.131  17.362  0.00  0.00    +0.000 C 
ATOM     17  C   UNL     1      47.851   3.803  16.460  0.00  0.00    +0.000 C 
BRANCH  17  18
ATOM     18  C   UNL     1      49.243   3.345  16.873  0.00  0.00    +0.000 A 
ATOM     19  N   UNL     1      49.566   2.052  16.558  0.00  0.00    +0.000 NA
ATOM     20  C   UNL     1      50.770   1.583  16.943  0.00  0.00    +0.000 A 
ATOM     21  C   UNL     1      51.704   2.345  17.617  0.00  0.00    +0.000 A 
ATOM     22  C   UNL     1      51.382   3.664  17.918  0.00  0.00    +0.000 A 
ATOM     23  C   UNL     1      50.137   4.178  17.548  0.00  0.00    +0.000 A 
ATOM     24 CL   UNL     1      49.791   5.813  17.970  0.00  0.00    +0.000 Cl
ENDBRANCH  17  18
ENDBRANCH  15  17
ENDBRANCH   1  15
TORSDOF 5
ENDMDL
MODEL 7
REMARK VINA RESULT:    -5.803      3.913      6.034
REMARK INTER + INTRA:          -7.836
REMARK INTER:                  -7.184
REMARK INTRA:                  -0.652
REMARK UNBOUND:                -0.507
REMARK  Name = 
REMARK  6 active torsions:
REMARK  status: ('A' for Active; 'I' for Inactive)
REMARK    1  A    between atoms: C_1  and  C_2
REMARK    2  A    between atoms: C_2  and  O_3
REMARK    3  A    between atoms: C_2  and  C_14
REMARK    4  A    between atoms: O_3  and  C_4
REMARK    5  A    between atoms: C_7  and  C_8
REMARK    6  A    between atoms: C_12  and  N_13
REMARK                            x       y       z     vdW  Elec       q    Type
REMARK                         _______ _______ _______ _____ _____    ______ ____
ROOT
ATOM      1  C   UNL     1      46.990   5.633  12.907  0.00  0.00    +0.000 A 
ATOM      2  N   UNL     1      46.608   6.107  11.698  0.00  0.00    +0.000 NA
ATOM      3  C   UNL     1      45.340   5.791  11.336  0.00  0.00    +0.000 A 
ATOM      4  C   UNL     1      44.502   5.036  12.146  0.00  0.00    +0.000 A 
ATOM      5  N   UNL     1      44.892   4.528  13.352  0.00  0.00    +0.000 NA
ATOM      6  C   UNL     1      46.152   4.839  13.723  0.00  0.00    +0.000 A 
ENDROOT
BRANCH   4   7
ATOM      7  C   UNL     1      43.094   4.798  11.723  0.00  0.00    +0.000 C 
ATOM      8  N   UNL     1      42.263   5.884  11.772  0.00  0.00    +0.000 N 
ATOM      9  O   UNL     1      42.704   3.703  11.338  0.00  0.00    +0.000 OA
ATOM     10  H   UNL     1      42.634   6.793  12.029  0.00  0.00    +0.000 HD
ATOM     11  H   UNL     1      41.320   5.800  11.423  0.00  0.00    +0.000 HD
ENDBRANCH   4   7
BRANCH   6  12
ATOM     12  N   UNL     1      46.552   4.392  14.985  0.00  0.00    +0.000 N 
ATOM     13  H   UNL     1      45.869   3.739  15.351  0.00  0.00    +0.000 HD
ATOM     14  H   UNL     1      47.506   4.038  14.971  0.00  0.00    +0.000 HD
ENDBRANCH   6  12
BRANCH   1  15
ATOM     15  O   UNL     1      48.212   6.019  13.416  0.00  0.00    +0.000 OA
BRANCH  15  17
ATOM     16  C   UNL     1      49.015   7.329  15.250  0.00  0.00    +0.000 C 
ATOM     17  C   UNL     1      48.235   7.360  13.931  0.00  0.00    +0.000 C 
BRANCH  17  18
ATOM     18  C   UNL     1      48.956   8.266  12.943  0.00  0.00    +0.000 A 
ATOM     19  N   UNL     1      50.299   8.041  12.794  0.00  0.00    +0.000 NA
ATOM     20  C   UNL     1      50.994   8.847  11.965  0.00  0.00    +0.000 A 
ATOM     21  C   UNL     1      50.418   9.873  11.241  0.00  0.00    +0.000 A 
ATOM     22  C   UNL     1      49.050  10.087  11.379  0.00  0.00    +0.000 A 
ATOM     23  C   UNL     1      48.303   9.280  12.241  0.00  0.00    +0.000 A 
ATOM     24 CL   UNL     1      46.618   9.611  12.382  0.00  0.00    +0.000 Cl
ENDBRANCH  17  18
ENDBRANCH  15  17
ENDBRANCH   1  15
TORSDOF 5
ENDMDL
MODEL 8
REMARK VINA RESULT:    -5.724      3.324      5.145
REMARK INTER + INTRA:          -7.737
REMARK INTER:                  -7.189
REMARK INTRA:                  -0.548
REMARK UNBOUND:                -0.507
REMARK  Name = 
REMARK  6 active torsions:
REMARK  status: ('A' for Active; 'I' for Inactive)
REMARK    1  A    between atoms: C_1  and  C_2
REMARK    2  A    between atoms: C_2  and  O_3
REMARK    3  A    between atoms: C_2  and  C_14
REMARK    4  A    between atoms: O_3  and  C_4
REMARK    5  A    between atoms: C_7  and  C_8
REMARK    6  A    between atoms: C_12  and  N_13
REMARK                            x       y       z     vdW  Elec       q    Type
REMARK                         _______ _______ _______ _____ _____    ______ ____
ROOT
ATOM      1  C   UNL     1      46.068   5.825  12.771  0.00  0.00    +0.000 A 
ATOM      2  N   UNL     1      45.498   6.067  11.567  0.00  0.00    +0.000 NA
ATOM      3  C   UNL     1      44.849   5.009  11.020  0.00  0.00    +0.000 A 
ATOM      4  C   UNL     1      44.778   3.773  11.651  0.00  0.00    +0.000 A 
ATOM      5  N   UNL     1      45.377   3.515  12.850  0.00  0.00    +0.000 NA
ATOM      6  C   UNL     1      46.025   4.562  13.404  0.00  0.00    +0.000 A 
ENDROOT
BRANCH   4   7
ATOM      7  C   UNL     1      43.977   2.681  11.033  0.00  0.00    +0.000 C 
ATOM      8  N   UNL     1      44.468   2.166   9.865  0.00  0.00    +0.000 N 
ATOM      9  O   UNL     1      42.950   2.254  11.545  0.00  0.00    +0.000 OA
ATOM     10  H   UNL     1      45.358   2.492   9.503  0.00  0.00    +0.000 HD
ATOM     11  H   UNL     1      44.010   1.371   9.443  0.00  0.00    +0.000 HD
ENDBRANCH   4   7
BRANCH   6  12
ATOM     12  N   UNL     1      46.585   4.344  14.665  0.00  0.00    +0.000 N 
ATOM     13  H   UNL     1      45.974   4.719  15.381  0.00  0.00    +0.000 HD
ATOM     14  H   UNL     1      46.838   3.368  14.799  0.00  0.00    +0.000 HD
ENDBRANCH   6  12
BRANCH   1  15
ATOM     15  O   UNL     1      46.631   6.877  13.462  0.00  0.00    +0.000 OA
BRANCH  15  17
ATOM     16  C   UNL     1      47.389   8.945  12.526  0.00  0.00    +0.000 C 
ATOM     17  C   UNL     1      47.753   7.481  12.798  0.00  0.00    +0.000 C 
BRANCH  17  18
ATOM     18  C   UNL     1      48.968   7.427  13.712  0.00  0.00    +0.000 A 
ATOM     19  N   UNL     1      48.792   6.772  14.902  0.00  0.00    +0.000 NA
ATOM     20  C   UNL     1      49.825   6.735  15.769  0.00  0.00    +0.000 A 
ATOM     21  C   UNL     1      51.057   7.303  15.510  0.00  0.00    +0.000 A 
ATOM     22  C   UNL     1      51.239   7.950  14.292  0.00  0.00    +0.000 A 
ATOM     23  C   UNL     1      50.186   8.021  13.377  0.00  0.00    +0.000 A 
ATOM     24 CL   UNL     1      50.469   8.855  11.897  0.00  0.00    +0.000 Cl
ENDBRANCH  17  18
ENDBRANCH  15  17
ENDBRANCH   1  15
TORSDOF 5
ENDMDL
MODEL 9
REMARK VINA RESULT:    -5.657      3.368      5.244
REMARK INTER + INTRA:          -7.652
REMARK INTER:                  -7.028
REMARK INTRA:                  -0.624
REMARK UNBOUND:                -0.507
REMARK  Name = 
REMARK  6 active torsions:
REMARK  status: ('A' for Active; 'I' for Inactive)
REMARK    1  A    between atoms: C_1  and  C_2
REMARK    2  A    between atoms: C_2  and  O_3
REMARK    3  A    between atoms: C_2  and  C_14
REMARK    4  A    between atoms: O_3  and  C_4
REMARK    5  A    between atoms: C_7  and  C_8
REMARK    6  A    between atoms: C_12  and  N_13
REMARK                            x       y       z     vdW  Elec       q    Type
REMARK                         _______ _______ _______ _____ _____    ______ ____
ROOT
ATOM      1  C   UNL     1      45.204   6.707  12.690  0.00  0.00    +0.000 A 
ATOM      2  N   UNL     1      45.802   5.610  13.212  0.00  0.00    +0.000 NA
ATOM      3  C   UNL     1      45.387   4.430  12.688  0.00  0.00    +0.000 A 
ATOM      4  C   UNL     1      44.420   4.358  11.693  0.00  0.00    +0.000 A 
ATOM      5  N   UNL     1      43.791   5.458  11.186  0.00  0.00    +0.000 NA
ATOM      6  C   UNL     1      44.198   6.638  11.699  0.00  0.00    +0.000 A 
ENDROOT
BRANCH   4   7
ATOM      7  C   UNL     1      44.074   3.035  11.104  0.00  0.00    +0.000 C 
ATOM      8  N   UNL     1      44.977   2.521  10.214  0.00  0.00    +0.000 N 
ATOM      9  O   UNL     1      43.052   2.432  11.407  0.00  0.00    +0.000 OA
ATOM     10  H   UNL     1      45.848   3.012  10.037  0.00  0.00    +0.000 HD
ATOM     11  H   UNL     1      44.834   1.594   9.843  0.00  0.00    +0.000 HD
ENDBRANCH   4   7
BRANCH   6  12
ATOM     12  N   UNL     1      43.622   7.784  11.146  0.00  0.00    +0.000 N 
ATOM     13  H   UNL     1      43.490   8.484  11.867  0.00  0.00    +0.000 HD
ATOM     14  H   UNL     1      44.143   8.111  10.336  0.00  0.00    +0.000 HD
ENDBRANCH   6  12
BRANCH   1  15
ATOM     15  O   UNL     1      45.660   7.953  13.065  0.00  0.00    +0.000 OA
BRANCH  15  17
ATOM     16  C   UNL     1      46.674   9.814  11.955  0.00  0.00    +0.000 C 
ATOM     17  C   UNL     1      46.866   8.360  12.401  0.00  0.00    +0.000 C 
BRANCH  17  18
ATOM     18  C   UNL     1      48.030   8.285  13.379  0.00  0.00    +0.000 A 
ATOM     19  N   UNL     1      47.727   8.542  14.690  0.00  0.00    +0.000 NA
ATOM     20  C   UNL     1      48.731   8.533  15.591  0.00  0.00    +0.000 A 
ATOM     21  C   UNL     1      50.044   8.258  15.264  0.00  0.00    +0.000 A 
ATOM     22  C   UNL     1      50.346   7.978  13.935  0.00  0.00    +0.000 A 
ATOM     23  C   UNL     1      49.333   7.993  12.973  0.00  0.00    +0.000 A 
ATOM     24 CL   UNL     1      49.776   7.660  11.342  0.00  0.00    +0.000 Cl
ENDBRANCH  17  18
ENDBRANCH  15  17
ENDBRANCH   1  15
TORSDOF 5
ENDMDL
