MODEL 1
REMARK VINA RESULT:    -8.175      0.000      0.000
REMARK INTER + INTRA:         -10.909
REMARK INTER:                 -10.326
REMARK INTRA:                  -0.584
REMARK UNBOUND:                -0.584
REMARK  Name = 
REMARK  5 active torsions:
REMARK  status: ('A' for Active; 'I' for Inactive)
REMARK    1  A    between atoms: N_1  and  C_2
REMARK    2  A    between atoms: C_2  and  C_3
REMARK    3  A    between atoms: N_9  and  C_10
REMARK    4  A    between atoms: C_10  and  C_11
REMARK    5  A    between atoms: C_14  and  C_15
REMARK                            x       y       z     vdW  Elec       q    Type
REMARK                         _______ _______ _______ _____ _____    ______ ____
ROOT
ATOM      1  C   UNL     1      45.266   7.758  12.029  0.00  0.00    +0.000 A 
ATOM      2  C   UNL     1      46.207   7.661  13.054  0.00  0.00    +0.000 A 
ATOM      3  N   UNL     1      46.656   6.518  13.618  0.00  0.00    +0.000 NA
ATOM      4  C   UNL     1      46.127   5.388  13.093  0.00  0.00    +0.000 A 
ATOM      5  C   UNL     1      46.347   4.033  13.400  0.00  0.00    +0.000 A 
ATOM      6  N   UNL     1      45.644   3.206  12.617  0.00  0.00    +0.000 NA
ATOM      7  N   UNL     1      44.950   4.050  11.812  0.00  0.00    +0.000 N 
ATOM      8  C   UNL     1      45.193   5.380  12.063  0.00  0.00    +0.000 A 
ATOM      9  C   UNL     1      44.723   6.574  11.511  0.00  0.00    +0.000 A 
ENDROOT
BRANCH   1  10
ATOM     10  C   UNL     1      44.868   9.098  11.474  0.00  0.00    +0.000 C 
BRANCH  10  11
ATOM     11  N   UNL     1      44.467  10.020  12.528  0.00  0.00    +0.000 NA
ATOM     12  H   UNL     1      45.260  10.189  13.146  0.00  0.00    +0.000 HD
ATOM     13  H   UNL     1      43.750   9.577  13.104  0.00  0.00    +0.000 HD
ENDBRANCH  10  11
ENDBRANCH   1  10
BRANCH   7  14
ATOM     14  C   UNL     1      44.124   3.492  10.746  0.00  0.00    +0.000 C 
BRANCH  14  15
ATOM     15  C   UNL     1      44.929   3.202   9.510  0.00  0.00    +0.000 A 
ATOM     16  C   UNL     1      45.352   4.229   8.656  0.00  0.00    +0.000 A 
ATOM     17  C   UNL     1      46.163   3.935   7.565  0.00  0.00    +0.000 A 
ATOM     18  C   UNL     1      46.518   2.610   7.354  0.00  0.00    +0.000 A 
ATOM     19  N   UNL     1      46.081   1.574   8.127  0.00  0.00    +0.000 NA
ATOM     20  C   UNL     1      45.299   1.901   9.180  0.00  0.00    +0.000 A 
BRANCH  18  21
ATOM     21  C   UNL     1      47.480   2.269   6.261  0.00  0.00    +0.000 C 
ATOM     22  N   UNL     1      47.344   2.995   5.108  0.00  0.00    +0.000 N 
ATOM     23  O   UNL     1      48.319   1.382   6.367  0.00  0.00    +0.000 OA
ATOM     24  H   UNL     1      46.591   3.672   5.037  0.00  0.00    +0.000 HD
ATOM     25  H   UNL     1      47.896   2.751   4.301  0.00  0.00    +0.000 HD
ENDBRANCH  18  21
ENDBRANCH  14  15
ENDBRANCH   7  14
TORSDOF 5
ENDMDL
MODEL 2
REMARK VINA RESULT:    -7.809      1.803      2.087
REMARK INTER + INTRA:         -10.446
REMARK INTER:                  -9.785
REMARK INTRA:                  -0.661
REMARK UNBOUND:                -0.584
REMARK  Name = 
REMARK  5 active torsions:
REMARK  status: ('A' for Active; 'I' for Inactive)
REMARK    1  A    between atoms: N_1  and  C_2
REMARK    2  A    between atoms: C_2  and  C_3
REMARK    3  A    between atoms: N_9  and  C_10
REMARK    4  A    between atoms: C_10  and  C_11
REMARK    5  A    between atoms: C_14  and  C_15
REMARK                            x       y       z     vdW  Elec       q    Type
REMARK                         _______ _______ _______ _____ _____    ______ ____
ROOT
ATOM      1  C   UNL     1      47.648   6.832  12.173  0.00  0.00    +0.000 A 
ATOM      2  C   UNL     1      47.732   6.371  13.487  0.00  0.00    +0.000 A 
ATOM      3  N   UNL     1      46.860   5.537  14.096  0.00  0.00    +0.000 NA
ATOM      4  C   UNL     1      45.838   5.124  13.312  0.00  0.00    +0.000 A 
ATOM      5  C   UNL     1      44.758   4.263  13.576  0.00  0.00    +0.000 A 
ATOM      6  N   UNL     1      43.971   4.079  12.508  0.00  0.00    +0.000 NA
ATOM      7  N   UNL     1      44.550   4.853  11.556  0.00  0.00    +0.000 N 
ATOM      8  C   UNL     1      45.674   5.517  11.988  0.00  0.00    +0.000 A 
ATOM      9  C   UNL     1      46.572   6.401  11.384  0.00  0.00    +0.000 A 
ENDROOT
BRANCH   1  10
ATOM     10  C   UNL     1      48.702   7.745  11.609  0.00  0.00    +0.000 C 
BRANCH  10  11
ATOM     11  N   UNL     1      50.042   7.324  11.995  0.00  0.00    +0.000 NA
ATOM     12  H   UNL     1      50.057   6.311  12.108  0.00  0.00    +0.000 HD
ATOM     13  H   UNL     1      50.263   7.713  12.913  0.00  0.00    +0.000 HD
ENDBRANCH  10  11
ENDBRANCH   1  10
BRANCH   7  14
ATOM     14  C   UNL     1      44.005   4.835  10.202  0.00  0.00    +0.000 C 
BRANCH  14  15
ATOM     15  C   UNL     1      44.821   3.967   9.284  0.00  0.00    +0.000 A 
ATOM     16  C   UNL     1      45.645   4.522   8.296  0.00  0.00    +0.000 A 
ATOM     17  C   UNL     1      46.448   3.694   7.518  0.00  0.00    +0.000 A 
ATOM     18  C   UNL     1      46.391   2.327   7.745  0.00  0.00    +0.000 A 
ATOM     19  N   UNL     1      45.560   1.743   8.657  0.00  0.00    +0.000 NA
ATOM     20  C   UNL     1      44.799   2.579   9.397  0.00  0.00    +0.000 A 
BRANCH  18  21
ATOM     21  C   UNL     1      47.321   1.416   7.009  0.00  0.00    +0.000 C 
ATOM     22  N   UNL     1      48.451   2.006   6.510  0.00  0.00    +0.000 N 
ATOM     23  O   UNL     1      47.085   0.227   6.832  0.00  0.00    +0.000 OA
ATOM     24  H   UNL     1      48.575   3.008   6.618  0.00  0.00    +0.000 HD
ATOM     25  H   UNL     1      49.072   1.471   5.923  0.00  0.00    +0.000 HD
ENDBRANCH  18  21
ENDBRANCH  14  15
ENDBRANCH   7  14
TORSDOF 5
ENDMDL
MODEL 3
REMARK VINA RESULT:    -7.507      1.529      3.071
REMARK INTER + INTRA:         -10.066
REMARK INTER:                  -9.471
REMARK INTRA:                  -0.595
REMARK UNBOUND:                -0.584
REMARK  Name = 
REMARK  5 active torsions:
REMARK  status: ('A' for Active; 'I' for Inactive)
REMARK    1  A    between atoms: N_1  and  C_2
REMARK    2  A    between atoms: C_2  and  C_3
REMARK    3  A    between atoms: N_9  and  C_10
REMARK    4  A    between atoms: C_10  and  C_11
REMARK    5  A    between atoms: C_14  and  C_15
REMARK                            x       y       z     vdW  Elec       q    Type
REMARK                         _______ _______ _______ _____ _____    ______ ____
ROOT
ATOM      1  C   UNL     1      46.920   4.464  13.966  0.00  0.00    +0.000 A 
ATOM      2  C   UNL     1      47.278   5.777  14.270  0.00  0.00    +0.000 A 
ATOM      3  N   UNL     1      46.869   6.886  13.613  0.00  0.00    +0.000 NA
ATOM      4  C   UNL     1      46.022   6.649  12.585  0.00  0.00    +0.000 A 
ATOM      5  C   UNL     1      45.385   7.527  11.689  0.00  0.00    +0.000 A 
ATOM      6  N   UNL     1      44.585   6.891  10.825  0.00  0.00    +0.000 NA
ATOM      7  N   UNL     1      44.732   5.585  11.164  0.00  0.00    +0.000 N 
ATOM      8  C   UNL     1      45.597   5.379  12.212  0.00  0.00    +0.000 A 
ATOM      9  C   UNL     1      46.051   4.243  12.888  0.00  0.00    +0.000 A 
ENDROOT
BRANCH   1  10
ATOM     10  C   UNL     1      47.430   3.317  14.794  0.00  0.00    +0.000 C 
BRANCH  10  11
ATOM     11  N   UNL     1      47.158   3.512  16.212  0.00  0.00    +0.000 NA
ATOM     12  H   UNL     1      48.020   3.388  16.740  0.00  0.00    +0.000 HD
ATOM     13  H   UNL     1      46.523   2.780  16.533  0.00  0.00    +0.000 HD
ENDBRANCH  10  11
ENDBRANCH   1  10
BRANCH   7  14
ATOM     14  C   UNL     1      43.925   4.580  10.478  0.00  0.00    +0.000 C 
BRANCH  14  15
ATOM     15  C   UNL     1      44.744   3.774   9.508  0.00  0.00    +0.000 A 
ATOM     16  C   UNL     1      45.499   4.390   8.502  0.00  0.00    +0.000 A 
ATOM     17  C   UNL     1      46.309   3.621   7.673  0.00  0.00    +0.000 A 
ATOM     18  C   UNL     1      46.328   2.248   7.870  0.00  0.00    +0.000 A 
ATOM     19  N   UNL     1      45.565   1.603   8.800  0.00  0.00    +0.000 NA
ATOM     20  C   UNL     1      44.795   2.385   9.590  0.00  0.00    +0.000 A 
BRANCH  18  21
ATOM     21  C   UNL     1      47.270   1.400   7.076  0.00  0.00    +0.000 C 
ATOM     22  N   UNL     1      48.349   2.057   6.546  0.00  0.00    +0.000 N 
ATOM     23  O   UNL     1      47.086   0.205   6.881  0.00  0.00    +0.000 OA
ATOM     24  H   UNL     1      48.427   3.061   6.671  0.00  0.00    +0.000 HD
ATOM     25  H   UNL     1      48.970   1.566   5.922  0.00  0.00    +0.000 HD
ENDBRANCH  18  21
ENDBRANCH  14  15
ENDBRANCH   7  14
TORSDOF 5
ENDMDL
MODEL 4
REMARK VINA RESULT:    -6.735      2.893      6.398
REMARK INTER + INTRA:          -9.091
REMARK INTER:                  -8.545
REMARK INTRA:                  -0.546
REMARK UNBOUND:                -0.584
REMARK  Name = 
REMARK  5 active torsions:
REMARK  status: ('A' for Active; 'I' for Inactive)
REMARK    1  A    between atoms: N_1  and  C_2
REMARK    2  A    between atoms: C_2  and  C_3
REMARK    3  A    between atoms: N_9  and  C_10
REMARK    4  A    between atoms: C_10  and  C_11
REMARK    5  A    between atoms: C_14  and  C_15
REMARK                            x       y       z     vdW  Elec       q    Type
REMARK                         _______ _______ _______ _____ _____    ______ ____
ROOT
ATOM      1  C   UNL     1      45.766   3.484   8.114  0.00  0.00    +0.000 A 
ATOM      2  C   UNL     1      45.122   2.260   8.295  0.00  0.00    +0.000 A 
ATOM      3  N   UNL     1      44.333   1.922   9.340  0.00  0.00    +0.000 NA
ATOM      4  C   UNL     1      44.170   2.901  10.259  0.00  0.00    +0.000 A 
ATOM      5  C   UNL     1      43.430   2.935  11.455  0.00  0.00    +0.000 A 
ATOM      6  N   UNL     1      43.500   4.121  12.072  0.00  0.00    +0.000 NA
ATOM      7  N   UNL     1      44.315   4.847  11.265  0.00  0.00    +0.000 N 
ATOM      8  C   UNL     1      44.759   4.157  10.162  0.00  0.00    +0.000 A 
ATOM      9  C   UNL     1      45.592   4.479   9.087  0.00  0.00    +0.000 A 
ENDROOT
BRANCH   1  10
ATOM     10  C   UNL     1      46.601   3.740   6.889  0.00  0.00    +0.000 C 
BRANCH  10  11
ATOM     11  N   UNL     1      47.805   2.920   6.877  0.00  0.00    +0.000 NA
ATOM     12  H   UNL     1      48.461   3.296   6.195  0.00  0.00    +0.000 HD
ATOM     13  H   UNL     1      47.566   1.982   6.551  0.00  0.00    +0.000 HD
ENDBRANCH  10  11
ENDBRANCH   1  10
BRANCH   7  14
ATOM     14  C   UNL     1      44.554   6.252  11.581  0.00  0.00    +0.000 C 
BRANCH  14  15
ATOM     15  C   UNL     1      45.937   6.471  12.130  0.00  0.00    +0.000 A 
ATOM     16  C   UNL     1      46.706   7.579  11.751  0.00  0.00    +0.000 A 
ATOM     17  C   UNL     1      47.948   7.795  12.339  0.00  0.00    +0.000 A 
ATOM     18  C   UNL     1      48.391   6.882  13.285  0.00  0.00    +0.000 A 
ATOM     19  N   UNL     1      47.699   5.760  13.639  0.00  0.00    +0.000 NA
ATOM     20  C   UNL     1      46.495   5.587  13.050  0.00  0.00    +0.000 A 
BRANCH  18  21
ATOM     21  C   UNL     1      49.667   7.141  14.021  0.00  0.00    +0.000 C 
ATOM     22  N   UNL     1      50.605   7.866  13.336  0.00  0.00    +0.000 N 
ATOM     23  O   UNL     1      49.882   6.715  15.149  0.00  0.00    +0.000 OA
ATOM     24  H   UNL     1      50.415   8.140  12.377  0.00  0.00    +0.000 HD
ATOM     25  H   UNL     1      51.521   7.994  13.736  0.00  0.00    +0.000 HD
ENDBRANCH  18  21
ENDBRANCH  14  15
ENDBRANCH   7  14
TORSDOF 5
ENDMDL
MODEL 5
REMARK VINA RESULT:    -6.069      4.386      7.765
REMARK INTER + INTRA:          -8.249
REMARK INTER:                  -7.703
REMARK INTRA:                  -0.546
REMARK UNBOUND:                -0.584
REMARK  Name = 
REMARK  5 active torsions:
REMARK  status: ('A' for Active; 'I' for Inactive)
REMARK    1  A    between atoms: N_1  and  C_2
REMARK    2  A    between atoms: C_2  and  C_3
REMARK    3  A    between atoms: N_9  and  C_10
REMARK    4  A    between atoms: C_10  and  C_11
REMARK    5  A    between atoms: C_14  and  C_15
REMARK                            x       y       z     vdW  Elec       q    Type
REMARK                         _______ _______ _______ _____ _____    ______ ____
ROOT
ATOM      1  C   UNL     1      44.262   4.198  11.296  0.00  0.00    +0.000 A 
ATOM      2  C   UNL     1      43.378   5.235  10.998  0.00  0.00    +0.000 A 
ATOM      3  N   UNL     1      43.544   6.538  11.315  0.00  0.00    +0.000 NA
ATOM      4  C   UNL     1      44.698   6.815  11.966  0.00  0.00    +0.000 A 
ATOM      5  C   UNL     1      45.224   8.029  12.444  0.00  0.00    +0.000 A 
ATOM      6  N   UNL     1      46.428   7.883  13.010  0.00  0.00    +0.000 NA
ATOM      7  N   UNL     1      46.663   6.550  12.907  0.00  0.00    +0.000 N 
ATOM      8  C   UNL     1      45.647   5.854  12.297  0.00  0.00    +0.000 A 
ATOM      9  C   UNL     1      45.445   4.507  11.983  0.00  0.00    +0.000 A 
ENDROOT
BRANCH   1  10
ATOM     10  C   UNL     1      43.967   2.787  10.864  0.00  0.00    +0.000 C 
BRANCH  10  11
ATOM     11  N   UNL     1      43.009   2.142  11.752  0.00  0.00    +0.000 NA
ATOM     12  H   UNL     1      42.388   1.549  11.202  0.00  0.00    +0.000 HD
ATOM     13  H   UNL     1      42.414   2.855  12.176  0.00  0.00    +0.000 HD
ENDBRANCH  10  11
ENDBRANCH   1  10
BRANCH   7  14
ATOM     14  C   UNL     1      47.950   6.022  13.350  0.00  0.00    +0.000 C 
BRANCH  14  15
ATOM     15  C   UNL     1      47.930   5.656  14.809  0.00  0.00    +0.000 A 
ATOM     16  C   UNL     1      47.192   4.562  15.277  0.00  0.00    +0.000 A 
ATOM     17  C   UNL     1      47.260   4.202  16.619  0.00  0.00    +0.000 A 
ATOM     18  C   UNL     1      48.061   4.963  17.459  0.00  0.00    +0.000 A 
ATOM     19  N   UNL     1      48.749   6.070  17.055  0.00  0.00    +0.000 NA
ATOM     20  C   UNL     1      48.662   6.385  15.743  0.00  0.00    +0.000 A 
BRANCH  18  21
ATOM     21  C   UNL     1      48.249   4.541  18.881  0.00  0.00    +0.000 C 
ATOM     22  N   UNL     1      48.477   3.205  19.074  0.00  0.00    +0.000 N 
ATOM     23  O   UNL     1      48.179   5.323  19.822  0.00  0.00    +0.000 OA
ATOM     24  H   UNL     1      48.458   2.580  18.275  0.00  0.00    +0.000 HD
ATOM     25  H   UNL     1      48.518   2.840  20.013  0.00  0.00    +0.000 HD
ENDBRANCH  18  21
ENDBRANCH  14  15
ENDBRANCH   7  14
TORSDOF 5
ENDMDL
MODEL 6
REMARK VINA RESULT:    -5.986      5.073      7.709
REMARK INTER + INTRA:          -8.144
REMARK INTER:                  -7.532
REMARK INTRA:                  -0.613
REMARK UNBOUND:                -0.584
REMARK  Name = 
REMARK  5 active torsions:
REMARK  status: ('A' for Active; 'I' for Inactive)
REMARK    1  A    between atoms: N_1  and  C_2
REMARK    2  A    between atoms: C_2  and  C_3
REMARK    3  A    between atoms: N_9  and  C_10
REMARK    4  A    between atoms: C_10  and  C_11
REMARK    5  A    between atoms: C_14  and  C_15
REMARK                            x       y       z     vdW  Elec       q    Type
REMARK                         _______ _______ _______ _____ _____    ______ ____
ROOT
ATOM      1  C   UNL     1      49.024   7.546  13.801  0.00  0.00    +0.000 A 
ATOM      2  C   UNL     1      48.380   7.512  12.564  0.00  0.00    +0.000 A 
ATOM      3  N   UNL     1      47.424   6.633  12.189  0.00  0.00    +0.000 NA
ATOM      4  C   UNL     1      47.083   5.734  13.141  0.00  0.00    +0.000 A 
ATOM      5  C   UNL     1      46.142   4.689  13.133  0.00  0.00    +0.000 A 
ATOM      6  N   UNL     1      46.080   4.040  14.302  0.00  0.00    +0.000 NA
ATOM      7  N   UNL     1      47.013   4.672  15.060  0.00  0.00    +0.000 N 
ATOM      8  C   UNL     1      47.658   5.694  14.406  0.00  0.00    +0.000 A 
ATOM      9  C   UNL     1      48.663   6.596  14.767  0.00  0.00    +0.000 A 
ENDROOT
BRANCH   1  10
ATOM     10  C   UNL     1      50.059   8.596  14.100  0.00  0.00    +0.000 C 
BRANCH  10  11
ATOM     11  N   UNL     1      51.412   8.086  13.917  0.00  0.00    +0.000 NA
ATOM     12  H   UNL     1      52.008   8.835  13.567  0.00  0.00    +0.000 HD
ATOM     13  H   UNL     1      51.403   7.370  13.189  0.00  0.00    +0.000 HD
ENDBRANCH  10  11
ENDBRANCH   1  10
BRANCH   7  14
ATOM     14  C   UNL     1      47.168   4.285  16.459  0.00  0.00    +0.000 C 
BRANCH  14  15
ATOM     15  C   UNL     1      48.474   3.577  16.699  0.00  0.00    +0.000 A 
ATOM     16  C   UNL     1      49.513   4.186  17.415  0.00  0.00    +0.000 A 
ATOM     17  C   UNL     1      50.676   3.475  17.689  0.00  0.00    +0.000 A 
ATOM     18  C   UNL     1      50.769   2.171  17.224  0.00  0.00    +0.000 A 
ATOM     19  N   UNL     1      49.805   1.561  16.475  0.00  0.00    +0.000 NA
ATOM     20  C   UNL     1      48.688   2.283  16.233  0.00  0.00    +0.000 A 
BRANCH  18  21
ATOM     21  C   UNL     1      51.954   1.337  17.595  0.00  0.00    +0.000 C 
ATOM     22  N   UNL     1      51.666   0.112  18.133  0.00  0.00    +0.000 N 
ATOM     23  O   UNL     1      53.109   1.724  17.458  0.00  0.00    +0.000 OA
ATOM     24  H   UNL     1      50.697  -0.142  18.294  0.00  0.00    +0.000 HD
ATOM     25  H   UNL     1      52.415  -0.460  18.492  0.00  0.00    +0.000 HD
ENDBRANCH  18  21
ENDBRANCH  14  15
ENDBRANCH   7  14
TORSDOF 5
ENDMDL
MODEL 7
REMARK VINA RESULT:    -5.852      4.265      6.504
REMARK INTER + INTRA:          -7.975
REMARK INTER:                  -7.403
REMARK INTRA:                  -0.572
REMARK UNBOUND:                -0.584
REMARK  Name = 
REMARK  5 active torsions:
REMARK  status: ('A' for Active; 'I' for Inactive)
REMARK    1  A    between atoms: N_1  and  C_2
REMARK    2  A    between atoms: C_2  and  C_3
REMARK    3  A    between atoms: N_9  and  C_10
REMARK    4  A    between atoms: C_10  and  C_11
REMARK    5  A    between atoms: C_14  and  C_15
REMARK                            x       y       z     vdW  Elec       q    Type
REMARK                         _______ _______ _______ _____ _____    ______ ____
ROOT
ATOM      1  C   UNL     1      48.233   4.838  17.693  0.00  0.00    +0.000 A 
ATOM      2  C   UNL     1      48.329   5.947  18.535  0.00  0.00    +0.000 A 
ATOM      3  N   UNL     1      48.511   7.229  18.145  0.00  0.00    +0.000 NA
ATOM      4  C   UNL     1      48.584   7.403  16.805  0.00  0.00    +0.000 A 
ATOM      5  C   UNL     1      48.754   8.565  16.030  0.00  0.00    +0.000 A 
ATOM      6  N   UNL     1      48.738   8.315  14.715  0.00  0.00    +0.000 NA
ATOM      7  N   UNL     1      48.574   6.969  14.654  0.00  0.00    +0.000 N 
ATOM      8  C   UNL     1      48.487   6.365  15.885  0.00  0.00    +0.000 A 
ATOM      9  C   UNL     1      48.324   5.043  16.309  0.00  0.00    +0.000 A 
ENDROOT
BRANCH   1  10
ATOM     10  C   UNL     1      48.007   3.462  18.257  0.00  0.00    +0.000 C 
BRANCH  10  11
ATOM     11  N   UNL     1      46.798   2.852  17.720  0.00  0.00    +0.000 NA
ATOM     12  H   UNL     1      46.018   3.046  18.346  0.00  0.00    +0.000 HD
ATOM     13  H   UNL     1      46.910   1.837  17.715  0.00  0.00    +0.000 HD
ENDBRANCH  10  11
ENDBRANCH   1  10
BRANCH   7  14
ATOM     14  C   UNL     1      48.420   6.334  13.349  0.00  0.00    +0.000 C 
BRANCH  14  15
ATOM     15  C   UNL     1      46.973   6.098  13.012  0.00  0.00    +0.000 A 
ATOM     16  C   UNL     1      46.180   7.107  12.450  0.00  0.00    +0.000 A 
ATOM     17  C   UNL     1      44.869   6.831  12.076  0.00  0.00    +0.000 A 
ATOM     18  C   UNL     1      44.385   5.549  12.289  0.00  0.00    +0.000 A 
ATOM     19  N   UNL     1      45.105   4.554  12.885  0.00  0.00    +0.000 NA
ATOM     20  C   UNL     1      46.376   4.859  13.230  0.00  0.00    +0.000 A 
BRANCH  18  21
ATOM     21  C   UNL     1      43.021   5.183  11.797  0.00  0.00    +0.000 C 
ATOM     22  N   UNL     1      42.105   6.201  11.788  0.00  0.00    +0.000 N 
ATOM     23  O   UNL     1      42.722   4.047  11.449  0.00  0.00    +0.000 OA
ATOM     24  H   UNL     1      42.374   7.111  12.150  0.00  0.00    +0.000 HD
ATOM     25  H   UNL     1      41.144   6.001  11.559  0.00  0.00    +0.000 HD
ENDBRANCH  18  21
ENDBRANCH  14  15
ENDBRANCH   7  14
TORSDOF 5
ENDMDL
MODEL 8
REMARK VINA RESULT:    -5.543      5.111      8.502
REMARK INTER + INTRA:          -7.585
REMARK INTER:                  -7.398
REMARK INTRA:                  -0.186
REMARK UNBOUND:                -0.584
REMARK  Name = 
REMARK  5 active torsions:
REMARK  status: ('A' for Active; 'I' for Inactive)
REMARK    1  A    between atoms: N_1  and  C_2
REMARK    2  A    between atoms: C_2  and  C_3
REMARK    3  A    between atoms: N_9  and  C_10
REMARK    4  A    between atoms: C_10  and  C_11
REMARK    5  A    between atoms: C_14  and  C_15
REMARK                            x       y       z     vdW  Elec       q    Type
REMARK                         _______ _______ _______ _____ _____    ______ ____
ROOT
ATOM      1  C   UNL     1      44.921   4.618  11.464  0.00  0.00    +0.000 A 
ATOM      2  C   UNL     1      45.461   5.799  10.953  0.00  0.00    +0.000 A 
ATOM      3  N   UNL     1      46.419   6.554  11.536  0.00  0.00    +0.000 NA
ATOM      4  C   UNL     1      46.877   6.068  12.713  0.00  0.00    +0.000 A 
ATOM      5  C   UNL     1      47.859   6.553  13.596  0.00  0.00    +0.000 A 
ATOM      6  N   UNL     1      48.046   5.751  14.651  0.00  0.00    +0.000 NA
ATOM      7  N   UNL     1      47.154   4.749  14.446  0.00  0.00    +0.000 N 
ATOM      8  C   UNL     1      46.413   4.895  13.297  0.00  0.00    +0.000 A 
ATOM      9  C   UNL     1      45.403   4.141  12.691  0.00  0.00    +0.000 A 
ENDROOT
BRANCH   1  10
ATOM     10  C   UNL     1      43.871   3.859  10.700  0.00  0.00    +0.000 C 
BRANCH  10  11
ATOM     11  N   UNL     1      43.022   3.074  11.587  0.00  0.00    +0.000 NA
ATOM     12  H   UNL     1      43.325   3.212  12.550  0.00  0.00    +0.000 HD
ATOM     13  H   UNL     1      43.159   2.082  11.388  0.00  0.00    +0.000 HD
ENDBRANCH  10  11
ENDBRANCH   1  10
BRANCH   7  14
ATOM     14  C   UNL     1      47.134   3.620  15.370  0.00  0.00    +0.000 C 
BRANCH  14  15
ATOM     15  C   UNL     1      47.761   3.969  16.691  0.00  0.00    +0.000 A 
ATOM     16  C   UNL     1      49.034   3.501  17.041  0.00  0.00    +0.000 A 
ATOM     17  C   UNL     1      49.618   3.909  18.236  0.00  0.00    +0.000 A 
ATOM     18  C   UNL     1      48.900   4.767  19.055  0.00  0.00    +0.000 A 
ATOM     19  N   UNL     1      47.635   5.199  18.779  0.00  0.00    +0.000 NA
ATOM     20  C   UNL     1      47.103   4.786  17.607  0.00  0.00    +0.000 A 
BRANCH  18  21
ATOM     21  C   UNL     1      49.538   5.317  20.291  0.00  0.00    +0.000 C 
ATOM     22  N   UNL     1      50.229   4.410  21.050  0.00  0.00    +0.000 N 
ATOM     23  O   UNL     1      49.435   6.491  20.627  0.00  0.00    +0.000 OA
ATOM     24  H   UNL     1      50.231   3.434  20.773  0.00  0.00    +0.000 HD
ATOM     25  H   UNL     1      50.602   4.694  21.943  0.00  0.00    +0.000 HD
ENDBRANCH  18  21
ENDBRANCH  14  15
ENDBRANCH   7  14
TORSDOF 5
ENDMDL
MODEL 9
REMARK VINA RESULT:    -5.481      3.962      6.595
REMARK INTER + INTRA:          -7.506
REMARK INTER:                  -6.977
REMARK INTRA:                  -0.529
REMARK UNBOUND:                -0.584
REMARK  Name = 
REMARK  5 active torsions:
REMARK  status: ('A' for Active; 'I' for Inactive)
REMARK    1  A    between atoms: N_1  and  C_2
REMARK    2  A    between atoms: C_2  and  C_3
REMARK    3  A    between atoms: N_9  and  C_10
REMARK    4  A    between atoms: C_10  and  C_11
REMARK    5  A    between atoms: C_14  and  C_15
REMARK                            x       y       z     vdW  Elec       q    Type
REMARK                         _______ _______ _______ _____ _____    ______ ____
ROOT
ATOM      1  C   UNL     1      44.933   4.476  11.097  0.00  0.00    +0.000 A 
ATOM      2  C   UNL     1      44.951   3.264  11.788  0.00  0.00    +0.000 A 
ATOM      3  N   UNL     1      45.643   3.004  12.920  0.00  0.00    +0.000 NA
ATOM      4  C   UNL     1      46.355   4.051  13.396  0.00  0.00    +0.000 A 
ATOM      5  C   UNL     1      47.176   4.173  14.531  0.00  0.00    +0.000 A 
ATOM      6  N   UNL     1      47.682   5.405  14.673  0.00  0.00    +0.000 NA
ATOM      7  N   UNL     1      47.189   6.071  13.598  0.00  0.00    +0.000 N 
ATOM      8  C   UNL     1      46.392   5.300  12.786  0.00  0.00    +0.000 A 
ATOM      9  C   UNL     1      45.689   5.543  11.603  0.00  0.00    +0.000 A 
ENDROOT
BRANCH   1  10
ATOM     10  C   UNL     1      44.099   4.641   9.856  0.00  0.00    +0.000 C 
BRANCH  10  11
ATOM     11  N   UNL     1      44.921   4.671   8.654  0.00  0.00    +0.000 NA
ATOM     12  H   UNL     1      45.825   5.085   8.876  0.00  0.00    +0.000 HD
ATOM     13  H   UNL     1      44.488   5.291   7.968  0.00  0.00    +0.000 HD
ENDBRANCH  10  11
ENDBRANCH   1  10
BRANCH   7  14
ATOM     14  C   UNL     1      47.463   7.498  13.464  0.00  0.00    +0.000 C 
BRANCH  14  15
ATOM     15  C   UNL     1      48.871   7.755  13.001  0.00  0.00    +0.000 A 
ATOM     16  C   UNL     1      49.225   7.654  11.650  0.00  0.00    +0.000 A 
ATOM     17  C   UNL     1      50.516   7.976  11.245  0.00  0.00    +0.000 A 
ATOM     18  C   UNL     1      51.423   8.378  12.214  0.00  0.00    +0.000 A 
ATOM     19  N   UNL     1      51.136   8.433  13.547  0.00  0.00    +0.000 NA
ATOM     20  C   UNL     1      49.870   8.118  13.901  0.00  0.00    +0.000 A 
BRANCH  18  21
ATOM     21  C   UNL     1      52.785   8.841  11.805  0.00  0.00    +0.000 C 
ATOM     22  N   UNL     1      53.146  10.082  12.257  0.00  0.00    +0.000 N 
ATOM     23  O   UNL     1      53.527   8.176  11.092  0.00  0.00    +0.000 OA
ATOM     24  H   UNL     1      52.475  10.630  12.787  0.00  0.00    +0.000 HD
ATOM     25  H   UNL     1      54.010  10.493  11.939  0.00  0.00    +0.000 HD
ENDBRANCH  18  21
ENDBRANCH  14  15
ENDBRANCH   7  14
TORSDOF 5
ENDMDL
