MODEL 1
REMARK VINA RESULT:    -8.039      0.000      0.000
REMARK INTER + INTRA:         -10.707
REMARK INTER:                 -10.389
REMARK INTRA:                  -0.318
REMARK UNBOUND:                -0.318
REMARK  Name = 
REMARK  7 active torsions:
REMARK  status: ('A' for Active; 'I' for Inactive)
REMARK    1  A    between atoms: C_1  and  N_2
REMARK    2  A    between atoms: N_2  and  C_3
REMARK    3  A    between atoms: C_4  and  C_6
REMARK    4  A    between atoms: N_10  and  C_11
REMARK    5  A    between atoms: C_11  and  C_12
REMARK    6  A    between atoms: C_15  and  O_16
REMARK    7  A    between atoms: O_16  and  C_17
REMARK                            x       y       z     vdW  Elec       q    Type
REMARK                         _______ _______ _______ _____ _____    ______ ____
ROOT
ATOM      1  C   UNL     1      44.276   4.716  11.683  0.00  0.00    +0.000 C 
ATOM      2  C   UNL     1      42.757   4.823  11.814  0.00  0.00    +0.000 C 
ATOM      3  C   UNL     1      43.485   3.712  12.498  0.00  0.00    +0.000 C 
ENDROOT
BRANCH   1   8
ATOM      4  C   UNL     1      47.938   5.443  15.207  0.00  0.00    +0.000 A 
ATOM      5  C   UNL     1      48.020   6.314  14.151  0.00  0.00    +0.000 A 
ATOM      6  N   UNL     1      47.084   6.413  13.182  0.00  0.00    +0.000 NA
ATOM      7  C   UNL     1      46.049   5.560  13.236  0.00  0.00    +0.000 A 
ATOM      8  N   UNL     1      45.044   5.803  12.300  0.00  0.00    +0.000 N 
ATOM      9  N   UNL     1      45.936   4.592  14.160  0.00  0.00    +0.000 NA
ATOM     10  C   UNL     1      46.889   4.554  15.130  0.00  0.00    +0.000 A 
ATOM     11  H   UNL     1      45.430   6.499  11.670  0.00  0.00    +0.000 HD
BRANCH   4  15
ATOM     12  C   UNL     1      50.190   6.367  18.130  0.00  0.00    +0.000 C 
ATOM     13  N   UNL     1      49.293   6.550  16.999  0.00  0.00    +0.000 N 
ATOM     14  C   UNL     1      48.638   7.849  16.890  0.00  0.00    +0.000 C 
ATOM     15  C   UNL     1      48.900   5.386  16.323  0.00  0.00    +0.000 C 
ATOM     16  O   UNL     1      49.306   4.271  16.644  0.00  0.00    +0.000 OA
ENDBRANCH   4  15
ENDBRANCH   1   8
BRANCH   1  17
ATOM     17  C   UNL     1      44.847   4.241  10.351  0.00  0.00    +0.000 A 
ATOM     18  C   UNL     1      44.697   2.908   9.935  0.00  0.00    +0.000 A 
ATOM     19  C   UNL     1      45.138   2.476   8.679  0.00  0.00    +0.000 A 
ATOM     20  C   UNL     1      45.713   3.383   7.794  0.00  0.00    +0.000 A 
ATOM     21  C   UNL     1      45.958   4.687   8.224  0.00  0.00    +0.000 A 
ATOM     22  C   UNL     1      45.535   5.108   9.487  0.00  0.00    +0.000 A 
BRANCH  20  23
ATOM     23  O   UNL     1      46.119   3.107   6.526  0.00  0.00    +0.000 OA
BRANCH  23  24
ATOM     24  C   UNL     1      47.263   2.283   6.336  0.00  0.00    +0.000 C 
ATOM     25  F   UNL     1      48.241   2.462   7.249  0.00  0.00    +0.000 F 
ATOM     26  F   UNL     1      46.876   0.989   6.397  0.00  0.00    +0.000 F 
ATOM     27  F   UNL     1      47.772   2.510   5.105  0.00  0.00    +0.000 F 
ENDBRANCH  23  24
ENDBRANCH  20  23
ENDBRANCH   1  17
TORSDOF 5
ENDMDL
MODEL 2
REMARK VINA RESULT:    -7.608      2.035      2.429
REMARK INTER + INTRA:         -10.149
REMARK INTER:                  -9.698
REMARK INTRA:                  -0.452
REMARK UNBOUND:                -0.318
REMARK  Name = 
REMARK  7 active torsions:
REMARK  status: ('A' for Active; 'I' for Inactive)
REMARK    1  A    between atoms: C_1  and  N_2
REMARK    2  A    between atoms: N_2  and  C_3
REMARK    3  A    between atoms: C_4  and  C_6
REMARK    4  A    between atoms: N_10  and  C_11
REMARK    5  A    between atoms: C_11  and  C_12
REMARK    6  A    between atoms: C_15  and  O_16
REMARK    7  A    between atoms: O_16  and  C_17
REMARK                            x       y       z     vdW  Elec       q    Type
REMARK                         _______ _______ _______ _____ _____    ______ ____
ROOT
ATOM      1  C   UNL     1      44.363   4.348  11.450  0.00  0.00    +0.000 C 
ATOM      2  C   UNL     1      42.964   3.823  11.773  0.00  0.00    +0.000 C 
ATOM      3  C   UNL     1      44.154   3.242  12.466  0.00  0.00    +0.000 C 
ENDROOT
BRANCH   1   8
ATOM      4  C   UNL     1      48.219   7.327  13.068  0.00  0.00    +0.000 A 
ATOM      5  C   UNL     1      47.335   7.980  12.248  0.00  0.00    +0.000 A 
ATOM      6  N   UNL     1      46.168   7.448  11.823  0.00  0.00    +0.000 NA
ATOM      7  C   UNL     1      45.901   6.184  12.182  0.00  0.00    +0.000 A 
ATOM      8  N   UNL     1      44.624   5.738  11.841  0.00  0.00    +0.000 N 
ATOM      9  N   UNL     1      46.754   5.418  12.882  0.00  0.00    +0.000 NA
ATOM     10  C   UNL     1      47.901   6.009  13.311  0.00  0.00    +0.000 A 
ATOM     11  H   UNL     1      44.245   6.457  11.233  0.00  0.00    +0.000 HD
BRANCH   4  15
ATOM     12  C   UNL     1      51.747   8.692  13.465  0.00  0.00    +0.000 C 
ATOM     13  N   UNL     1      50.615   8.019  12.845  0.00  0.00    +0.000 N 
ATOM     14  C   UNL     1      50.687   7.818  11.402  0.00  0.00    +0.000 C 
ATOM     15  C   UNL     1      49.450   7.924  13.618  0.00  0.00    +0.000 C 
ATOM     16  O   UNL     1      49.385   8.358  14.767  0.00  0.00    +0.000 OA
ENDBRANCH   4  15
ENDBRANCH   1   8
BRANCH   1  17
ATOM     17  C   UNL     1      44.981   3.960  10.111  0.00  0.00    +0.000 A 
ATOM     18  C   UNL     1      45.021   2.619   9.695  0.00  0.00    +0.000 A 
ATOM     19  C   UNL     1      45.505   2.255   8.434  0.00  0.00    +0.000 A 
ATOM     20  C   UNL     1      45.931   3.236   7.543  0.00  0.00    +0.000 A 
ATOM     21  C   UNL     1      45.988   4.562   7.971  0.00  0.00    +0.000 A 
ATOM     22  C   UNL     1      45.524   4.918   9.240  0.00  0.00    +0.000 A 
BRANCH  20  23
ATOM     23  O   UNL     1      46.357   3.021   6.270  0.00  0.00    +0.000 OA
BRANCH  23  24
ATOM     24  C   UNL     1      47.569   2.305   6.063  0.00  0.00    +0.000 C 
ATOM     25  F   UNL     1      48.582   2.672   6.877  0.00  0.00    +0.000 F 
ATOM     26  F   UNL     1      47.332   0.990   6.271  0.00  0.00    +0.000 F 
ATOM     27  F   UNL     1      47.962   2.462   4.781  0.00  0.00    +0.000 F 
ENDBRANCH  23  24
ENDBRANCH  20  23
ENDBRANCH   1  17
TORSDOF 5
ENDMDL
MODEL 3
REMARK VINA RESULT:    -6.877      1.241      2.115
REMARK INTER + INTRA:          -9.205
REMARK INTER:                 -10.374
REMARK INTRA:                   1.169
REMARK UNBOUND:                -0.318
REMARK  Name = 
REMARK  7 active torsions:
REMARK  status: ('A' for Active; 'I' for Inactive)
REMARK    1  A    between atoms: C_1  and  N_2
REMARK    2  A    between atoms: N_2  and  C_3
REMARK    3  A    between atoms: C_4  and  C_6
REMARK    4  A    between atoms: N_10  and  C_11
REMARK    5  A    between atoms: C_11  and  C_12
REMARK    6  A    between atoms: C_15  and  O_16
REMARK    7  A    between atoms: O_16  and  C_17
REMARK                            x       y       z     vdW  Elec       q    Type
REMARK                         _______ _______ _______ _____ _____    ______ ____
ROOT
ATOM      1  C   UNL     1      44.662   4.660  12.447  0.00  0.00    +0.000 C 
ATOM      2  C   UNL     1      44.386   6.106  12.858  0.00  0.00    +0.000 C 
ATOM      3  C   UNL     1      43.292   5.091  12.933  0.00  0.00    +0.000 C 
ENDROOT
BRANCH   1   8
ATOM      4  C   UNL     1      48.381   5.544  15.874  0.00  0.00    +0.000 A 
ATOM      5  C   UNL     1      47.638   4.427  16.155  0.00  0.00    +0.000 A 
ATOM      6  N   UNL     1      46.707   3.912  15.321  0.00  0.00    +0.000 NA
ATOM      7  C   UNL     1      46.464   4.578  14.183  0.00  0.00    +0.000 A 
ATOM      8  N   UNL     1      45.606   3.927  13.298  0.00  0.00    +0.000 N 
ATOM      9  N   UNL     1      47.051   5.746  13.870  0.00  0.00    +0.000 NA
ATOM     10  C   UNL     1      48.001   6.206  14.727  0.00  0.00    +0.000 A 
ATOM     11  H   UNL     1      45.228   3.144  13.822  0.00  0.00    +0.000 HD
BRANCH   4  15
ATOM     12  C   UNL     1      51.356   5.820  18.227  0.00  0.00    +0.000 C 
ATOM     13  N   UNL     1      50.272   5.202  17.479  0.00  0.00    +0.000 N 
ATOM     14  C   UNL     1      50.336   3.753  17.316  0.00  0.00    +0.000 C 
ATOM     15  C   UNL     1      49.464   6.066  16.727  0.00  0.00    +0.000 C 
ATOM     16  O   UNL     1      49.638   7.283  16.714  0.00  0.00    +0.000 OA
ENDBRANCH   4  15
ENDBRANCH   1   8
BRANCH   1  17
ATOM     17  C   UNL     1      44.813   4.357  10.960  0.00  0.00    +0.000 A 
ATOM     18  C   UNL     1      45.470   5.254  10.102  0.00  0.00    +0.000 A 
ATOM     19  C   UNL     1      45.694   4.953   8.754  0.00  0.00    +0.000 A 
ATOM     20  C   UNL     1      45.291   3.723   8.241  0.00  0.00    +0.000 A 
ATOM     21  C   UNL     1      44.554   2.859   9.050  0.00  0.00    +0.000 A 
ATOM     22  C   UNL     1      44.314   3.174  10.390  0.00  0.00    +0.000 A 
BRANCH  20  23
ATOM     23  O   UNL     1      45.508   3.282   6.973  0.00  0.00    +0.000 OA
BRANCH  23  24
ATOM     24  C   UNL     1      46.733   2.623   6.676  0.00  0.00    +0.000 C 
ATOM     25  F   UNL     1      46.730   1.296   6.924  0.00  0.00    +0.000 F 
ATOM     26  F   UNL     1      47.006   2.794   5.362  0.00  0.00    +0.000 F 
ATOM     27  F   UNL     1      47.727   3.196   7.388  0.00  0.00    +0.000 F 
ENDBRANCH  23  24
ENDBRANCH  20  23
ENDBRANCH   1  17
TORSDOF 5
ENDMDL
MODEL 4
REMARK VINA RESULT:    -6.729      2.699      3.482
REMARK INTER + INTRA:          -9.014
REMARK INTER:                  -8.896
REMARK INTRA:                  -0.118
REMARK UNBOUND:                -0.318
REMARK  Name = 
REMARK  7 active torsions:
REMARK  status: ('A' for Active; 'I' for Inactive)
REMARK    1  A    between atoms: C_1  and  N_2
REMARK    2  A    between atoms: N_2  and  C_3
REMARK    3  A    between atoms: C_4  and  C_6
REMARK    4  A    between atoms: N_10  and  C_11
REMARK    5  A    between atoms: C_11  and  C_12
REMARK    6  A    between atoms: C_15  and  O_16
REMARK    7  A    between atoms: O_16  and  C_17
REMARK                            x       y       z     vdW  Elec       q    Type
REMARK                         _______ _______ _______ _____ _____    ______ ____
ROOT
ATOM      1  C   UNL     1      45.251   5.113  12.264  0.00  0.00    +0.000 C 
ATOM      2  C   UNL     1      44.166   4.560  13.190  0.00  0.00    +0.000 C 
ATOM      3  C   UNL     1      45.573   4.072  13.319  0.00  0.00    +0.000 C 
ENDROOT
BRANCH   1   8
ATOM      4  C   UNL     1      49.318   8.227  12.604  0.00  0.00    +0.000 A 
ATOM      5  C   UNL     1      48.251   8.796  11.957  0.00  0.00    +0.000 A 
ATOM      6  N   UNL     1      47.028   8.228  11.879  0.00  0.00    +0.000 NA
ATOM      7  C   UNL     1      46.880   7.008  12.417  0.00  0.00    +0.000 A 
ATOM      8  N   UNL     1      45.568   6.535  12.438  0.00  0.00    +0.000 N 
ATOM      9  N   UNL     1      47.891   6.315  12.968  0.00  0.00    +0.000 NA
ATOM     10  C   UNL     1      49.094   6.943  13.049  0.00  0.00    +0.000 A 
ATOM     11  H   UNL     1      45.041   7.189  11.868  0.00  0.00    +0.000 HD
BRANCH   4  15
ATOM     12  C   UNL     1      52.943   9.294  12.175  0.00  0.00    +0.000 C 
ATOM     13  N   UNL     1      51.717   8.542  11.958  0.00  0.00    +0.000 N 
ATOM     14  C   UNL     1      51.631   7.779  10.718  0.00  0.00    +0.000 C 
ATOM     15  C   UNL     1      50.631   8.873  12.781  0.00  0.00    +0.000 C 
ATOM     16  O   UNL     1      50.709   9.731  13.659  0.00  0.00    +0.000 OA
ENDBRANCH   4  15
ENDBRANCH   1   8
BRANCH   1  17
ATOM     17  C   UNL     1      45.249   4.658  10.809  0.00  0.00    +0.000 A 
ATOM     18  C   UNL     1      45.789   5.469   9.797  0.00  0.00    +0.000 A 
ATOM     19  C   UNL     1      45.874   5.031   8.471  0.00  0.00    +0.000 A 
ATOM     20  C   UNL     1      45.447   3.750   8.134  0.00  0.00    +0.000 A 
ATOM     21  C   UNL     1      44.822   2.966   9.102  0.00  0.00    +0.000 A 
ATOM     22  C   UNL     1      44.719   3.416  10.421  0.00  0.00    +0.000 A 
BRANCH  20  23
ATOM     23  O   UNL     1      45.538   3.181   6.901  0.00  0.00    +0.000 OA
BRANCH  23  24
ATOM     24  C   UNL     1      46.803   2.711   6.454  0.00  0.00    +0.000 C 
ATOM     25  F   UNL     1      47.132   3.090   5.200  0.00  0.00    +0.000 F 
ATOM     26  F   UNL     1      47.757   3.184   7.288  0.00  0.00    +0.000 F 
ATOM     27  F   UNL     1      46.822   1.362   6.519  0.00  0.00    +0.000 F 
ENDBRANCH  23  24
ENDBRANCH  20  23
ENDBRANCH   1  17
TORSDOF 5
ENDMDL
MODEL 5
REMARK VINA RESULT:    -6.228      3.743      5.266
REMARK INTER + INTRA:          -8.366
REMARK INTER:                  -7.502
REMARK INTRA:                  -0.864
REMARK UNBOUND:                -0.318
REMARK  Name = 
REMARK  7 active torsions:
REMARK  status: ('A' for Active; 'I' for Inactive)
REMARK    1  A    between atoms: C_1  and  N_2
REMARK    2  A    between atoms: N_2  and  C_3
REMARK    3  A    between atoms: C_4  and  C_6
REMARK    4  A    between atoms: N_10  and  C_11
REMARK    5  A    between atoms: C_11  and  C_12
REMARK    6  A    between atoms: C_15  and  O_16
REMARK    7  A    between atoms: O_16  and  C_17
REMARK                            x       y       z     vdW  Elec       q    Type
REMARK                         _______ _______ _______ _____ _____    ______ ____
ROOT
ATOM      1  C   UNL     1      48.484   7.339  12.801  0.00  0.00    +0.000 C 
ATOM      2  C   UNL     1      48.893   7.761  11.389  0.00  0.00    +0.000 C 
ATOM      3  C   UNL     1      48.203   8.738  12.286  0.00  0.00    +0.000 C 
ENDROOT
BRANCH   1   8
ATOM      4  C   UNL     1      49.660   7.691  17.786  0.00  0.00    +0.000 A 
ATOM      5  C   UNL     1      50.194   6.583  17.180  0.00  0.00    +0.000 A 
ATOM      6  N   UNL     1      50.146   6.358  15.848  0.00  0.00    +0.000 NA
ATOM      7  C   UNL     1      49.481   7.248  15.096  0.00  0.00    +0.000 A 
ATOM      8  N   UNL     1      49.589   7.046  13.720  0.00  0.00    +0.000 N 
ATOM      9  N   UNL     1      48.823   8.302  15.606  0.00  0.00    +0.000 NA
ATOM     10  C   UNL     1      48.927   8.501  16.948  0.00  0.00    +0.000 A 
ATOM     11  H   UNL     1      50.032   6.138  13.619  0.00  0.00    +0.000 HD
BRANCH   4  15
ATOM     12  C   UNL     1      50.876   9.012  21.139  0.00  0.00    +0.000 C 
ATOM     13  N   UNL     1      50.894   8.698  19.718  0.00  0.00    +0.000 N 
ATOM     14  C   UNL     1      51.871   9.414  18.905  0.00  0.00    +0.000 C 
ATOM     15  C   UNL     1      49.784   8.001  19.222  0.00  0.00    +0.000 C 
ATOM     16  O   UNL     1      48.854   7.646  19.945  0.00  0.00    +0.000 OA
ENDBRANCH   4  15
ENDBRANCH   1   8
BRANCH   1  17
ATOM     17  C   UNL     1      47.295   6.397  12.950  0.00  0.00    +0.000 A 
ATOM     18  C   UNL     1      45.980   6.857  12.765  0.00  0.00    +0.000 A 
ATOM     19  C   UNL     1      44.884   5.989  12.812  0.00  0.00    +0.000 A 
ATOM     20  C   UNL     1      45.085   4.627  13.013  0.00  0.00    +0.000 A 
ATOM     21  C   UNL     1      46.370   4.165  13.293  0.00  0.00    +0.000 A 
ATOM     22  C   UNL     1      47.459   5.039  13.267  0.00  0.00    +0.000 A 
BRANCH  20  23
ATOM     23  O   UNL     1      44.115   3.672  13.012  0.00  0.00    +0.000 OA
BRANCH  23  24
ATOM     24  C   UNL     1      43.591   3.228  11.767  0.00  0.00    +0.000 C 
ATOM     25  F   UNL     1      43.024   2.003  11.802  0.00  0.00    +0.000 F 
ATOM     26  F   UNL     1      42.646   4.106  11.361  0.00  0.00    +0.000 F 
ATOM     27  F   UNL     1      44.580   3.223  10.848  0.00  0.00    +0.000 F 
ENDBRANCH  23  24
ENDBRANCH  20  23
ENDBRANCH   1  17
TORSDOF 5
ENDMDL
MODEL 6
REMARK VINA RESULT:    -6.143      4.095      5.572
REMARK INTER + INTRA:          -8.257
REMARK INTER:                  -7.272
REMARK INTRA:                  -0.985
REMARK UNBOUND:                -0.318
REMARK  Name = 
REMARK  7 active torsions:
REMARK  status: ('A' for Active; 'I' for Inactive)
REMARK    1  A    between atoms: C_1  and  N_2
REMARK    2  A    between atoms: N_2  and  C_3
REMARK    3  A    between atoms: C_4  and  C_6
REMARK    4  A    between atoms: N_10  and  C_11
REMARK    5  A    between atoms: C_11  and  C_12
REMARK    6  A    between atoms: C_15  and  O_16
REMARK    7  A    between atoms: O_16  and  C_17
REMARK                            x       y       z     vdW  Elec       q    Type
REMARK                         _______ _______ _______ _____ _____    ______ ____
ROOT
ATOM      1  C   UNL     1      48.470   8.846  12.719  0.00  0.00    +0.000 C 
ATOM      2  C   UNL     1      49.064   9.758  11.646  0.00  0.00    +0.000 C 
ATOM      3  C   UNL     1      48.325  10.353  12.800  0.00  0.00    +0.000 C 
ENDROOT
BRANCH   1   8
ATOM      4  C   UNL     1      49.091   7.101  17.508  0.00  0.00    +0.000 A 
ATOM      5  C   UNL     1      49.617   6.268  16.554  0.00  0.00    +0.000 A 
ATOM      6  N   UNL     1      49.707   6.586  15.244  0.00  0.00    +0.000 NA
ATOM      7  C   UNL     1      49.191   7.763  14.858  0.00  0.00    +0.000 A 
ATOM      8  N   UNL     1      49.441   8.103  13.529  0.00  0.00    +0.000 N 
ATOM      9  N   UNL     1      48.549   8.598  15.693  0.00  0.00    +0.000 NA
ATOM     10  C   UNL     1      48.512   8.246  17.006  0.00  0.00    +0.000 A 
ATOM     11  H   UNL     1      49.833   7.265  13.110  0.00  0.00    +0.000 HD
BRANCH   4  15
ATOM     12  C   UNL     1      48.074   5.907  20.973  0.00  0.00    +0.000 C 
ATOM     13  N   UNL     1      47.955   6.213  19.555  0.00  0.00    +0.000 N 
ATOM     14  C   UNL     1      46.852   5.578  18.841  0.00  0.00    +0.000 C 
ATOM     15  C   UNL     1      49.070   6.812  18.953  0.00  0.00    +0.000 C 
ATOM     16  O   UNL     1      50.088   7.091  19.585  0.00  0.00    +0.000 OA
ENDBRANCH   4  15
ENDBRANCH   1   8
BRANCH   1  17
ATOM     17  C   UNL     1      47.224   8.042  12.364  0.00  0.00    +0.000 A 
ATOM     18  C   UNL     1      45.948   8.629  12.405  0.00  0.00    +0.000 A 
ATOM     19  C   UNL     1      44.805   7.932  11.999  0.00  0.00    +0.000 A 
ATOM     20  C   UNL     1      44.919   6.635  11.510  0.00  0.00    +0.000 A 
ATOM     21  C   UNL     1      46.160   6.001  11.551  0.00  0.00    +0.000 A 
ATOM     22  C   UNL     1      47.296   6.694  11.977  0.00  0.00    +0.000 A 
BRANCH  20  23
ATOM     23  O   UNL     1      43.899   5.877  11.023  0.00  0.00    +0.000 OA
BRANCH  23  24
ATOM     24  C   UNL     1      42.991   5.278  11.939  0.00  0.00    +0.000 C 
ATOM     25  F   UNL     1      43.402   5.291  13.226  0.00  0.00    +0.000 F 
ATOM     26  F   UNL     1      41.816   5.945  11.878  0.00  0.00    +0.000 F 
ATOM     27  F   UNL     1      42.767   3.999  11.568  0.00  0.00    +0.000 F 
ENDBRANCH  23  24
ENDBRANCH  20  23
ENDBRANCH   1  17
TORSDOF 5
ENDMDL
MODEL 7
REMARK VINA RESULT:    -5.874      5.089      9.109
REMARK INTER + INTRA:          -7.910
REMARK INTER:                  -6.801
REMARK INTRA:                  -1.109
REMARK UNBOUND:                -0.318
REMARK  Name = 
REMARK  7 active torsions:
REMARK  status: ('A' for Active; 'I' for Inactive)
REMARK    1  A    between atoms: C_1  and  N_2
REMARK    2  A    between atoms: N_2  and  C_3
REMARK    3  A    between atoms: C_4  and  C_6
REMARK    4  A    between atoms: N_10  and  C_11
REMARK    5  A    between atoms: C_11  and  C_12
REMARK    6  A    between atoms: C_15  and  O_16
REMARK    7  A    between atoms: O_16  and  C_17
REMARK                            x       y       z     vdW  Elec       q    Type
REMARK                         _______ _______ _______ _____ _____    ______ ____
ROOT
ATOM      1  C   UNL     1      49.399   8.857  14.174  0.00  0.00    +0.000 C 
ATOM      2  C   UNL     1      50.347  10.021  13.885  0.00  0.00    +0.000 C 
ATOM      3  C   UNL     1      50.777   8.621  13.585  0.00  0.00    +0.000 C 
ENDROOT
BRANCH   1   8
ATOM      4  C   UNL     1      45.747   5.558  12.713  0.00  0.00    +0.000 A 
ATOM      5  C   UNL     1      45.279   6.831  12.912  0.00  0.00    +0.000 A 
ATOM      6  N   UNL     1      46.076   7.896  13.152  0.00  0.00    +0.000 NA
ATOM      7  C   UNL     1      47.394   7.668  13.260  0.00  0.00    +0.000 A 
ATOM      8  N   UNL     1      48.178   8.816  13.361  0.00  0.00    +0.000 N 
ATOM      9  N   UNL     1      47.939   6.442  13.201  0.00  0.00    +0.000 NA
ATOM     10  C   UNL     1      47.099   5.408  12.927  0.00  0.00    +0.000 A 
ATOM     11  H   UNL     1      47.520   9.577  13.497  0.00  0.00    +0.000 HD
BRANCH   4  15
ATOM     12  C   UNL     1      43.784   2.935  10.780  0.00  0.00    +0.000 C 
ATOM     13  N   UNL     1      44.560   4.142  11.023  0.00  0.00    +0.000 N 
ATOM     14  C   UNL     1      45.179   4.763   9.857  0.00  0.00    +0.000 C 
ATOM     15  C   UNL     1      44.903   4.403  12.357  0.00  0.00    +0.000 C 
ATOM     16  O   UNL     1      44.550   3.672  13.281  0.00  0.00    +0.000 OA
ENDBRANCH   4  15
ENDBRANCH   1   8
BRANCH   1  17
ATOM     17  C   UNL     1      49.182   8.456  15.628  0.00  0.00    +0.000 A 
ATOM     18  C   UNL     1      48.299   9.173  16.452  0.00  0.00    +0.000 A 
ATOM     19  C   UNL     1      48.022   8.768  17.763  0.00  0.00    +0.000 A 
ATOM     20  C   UNL     1      48.602   7.609  18.268  0.00  0.00    +0.000 A 
ATOM     21  C   UNL     1      49.553   6.936  17.502  0.00  0.00    +0.000 A 
ATOM     22  C   UNL     1      49.843   7.357  16.202  0.00  0.00    +0.000 A 
BRANCH  20  23
ATOM     23  O   UNL     1      48.364   7.072  19.495  0.00  0.00    +0.000 OA
BRANCH  23  24
ATOM     24  C   UNL     1      47.520   5.931  19.593  0.00  0.00    +0.000 C 
ATOM     25  F   UNL     1      46.658   5.781  18.564  0.00  0.00    +0.000 F 
ATOM     26  F   UNL     1      48.296   4.825  19.642  0.00  0.00    +0.000 F 
ATOM     27  F   UNL     1      46.815   6.000  20.743  0.00  0.00    +0.000 F 
ENDBRANCH  23  24
ENDBRANCH  20  23
ENDBRANCH   1  17
TORSDOF 5
ENDMDL
MODEL 8
REMARK VINA RESULT:    -5.749      2.540      4.142
REMARK INTER + INTRA:          -7.747
REMARK INTER:                  -7.756
REMARK INTRA:                   0.009
REMARK UNBOUND:                -0.318
REMARK  Name = 
REMARK  7 active torsions:
REMARK  status: ('A' for Active; 'I' for Inactive)
REMARK    1  A    between atoms: C_1  and  N_2
REMARK    2  A    between atoms: N_2  and  C_3
REMARK    3  A    between atoms: C_4  and  C_6
REMARK    4  A    between atoms: N_10  and  C_11
REMARK    5  A    between atoms: C_11  and  C_12
REMARK    6  A    between atoms: C_15  and  O_16
REMARK    7  A    between atoms: O_16  and  C_17
REMARK                            x       y       z     vdW  Elec       q    Type
REMARK                         _______ _______ _______ _____ _____    ______ ____
ROOT
ATOM      1  C   UNL     1      47.835   7.243  12.845  0.00  0.00    +0.000 C 
ATOM      2  C   UNL     1      49.304   6.999  12.499  0.00  0.00    +0.000 C 
ATOM      3  C   UNL     1      48.550   8.089  11.809  0.00  0.00    +0.000 C 
ENDROOT
BRANCH   1   8
ATOM      4  C   UNL     1      49.367   6.400  17.672  0.00  0.00    +0.000 A 
ATOM      5  C   UNL     1      49.070   7.714  17.418  0.00  0.00    +0.000 A 
ATOM      6  N   UNL     1      48.507   8.151  16.270  0.00  0.00    +0.000 NA
ATOM      7  C   UNL     1      48.288   7.243  15.307  0.00  0.00    +0.000 A 
ATOM      8  N   UNL     1      47.574   7.719  14.208  0.00  0.00    +0.000 N 
ATOM      9  N   UNL     1      48.652   5.953  15.410  0.00  0.00    +0.000 NA
ATOM     10  C   UNL     1      49.187   5.559  16.596  0.00  0.00    +0.000 A 
ATOM     11  H   UNL     1      47.531   8.725  14.334  0.00  0.00    +0.000 HD
BRANCH   4  15
ATOM     12  C   UNL     1      51.680   5.301  20.484  0.00  0.00    +0.000 C 
ATOM     13  N   UNL     1      51.271   5.740  19.158  0.00  0.00    +0.000 N 
ATOM     14  C   UNL     1      52.317   6.291  18.302  0.00  0.00    +0.000 C 
ATOM     15  C   UNL     1      49.893   5.892  18.952  0.00  0.00    +0.000 C 
ATOM     16  O   UNL     1      49.066   5.646  19.829  0.00  0.00    +0.000 OA
ENDBRANCH   4  15
ENDBRANCH   1   8
BRANCH   1  17
ATOM     17  C   UNL     1      46.805   6.239  12.337  0.00  0.00    +0.000 A 
ATOM     18  C   UNL     1      46.130   6.447  11.123  0.00  0.00    +0.000 A 
ATOM     19  C   UNL     1      45.247   5.496  10.601  0.00  0.00    +0.000 A 
ATOM     20  C   UNL     1      45.045   4.293  11.271  0.00  0.00    +0.000 A 
ATOM     21  C   UNL     1      45.631   4.108  12.523  0.00  0.00    +0.000 A 
ATOM     22  C   UNL     1      46.495   5.070  13.051  0.00  0.00    +0.000 A 
BRANCH  20  23
ATOM     23  O   UNL     1      44.270   3.263  10.838  0.00  0.00    +0.000 OA
BRANCH  23  24
ATOM     24  C   UNL     1      44.583   2.643   9.597  0.00  0.00    +0.000 C 
ATOM     25  F   UNL     1      44.119   3.298   8.510  0.00  0.00    +0.000 F 
ATOM     26  F   UNL     1      45.928   2.565   9.483  0.00  0.00    +0.000 F 
ATOM     27  F   UNL     1      44.088   1.387   9.592  0.00  0.00    +0.000 F 
ENDBRANCH  23  24
ENDBRANCH  20  23
ENDBRANCH   1  17
TORSDOF 5
ENDMDL
MODEL 9
REMARK VINA RESULT:    -5.677      3.524      5.059
REMARK INTER + INTRA:          -7.655
REMARK INTER:                  -7.449
REMARK INTRA:                  -0.205
REMARK UNBOUND:                -0.318
REMARK  Name = 
REMARK  7 active torsions:
REMARK  status: ('A' for Active; 'I' for Inactive)
REMARK    1  A    between atoms: C_1  and  N_2
REMARK    2  A    between atoms: N_2  and  C_3
REMARK    3  A    between atoms: C_4  and  C_6
REMARK    4  A    between atoms: N_10  and  C_11
REMARK    5  A    between atoms: C_11  and  C_12
REMARK    6  A    between atoms: C_15  and  O_16
REMARK    7  A    between atoms: O_16  and  C_17
REMARK                            x       y       z     vdW  Elec       q    Type
REMARK                         _______ _______ _______ _____ _____    ______ ____
ROOT
ATOM      1  C   UNL     1      47.293   4.748  15.216  0.00  0.00    +0.000 C 
ATOM      2  C   UNL     1      46.939   3.990  16.495  0.00  0.00    +0.000 C 
ATOM      3  C   UNL     1      48.091   3.537  15.658  0.00  0.00    +0.000 C 
ENDROOT
BRANCH   1   8
ATOM      4  C   UNL     1      49.321   8.618  12.520  0.00  0.00    +0.000 A 
ATOM      5  C   UNL     1      48.480   9.036  13.520  0.00  0.00    +0.000 A 
ATOM      6  N   UNL     1      47.951   8.211  14.450  0.00  0.00    +0.000 NA
ATOM      7  C   UNL     1      48.222   6.902  14.340  0.00  0.00    +0.000 A 
ATOM      8  N   UNL     1      47.774   6.122  15.405  0.00  0.00    +0.000 N 
ATOM      9  N   UNL     1      48.936   6.377  13.330  0.00  0.00    +0.000 NA
ATOM     10  C   UNL     1      49.472   7.252  12.437  0.00  0.00    +0.000 A 
ATOM     11  H   UNL     1      47.181   6.736  15.954  0.00  0.00    +0.000 HD
BRANCH   4  15
ATOM     12  C   UNL     1      51.927  10.496  10.483  0.00  0.00    +0.000 C 
ATOM     13  N   UNL     1      51.379   9.640  11.524  0.00  0.00    +0.000 N 
ATOM     14  C   UNL     1      52.319   8.753  12.200  0.00  0.00    +0.000 C 
ATOM     15  C   UNL     1      49.983   9.515  11.554  0.00  0.00    +0.000 C 
ATOM     16  O   UNL     1      49.252  10.112  10.766  0.00  0.00    +0.000 OA
ENDBRANCH   4  15
ENDBRANCH   1   8
BRANCH   1  17
ATOM     17  C   UNL     1      46.377   4.580  14.008  0.00  0.00    +0.000 A 
ATOM     18  C   UNL     1      45.543   5.626  13.581  0.00  0.00    +0.000 A 
ATOM     19  C   UNL     1      44.762   5.519  12.425  0.00  0.00    +0.000 A 
ATOM     20  C   UNL     1      44.825   4.366  11.648  0.00  0.00    +0.000 A 
ATOM     21  C   UNL     1      45.572   3.281  12.105  0.00  0.00    +0.000 A 
ATOM     22  C   UNL     1      46.334   3.385  13.271  0.00  0.00    +0.000 A 
BRANCH  20  23
ATOM     23  O   UNL     1      44.172   4.164  10.472  0.00  0.00    +0.000 OA
BRANCH  23  24
ATOM     24  C   UNL     1      44.922   4.160   9.263  0.00  0.00    +0.000 C 
ATOM     25  F   UNL     1      45.572   3.004   9.011  0.00  0.00    +0.000 F 
ATOM     26  F   UNL     1      44.076   4.388   8.233  0.00  0.00    +0.000 F 
ATOM     27  F   UNL     1      45.821   5.166   9.297  0.00  0.00    +0.000 F 
ENDBRANCH  23  24
ENDBRANCH  20  23
ENDBRANCH   1  17
TORSDOF 5
ENDMDL
