MODEL 1
REMARK VINA RESULT:    -8.195      0.000      0.000
REMARK INTER + INTRA:         -12.246
REMARK INTER:                 -11.070
REMARK INTRA:                  -1.176
REMARK UNBOUND:                -1.176
REMARK  Name = 
REMARK  6 active torsions:
REMARK  status: ('A' for Active; 'I' for Inactive)
REMARK    1  A    between atoms: C_2  and  C_25
REMARK    2  A    between atoms: N_3  and  C_4
REMARK    3  A    between atoms: C_4  and  C_5
REMARK    4  A    between atoms: C_8  and  C_9
REMARK    5  A    between atoms: C_9  and  N_10
REMARK    6  A    between atoms: C_11  and  C_13
REMARK                            x       y       z     vdW  Elec       q    Type
REMARK                         _______ _______ _______ _____ _____    ______ ____
ROOT
ATOM      1  C   UNL     1      44.907   5.368  10.623  0.00  0.00    +0.000 A 
ATOM      2  C   UNL     1      44.277   5.745  11.817  0.00  0.00    +0.000 A 
ATOM      3  C   UNL     1      44.895   6.639  12.700  0.00  0.00    +0.000 A 
ATOM      4  C   UNL     1      46.147   7.190  12.397  0.00  0.00    +0.000 A 
ATOM      5  C   UNL     1      46.780   6.806  11.207  0.00  0.00    +0.000 A 
ATOM      6  C   UNL     1      46.162   5.914  10.324  0.00  0.00    +0.000 A 
ENDROOT
BRANCH   1   7
ATOM      7  C   UNL     1      44.231   4.425   9.662  0.00  0.00    +0.000 C 
BRANCH   7  10
ATOM      8  O   UNL     1      45.171   1.809   9.335  0.00  0.00    +0.000 OA
ATOM      9  C   UNL     1      45.550   2.673   8.549  0.00  0.00    +0.000 C 
ATOM     10  N   UNL     1      45.146   3.982   8.637  0.00  0.00    +0.000 N 
ATOM     11  H   UNL     1      45.363   4.626   7.888  0.00  0.00    +0.000 HD
BRANCH   9  12
ATOM     12  C   UNL     1      46.441   2.380   7.458  0.00  0.00    +0.000 A 
ATOM     13  C   UNL     1      47.325   1.346   7.220  0.00  0.00    +0.000 A 
ATOM     14  N   UNL     1      47.964   1.497   6.017  0.00  0.00    +0.000 NA
ATOM     15  C   UNL     1      47.476   2.602   5.506  0.00  0.00    +0.000 A 
ATOM     16  N   UNL     1      46.549   3.169   6.333  0.00  0.00    +0.000 N 
ATOM     17  H   UNL     1      46.028   4.017   6.166  0.00  0.00    +0.000 HD
ENDBRANCH   9  12
ENDBRANCH   7  10
ENDBRANCH   1   7
BRANCH   4  18
ATOM     18  C   UNL     1      46.827   8.142  13.350  0.00  0.00    +0.000 C 
BRANCH  18  19
ATOM     19  N   UNL     1      47.327   7.446  14.508  0.00  0.00    +0.000 N 
ATOM     20  C   UNL     1      48.607   6.958  14.559  0.00  0.00    +0.000 C 
ATOM     21  O   UNL     1      49.408   7.134  13.645  0.00  0.00    +0.000 OA
ATOM     22  H   UNL     1      46.632   7.088  15.155  0.00  0.00    +0.000 HD
BRANCH  20  23
ATOM     23  C   UNL     1      48.995   6.271  15.799  0.00  0.00    +0.000 A 
ATOM     24  C   UNL     1      50.071   6.737  16.541  0.00  0.00    +0.000 A 
ATOM     25  S   UNL     1      50.332   5.871  17.986  0.00  0.00    +0.000 S 
ATOM     26  C   UNL     1      49.050   4.805  17.646  0.00  0.00    +0.000 A 
ATOM     27  N   UNL     1      48.737   3.791  18.495  0.00  0.00    +0.000 NA
ATOM     28  C   UNL     1      47.766   3.040  18.096  0.00  0.00    +0.000 A 
ATOM     29  N   UNL     1      47.078   3.213  16.923  0.00  0.00    +0.000 N 
ATOM     30  C   UNL     1      47.342   4.237  16.046  0.00  0.00    +0.000 A 
ATOM     31  O   UNL     1      46.686   4.380  15.020  0.00  0.00    +0.000 OA
ATOM     32  C   UNL     1      48.427   5.111  16.448  0.00  0.00    +0.000 A 
ATOM     33  H   UNL     1      46.325   2.590  16.668  0.00  0.00    +0.000 HD
ENDBRANCH  20  23
ENDBRANCH  18  19
ENDBRANCH   4  18
TORSDOF 6
ENDMDL
MODEL 2
REMARK VINA RESULT:    -7.599      2.295      2.695
REMARK INTER + INTRA:         -11.440
REMARK INTER:                 -10.521
REMARK INTRA:                  -0.919
REMARK UNBOUND:                -1.176
REMARK  Name = 
REMARK  6 active torsions:
REMARK  status: ('A' for Active; 'I' for Inactive)
REMARK    1  A    between atoms: C_2  and  C_25
REMARK    2  A    between atoms: N_3  and  C_4
REMARK    3  A    between atoms: C_4  and  C_5
REMARK    4  A    between atoms: C_8  and  C_9
REMARK    5  A    between atoms: C_9  and  N_10
REMARK    6  A    between atoms: C_11  and  C_13
REMARK                            x       y       z     vdW  Elec       q    Type
REMARK                         _______ _______ _______ _____ _____    ______ ____
ROOT
ATOM      1  C   UNL     1      45.247   5.168  11.304  0.00  0.00    +0.000 A 
ATOM      2  C   UNL     1      45.721   4.573  12.481  0.00  0.00    +0.000 A 
ATOM      3  C   UNL     1      46.607   5.258  13.321  0.00  0.00    +0.000 A 
ATOM      4  C   UNL     1      47.021   6.560  13.012  0.00  0.00    +0.000 A 
ATOM      5  C   UNL     1      46.554   7.151  11.830  0.00  0.00    +0.000 A 
ATOM      6  C   UNL     1      45.666   6.467  10.991  0.00  0.00    +0.000 A 
ENDROOT
BRANCH   1   7
ATOM      7  C   UNL     1      44.274   4.440  10.412  0.00  0.00    +0.000 C 
BRANCH   7  10
ATOM      8  O   UNL     1      45.663   4.802   8.011  0.00  0.00    +0.000 OA
ATOM      9  C   UNL     1      45.601   3.674   8.490  0.00  0.00    +0.000 C 
ATOM     10  N   UNL     1      44.936   3.402   9.660  0.00  0.00    +0.000 N 
ATOM     11  H   UNL     1      45.033   2.494  10.093  0.00  0.00    +0.000 HD
BRANCH   9  12
ATOM     12  C   UNL     1      46.235   2.540   7.869  0.00  0.00    +0.000 A 
ATOM     13  C   UNL     1      47.118   2.420   6.814  0.00  0.00    +0.000 A 
ATOM     14  N   UNL     1      47.454   1.112   6.586  0.00  0.00    +0.000 NA
ATOM     15  C   UNL     1      46.800   0.427   7.493  0.00  0.00    +0.000 A 
ATOM     16  N   UNL     1      46.056   1.243   8.296  0.00  0.00    +0.000 N 
ATOM     17  H   UNL     1      45.471   0.960   9.068  0.00  0.00    +0.000 HD
ENDBRANCH   9  12
ENDBRANCH   7  10
ENDBRANCH   1   7
BRANCH   4  18
ATOM     18  C   UNL     1      47.988   7.300  13.903  0.00  0.00    +0.000 C 
BRANCH  18  19
ATOM     19  N   UNL     1      47.914   6.818  15.259  0.00  0.00    +0.000 N 
ATOM     20  C   UNL     1      49.035   6.442  15.953  0.00  0.00    +0.000 C 
ATOM     21  O   UNL     1      50.161   6.546  15.476  0.00  0.00    +0.000 OA
ATOM     22  H   UNL     1      47.003   6.504  15.579  0.00  0.00    +0.000 HD
BRANCH  20  23
ATOM     23  C   UNL     1      48.823   5.972  17.329  0.00  0.00    +0.000 A 
ATOM     24  C   UNL     1      49.100   4.652  17.659  0.00  0.00    +0.000 A 
ATOM     25  S   UNL     1      48.874   4.298  19.312  0.00  0.00    +0.000 S 
ATOM     26  C   UNL     1      48.344   5.883  19.637  0.00  0.00    +0.000 A 
ATOM     27  N   UNL     1      47.972   6.254  20.891  0.00  0.00    +0.000 NA
ATOM     28  C   UNL     1      47.560   7.474  20.986  0.00  0.00    +0.000 A 
ATOM     29  N   UNL     1      47.488   8.357  19.940  0.00  0.00    +0.000 N 
ATOM     30  C   UNL     1      47.877   8.035  18.662  0.00  0.00    +0.000 A 
ATOM     31  O   UNL     1      47.827   8.859  17.756  0.00  0.00    +0.000 OA
ATOM     32  C   UNL     1      48.347   6.673  18.500  0.00  0.00    +0.000 A 
ATOM     33  H   UNL     1      47.158   9.301  20.081  0.00  0.00    +0.000 HD
ENDBRANCH  20  23
ENDBRANCH  18  19
ENDBRANCH   4  18
TORSDOF 6
ENDMDL
MODEL 3
REMARK VINA RESULT:    -7.102      3.771      4.676
REMARK INTER + INTRA:         -10.769
REMARK INTER:                  -9.767
REMARK INTRA:                  -1.003
REMARK UNBOUND:                -1.176
REMARK  Name = 
REMARK  6 active torsions:
REMARK  status: ('A' for Active; 'I' for Inactive)
REMARK    1  A    between atoms: C_2  and  C_25
REMARK    2  A    between atoms: N_3  and  C_4
REMARK    3  A    between atoms: C_4  and  C_5
REMARK    4  A    between atoms: C_8  and  C_9
REMARK    5  A    between atoms: C_9  and  N_10
REMARK    6  A    between atoms: C_11  and  C_13
REMARK                            x       y       z     vdW  Elec       q    Type
REMARK                         _______ _______ _______ _____ _____    ______ ____
ROOT
ATOM      1  C   UNL     1      44.573   4.471  11.400  0.00  0.00    +0.000 A 
ATOM      2  C   UNL     1      45.632   4.682  12.292  0.00  0.00    +0.000 A 
ATOM      3  C   UNL     1      45.905   5.963  12.788  0.00  0.00    +0.000 A 
ATOM      4  C   UNL     1      45.111   7.056  12.416  0.00  0.00    +0.000 A 
ATOM      5  C   UNL     1      44.057   6.846  11.517  0.00  0.00    +0.000 A 
ATOM      6  C   UNL     1      43.783   5.565  11.023  0.00  0.00    +0.000 A 
ENDROOT
BRANCH   1   7
ATOM      7  C   UNL     1      44.265   3.088  10.886  0.00  0.00    +0.000 C 
BRANCH   7  10
ATOM      8  O   UNL     1      44.386   3.728   8.165  0.00  0.00    +0.000 OA
ATOM      9  C   UNL     1      45.261   3.010   8.640  0.00  0.00    +0.000 C 
ATOM     10  N   UNL     1      45.278   2.639   9.962  0.00  0.00    +0.000 N 
ATOM     11  H   UNL     1      46.090   2.172  10.342  0.00  0.00    +0.000 HD
BRANCH   9  12
ATOM     12  C   UNL     1      46.354   2.506   7.849  0.00  0.00    +0.000 A 
ATOM     13  C   UNL     1      46.824   1.232   7.602  0.00  0.00    +0.000 A 
ATOM     14  N   UNL     1      47.909   1.249   6.765  0.00  0.00    +0.000 NA
ATOM     15  C   UNL     1      48.105   2.515   6.485  0.00  0.00    +0.000 A 
ATOM     16  N   UNL     1      47.189   3.313   7.109  0.00  0.00    +0.000 N 
ATOM     17  H   UNL     1      47.125   4.319   7.050  0.00  0.00    +0.000 HD
ENDBRANCH   9  12
ENDBRANCH   7  10
ENDBRANCH   1   7
BRANCH   4  18
ATOM     18  C   UNL     1      45.407   8.442  12.933  0.00  0.00    +0.000 C 
BRANCH  18  19
ATOM     19  N   UNL     1      46.803   8.764  12.782  0.00  0.00    +0.000 N 
ATOM     20  C   UNL     1      47.214   9.952  12.235  0.00  0.00    +0.000 C 
ATOM     21  O   UNL     1      46.417  10.823  11.896  0.00  0.00    +0.000 OA
ATOM     22  H   UNL     1      47.454   7.986  12.827  0.00  0.00    +0.000 HD
BRANCH  20  23
ATOM     23  C   UNL     1      48.666  10.159  12.139  0.00  0.00    +0.000 A 
ATOM     24  C   UNL     1      49.208  11.402  12.439  0.00  0.00    +0.000 A 
ATOM     25  S   UNL     1      50.910  11.443  12.352  0.00  0.00    +0.000 S 
ATOM     26  C   UNL     1      50.982   9.817  11.857  0.00  0.00    +0.000 A 
ATOM     27  N   UNL     1      52.173   9.216  11.592  0.00  0.00    +0.000 NA
ATOM     28  C   UNL     1      52.076   7.993  11.194  0.00  0.00    +0.000 A 
ATOM     29  N   UNL     1      50.896   7.314  11.036  0.00  0.00    +0.000 N 
ATOM     30  C   UNL     1      49.671   7.871  11.314  0.00  0.00    +0.000 A 
ATOM     31  O   UNL     1      48.636   7.225  11.191  0.00  0.00    +0.000 OA
ATOM     32  C   UNL     1      49.723   9.248  11.766  0.00  0.00    +0.000 A 
ATOM     33  H   UNL     1      50.888   6.354  10.722  0.00  0.00    +0.000 HD
ENDBRANCH  20  23
ENDBRANCH  18  19
ENDBRANCH   4  18
TORSDOF 6
ENDMDL
MODEL 4
REMARK VINA RESULT:    -6.805      4.550      7.111
REMARK INTER + INTRA:         -10.368
REMARK INTER:                  -9.458
REMARK INTRA:                  -0.910
REMARK UNBOUND:                -1.176
REMARK  Name = 
REMARK  6 active torsions:
REMARK  status: ('A' for Active; 'I' for Inactive)
REMARK    1  A    between atoms: C_2  and  C_25
REMARK    2  A    between atoms: N_3  and  C_4
REMARK    3  A    between atoms: C_4  and  C_5
REMARK    4  A    between atoms: C_8  and  C_9
REMARK    5  A    between atoms: C_9  and  N_10
REMARK    6  A    between atoms: C_11  and  C_13
REMARK                            x       y       z     vdW  Elec       q    Type
REMARK                         _______ _______ _______ _____ _____    ______ ____
ROOT
ATOM      1  C   UNL     1      50.641   8.684  11.352  0.00  0.00    +0.000 A 
ATOM      2  C   UNL     1      49.888   9.817  11.688  0.00  0.00    +0.000 A 
ATOM      3  C   UNL     1      48.590   9.687  12.196  0.00  0.00    +0.000 A 
ATOM      4  C   UNL     1      48.025   8.421  12.396  0.00  0.00    +0.000 A 
ATOM      5  C   UNL     1      48.775   7.289  12.052  0.00  0.00    +0.000 A 
ATOM      6  C   UNL     1      50.074   7.418  11.547  0.00  0.00    +0.000 A 
ENDROOT
BRANCH   1   7
ATOM      7  C   UNL     1      52.048   8.823  10.829  0.00  0.00    +0.000 C 
BRANCH   7  10
ATOM      8  O   UNL     1      53.946   6.774  10.657  0.00  0.00    +0.000 OA
ATOM      9  C   UNL     1      53.217   6.984   9.692  0.00  0.00    +0.000 C 
ATOM     10  N   UNL     1      52.263   7.971   9.685  0.00  0.00    +0.000 N 
ATOM     11  H   UNL     1      51.590   8.013   8.932  0.00  0.00    +0.000 HD
BRANCH   9  12
ATOM     12  C   UNL     1      53.294   6.198   8.488  0.00  0.00    +0.000 A 
ATOM     13  C   UNL     1      52.888   6.431   7.189  0.00  0.00    +0.000 A 
ATOM     14  N   UNL     1      53.184   5.371   6.372  0.00  0.00    +0.000 NA
ATOM     15  C   UNL     1      53.777   4.496   7.148  0.00  0.00    +0.000 A 
ATOM     16  N   UNL     1      53.874   4.950   8.432  0.00  0.00    +0.000 N 
ATOM     17  H   UNL     1      54.291   4.467   9.214  0.00  0.00    +0.000 HD
ENDBRANCH   9  12
ENDBRANCH   7  10
ENDBRANCH   1   7
BRANCH   4  18
ATOM     18  C   UNL     1      46.621   8.273  12.928  0.00  0.00    +0.000 C 
BRANCH  18  19
ATOM     19  N   UNL     1      46.106   6.953  12.668  0.00  0.00    +0.000 N 
ATOM     20  C   UNL     1      45.067   6.743  11.798  0.00  0.00    +0.000 C 
ATOM     21  O   UNL     1      44.558   7.659  11.158  0.00  0.00    +0.000 OA
ATOM     22  H   UNL     1      46.339   6.234  13.345  0.00  0.00    +0.000 HD
BRANCH  20  23
ATOM     23  C   UNL     1      44.637   5.349  11.619  0.00  0.00    +0.000 A 
ATOM     24  C   UNL     1      43.949   4.701  12.635  0.00  0.00    +0.000 A 
ATOM     25  S   UNL     1      43.459   3.119  12.229  0.00  0.00    +0.000 S 
ATOM     26  C   UNL     1      44.198   3.222  10.699  0.00  0.00    +0.000 A 
ATOM     27  N   UNL     1      44.162   2.176   9.831  0.00  0.00    +0.000 NA
ATOM     28  C   UNL     1      44.791   2.380   8.723  0.00  0.00    +0.000 A 
ATOM     29  N   UNL     1      45.453   3.537   8.403  0.00  0.00    +0.000 N 
ATOM     30  C   UNL     1      45.496   4.628   9.237  0.00  0.00    +0.000 A 
ATOM     31  O   UNL     1      46.073   5.659   8.907  0.00  0.00    +0.000 OA
ATOM     32  C   UNL     1      44.804   4.451  10.499  0.00  0.00    +0.000 A 
ATOM     33  H   UNL     1      45.926   3.635   7.516  0.00  0.00    +0.000 HD
ENDBRANCH  20  23
ENDBRANCH  18  19
ENDBRANCH   4  18
TORSDOF 6
ENDMDL
MODEL 5
REMARK VINA RESULT:    -6.549      3.421      5.525
REMARK INTER + INTRA:         -10.022
REMARK INTER:                  -9.268
REMARK INTRA:                  -0.753
REMARK UNBOUND:                -1.176
REMARK  Name = 
REMARK  6 active torsions:
REMARK  status: ('A' for Active; 'I' for Inactive)
REMARK    1  A    between atoms: C_2  and  C_25
REMARK    2  A    between atoms: N_3  and  C_4
REMARK    3  A    between atoms: C_4  and  C_5
REMARK    4  A    between atoms: C_8  and  C_9
REMARK    5  A    between atoms: C_9  and  N_10
REMARK    6  A    between atoms: C_11  and  C_13
REMARK                            x       y       z     vdW  Elec       q    Type
REMARK                         _______ _______ _______ _____ _____    ______ ____
ROOT
ATOM      1  C   UNL     1      47.538   5.861  14.339  0.00  0.00    +0.000 A 
ATOM      2  C   UNL     1      48.346   6.298  15.397  0.00  0.00    +0.000 A 
ATOM      3  C   UNL     1      48.547   5.492  16.524  0.00  0.00    +0.000 A 
ATOM      4  C   UNL     1      47.959   4.223  16.607  0.00  0.00    +0.000 A 
ATOM      5  C   UNL     1      47.145   3.789  15.553  0.00  0.00    +0.000 A 
ATOM      6  C   UNL     1      46.946   4.594  14.425  0.00  0.00    +0.000 A 
ENDROOT
BRANCH   1   7
ATOM      7  C   UNL     1      47.342   6.718  13.115  0.00  0.00    +0.000 C 
BRANCH   7  10
ATOM      8  O   UNL     1      44.688   6.675  12.229  0.00  0.00    +0.000 OA
ATOM      9  C   UNL     1      45.516   5.986  11.641  0.00  0.00    +0.000 C 
ATOM     10  N   UNL     1      46.838   5.940  12.010  0.00  0.00    +0.000 N 
ATOM     11  H   UNL     1      47.510   5.478  11.412  0.00  0.00    +0.000 HD
BRANCH   9  12
ATOM     12  C   UNL     1      45.171   5.176  10.502  0.00  0.00    +0.000 A 
ATOM     13  C   UNL     1      44.239   4.175  10.310  0.00  0.00    +0.000 A 
ATOM     14  N   UNL     1      44.276   3.693   9.028  0.00  0.00    +0.000 NA
ATOM     15  C   UNL     1      45.208   4.391   8.426  0.00  0.00    +0.000 A 
ATOM     16  N   UNL     1      45.773   5.304   9.269  0.00  0.00    +0.000 N 
ATOM     17  H   UNL     1      46.506   5.961   9.045  0.00  0.00    +0.000 HD
ENDBRANCH   9  12
ENDBRANCH   7  10
ENDBRANCH   1   7
BRANCH   4  18
ATOM     18  C   UNL     1      48.158   3.354  17.824  0.00  0.00    +0.000 C 
BRANCH  18  19
ATOM     19  N   UNL     1      49.554   3.069  18.035  0.00  0.00    +0.000 N 
ATOM     20  C   UNL     1      50.249   2.221  17.213  0.00  0.00    +0.000 C 
ATOM     21  O   UNL     1      49.734   1.703  16.226  0.00  0.00    +0.000 OA
ATOM     22  H   UNL     1      49.927   3.286  18.954  0.00  0.00    +0.000 HD
BRANCH  20  23
ATOM     23  C   UNL     1      51.669   2.017  17.534  0.00  0.00    +0.000 A 
ATOM     24  C   UNL     1      52.165   0.730  17.689  0.00  0.00    +0.000 A 
ATOM     25  S   UNL     1      53.844   0.674  17.982  0.00  0.00    +0.000 S 
ATOM     26  C   UNL     1      53.960   2.372  17.967  0.00  0.00    +0.000 A 
ATOM     27  N   UNL     1      55.151   2.995  18.173  0.00  0.00    +0.000 NA
ATOM     28  C   UNL     1      55.086   4.284  18.169  0.00  0.00    +0.000 A 
ATOM     29  N   UNL     1      53.938   5.008  17.976  0.00  0.00    +0.000 N 
ATOM     30  C   UNL     1      52.717   4.422  17.739  0.00  0.00    +0.000 A 
ATOM     31  O   UNL     1      51.715   5.100  17.541  0.00  0.00    +0.000 OA
ATOM     32  C   UNL     1      52.734   2.973  17.735  0.00  0.00    +0.000 A 
ATOM     33  H   UNL     1      53.954   6.017  17.983  0.00  0.00    +0.000 HD
ENDBRANCH  20  23
ENDBRANCH  18  19
ENDBRANCH   4  18
TORSDOF 6
ENDMDL
MODEL 6
REMARK VINA RESULT:    -6.395      1.756      2.288
REMARK INTER + INTRA:          -9.814
REMARK INTER:                  -8.704
REMARK INTRA:                  -1.110
REMARK UNBOUND:                -1.176
REMARK  Name = 
REMARK  6 active torsions:
REMARK  status: ('A' for Active; 'I' for Inactive)
REMARK    1  A    between atoms: C_2  and  C_25
REMARK    2  A    between atoms: N_3  and  C_4
REMARK    3  A    between atoms: C_4  and  C_5
REMARK    4  A    between atoms: C_8  and  C_9
REMARK    5  A    between atoms: C_9  and  N_10
REMARK    6  A    between atoms: C_11  and  C_13
REMARK                            x       y       z     vdW  Elec       q    Type
REMARK                         _______ _______ _______ _____ _____    ______ ____
ROOT
ATOM      1  C   UNL     1      45.809   7.051  11.824  0.00  0.00    +0.000 A 
ATOM      2  C   UNL     1      45.613   8.261  12.503  0.00  0.00    +0.000 A 
ATOM      3  C   UNL     1      46.640   8.826  13.268  0.00  0.00    +0.000 A 
ATOM      4  C   UNL     1      47.892   8.203  13.353  0.00  0.00    +0.000 A 
ATOM      5  C   UNL     1      48.086   6.989  12.681  0.00  0.00    +0.000 A 
ATOM      6  C   UNL     1      47.059   6.425  11.914  0.00  0.00    +0.000 A 
ENDROOT
BRANCH   1   7
ATOM      7  C   UNL     1      44.711   6.456  10.981  0.00  0.00    +0.000 C 
BRANCH   7  10
ATOM      8  O   UNL     1      44.020   3.749  10.809  0.00  0.00    +0.000 OA
ATOM      9  C   UNL     1      44.839   4.199  10.013  0.00  0.00    +0.000 C 
ATOM     10  N   UNL     1      45.242   5.512  10.027  0.00  0.00    +0.000 N 
ATOM     11  H   UNL     1      45.802   5.873   9.267  0.00  0.00    +0.000 HD
BRANCH   9  12
ATOM     12  C   UNL     1      45.436   3.388   8.985  0.00  0.00    +0.000 A 
ATOM     13  C   UNL     1      45.584   2.023   8.834  0.00  0.00    +0.000 A 
ATOM     14  N   UNL     1      46.228   1.712   7.665  0.00  0.00    +0.000 NA
ATOM     15  C   UNL     1      46.466   2.866   7.089  0.00  0.00    +0.000 A 
ATOM     16  N   UNL     1      46.002   3.907   7.841  0.00  0.00    +0.000 N 
ATOM     17  H   UNL     1      46.059   4.889   7.614  0.00  0.00    +0.000 HD
ENDBRANCH   9  12
ENDBRANCH   7  10
ENDBRANCH   1   7
BRANCH   4  18
ATOM     18  C   UNL     1      48.999   8.798  14.188  0.00  0.00    +0.000 C 
BRANCH  18  19
ATOM     19  N   UNL     1      49.199   8.041  15.397  0.00  0.00    +0.000 N 
ATOM     20  C   UNL     1      48.607   8.401  16.580  0.00  0.00    +0.000 C 
ATOM     21  O   UNL     1      47.835   9.354  16.658  0.00  0.00    +0.000 OA
ATOM     22  H   UNL     1      49.998   7.415  15.413  0.00  0.00    +0.000 HD
BRANCH  20  23
ATOM     23  C   UNL     1      48.889   7.544  17.740  0.00  0.00    +0.000 A 
ATOM     24  C   UNL     1      49.330   8.111  18.928  0.00  0.00    +0.000 A 
ATOM     25  S   UNL     1      49.533   6.983  20.190  0.00  0.00    +0.000 S 
ATOM     26  C   UNL     1      49.091   5.687  19.179  0.00  0.00    +0.000 A 
ATOM     27  N   UNL     1      49.070   4.410  19.645  0.00  0.00    +0.000 NA
ATOM     28  C   UNL     1      48.750   3.524  18.762  0.00  0.00    +0.000 A 
ATOM     29  N   UNL     1      48.448   3.801  17.454  0.00  0.00    +0.000 N 
ATOM     30  C   UNL     1      48.433   5.077  16.944  0.00  0.00    +0.000 A 
ATOM     31  O   UNL     1      48.129   5.291  15.776  0.00  0.00    +0.000 OA
ATOM     32  C   UNL     1      48.786   6.111  17.897  0.00  0.00    +0.000 A 
ATOM     33  H   UNL     1      48.204   3.061  16.812  0.00  0.00    +0.000 HD
ENDBRANCH  20  23
ENDBRANCH  18  19
ENDBRANCH   4  18
TORSDOF 6
ENDMDL
MODEL 7
REMARK VINA RESULT:    -6.123      5.509      8.282
REMARK INTER + INTRA:          -9.446
REMARK INTER:                  -8.464
REMARK INTRA:                  -0.983
REMARK UNBOUND:                -1.176
REMARK  Name = 
REMARK  6 active torsions:
REMARK  status: ('A' for Active; 'I' for Inactive)
REMARK    1  A    between atoms: C_2  and  C_25
REMARK    2  A    between atoms: N_3  and  C_4
REMARK    3  A    between atoms: C_4  and  C_5
REMARK    4  A    between atoms: C_8  and  C_9
REMARK    5  A    between atoms: C_9  and  N_10
REMARK    6  A    between atoms: C_11  and  C_13
REMARK                            x       y       z     vdW  Elec       q    Type
REMARK                         _______ _______ _______ _____ _____    ______ ____
ROOT
ATOM      1  C   UNL     1      48.470   6.731  13.664  0.00  0.00    +0.000 A 
ATOM      2  C   UNL     1      49.580   7.296  14.308  0.00  0.00    +0.000 A 
ATOM      3  C   UNL     1      50.490   8.089  13.598  0.00  0.00    +0.000 A 
ATOM      4  C   UNL     1      50.299   8.349  12.235  0.00  0.00    +0.000 A 
ATOM      5  C   UNL     1      49.194   7.778  11.590  0.00  0.00    +0.000 A 
ATOM      6  C   UNL     1      48.283   6.987  12.300  0.00  0.00    +0.000 A 
ENDROOT
BRANCH   1   7
ATOM      7  C   UNL     1      47.477   5.898  14.433  0.00  0.00    +0.000 C 
BRANCH   7  10
ATOM      8  O   UNL     1      46.936   3.246  13.722  0.00  0.00    +0.000 OA
ATOM      9  C   UNL     1      46.204   4.132  13.292  0.00  0.00    +0.000 C 
ATOM     10  N   UNL     1      46.397   5.460  13.583  0.00  0.00    +0.000 N 
ATOM     11  H   UNL     1      45.690   6.137  13.331  0.00  0.00    +0.000 HD
BRANCH   9  12
ATOM     12  C   UNL     1      45.068   3.849  12.454  0.00  0.00    +0.000 A 
ATOM     13  C   UNL     1      44.501   4.516  11.385  0.00  0.00    +0.000 A 
ATOM     14  N   UNL     1      43.411   3.845  10.895  0.00  0.00    +0.000 NA
ATOM     15  C   UNL     1      43.308   2.770  11.638  0.00  0.00    +0.000 A 
ATOM     16  N   UNL     1      44.287   2.722  12.588  0.00  0.00    +0.000 N 
ATOM     17  H   UNL     1      44.427   1.997  13.277  0.00  0.00    +0.000 HD
ENDBRANCH   9  12
ENDBRANCH   7  10
ENDBRANCH   1   7
BRANCH   4  18
ATOM     18  C   UNL     1      51.283   9.190  11.460  0.00  0.00    +0.000 C 
BRANCH  18  19
ATOM     19  N   UNL     1      51.746   8.494  10.286  0.00  0.00    +0.000 N 
ATOM     20  C   UNL     1      52.926   7.797  10.279  0.00  0.00    +0.000 C 
ATOM     21  O   UNL     1      53.622   7.684  11.285  0.00  0.00    +0.000 OA
ATOM     22  H   UNL     1      51.324   8.766   9.403  0.00  0.00    +0.000 HD
BRANCH  20  23
ATOM     23  C   UNL     1      53.283   7.129   9.019  0.00  0.00    +0.000 A 
ATOM     24  C   UNL     1      53.569   5.771   9.014  0.00  0.00    +0.000 A 
ATOM     25  S   UNL     1      53.886   5.145   7.459  0.00  0.00    +0.000 S 
ATOM     26  C   UNL     1      53.705   6.679   6.743  0.00  0.00    +0.000 A 
ATOM     27  N   UNL     1      53.863   6.850   5.403  0.00  0.00    +0.000 NA
ATOM     28  C   UNL     1      53.731   8.069   5.002  0.00  0.00    +0.000 A 
ATOM     29  N   UNL     1      53.454   9.135   5.820  0.00  0.00    +0.000 N 
ATOM     30  C   UNL     1      53.262   9.006   7.174  0.00  0.00    +0.000 A 
ATOM     31  O   UNL     1      52.986   9.976   7.872  0.00  0.00    +0.000 OA
ATOM     32  C   UNL     1      53.400   7.653   7.678  0.00  0.00    +0.000 A 
ATOM     33  H   UNL     1      53.361  10.066   5.443  0.00  0.00    +0.000 HD
ENDBRANCH  20  23
ENDBRANCH  18  19
ENDBRANCH   4  18
TORSDOF 6
ENDMDL
MODEL 8
REMARK VINA RESULT:    -6.112      5.390      8.023
REMARK INTER + INTRA:          -9.431
REMARK INTER:                  -8.558
REMARK INTRA:                  -0.873
REMARK UNBOUND:                -1.176
REMARK  Name = 
REMARK  6 active torsions:
REMARK  status: ('A' for Active; 'I' for Inactive)
REMARK    1  A    between atoms: C_2  and  C_25
REMARK    2  A    between atoms: N_3  and  C_4
REMARK    3  A    between atoms: C_4  and  C_5
REMARK    4  A    between atoms: C_8  and  C_9
REMARK    5  A    between atoms: C_9  and  N_10
REMARK    6  A    between atoms: C_11  and  C_13
REMARK                            x       y       z     vdW  Elec       q    Type
REMARK                         _______ _______ _______ _____ _____    ______ ____
ROOT
ATOM      1  C   UNL     1      48.664   6.751  13.789  0.00  0.00    +0.000 A 
ATOM      2  C   UNL     1      48.560   6.919  12.402  0.00  0.00    +0.000 A 
ATOM      3  C   UNL     1      49.498   7.687  11.702  0.00  0.00    +0.000 A 
ATOM      4  C   UNL     1      50.571   8.288  12.373  0.00  0.00    +0.000 A 
ATOM      5  C   UNL     1      50.671   8.127  13.762  0.00  0.00    +0.000 A 
ATOM      6  C   UNL     1      49.734   7.357  14.461  0.00  0.00    +0.000 A 
ENDROOT
BRANCH   1   7
ATOM      7  C   UNL     1      47.668   5.903  14.538  0.00  0.00    +0.000 C 
BRANCH   7  10
ATOM      8  O   UNL     1      46.989   3.287  13.816  0.00  0.00    +0.000 OA
ATOM      9  C   UNL     1      46.302   4.211  13.392  0.00  0.00    +0.000 C 
ATOM     10  N   UNL     1      46.564   5.526  13.689  0.00  0.00    +0.000 N 
ATOM     11  H   UNL     1      45.893   6.240  13.443  0.00  0.00    +0.000 HD
BRANCH   9  12
ATOM     12  C   UNL     1      45.151   3.991  12.556  0.00  0.00    +0.000 A 
ATOM     13  C   UNL     1      43.977   4.695  12.371  0.00  0.00    +0.000 A 
ATOM     14  N   UNL     1      43.166   4.087  11.449  0.00  0.00    +0.000 NA
ATOM     15  C   UNL     1      43.830   3.027  11.055  0.00  0.00    +0.000 A 
ATOM     16  N   UNL     1      45.036   2.928  11.687  0.00  0.00    +0.000 N 
ATOM     17  H   UNL     1      45.730   2.207  11.555  0.00  0.00    +0.000 HD
ENDBRANCH   9  12
ENDBRANCH   7  10
ENDBRANCH   1   7
BRANCH   4  18
ATOM     18  C   UNL     1      51.578   9.130  11.630  0.00  0.00    +0.000 C 
BRANCH  18  19
ATOM     19  N   UNL     1      51.893   8.551  10.349  0.00  0.00    +0.000 N 
ATOM     20  C   UNL     1      52.763   9.155   9.479  0.00  0.00    +0.000 C 
ATOM     21  O   UNL     1      53.358  10.191   9.766  0.00  0.00    +0.000 OA
ATOM     22  H   UNL     1      51.251   7.846  10.001  0.00  0.00    +0.000 HD
BRANCH  20  23
ATOM     23  C   UNL     1      53.002   8.459   8.206  0.00  0.00    +0.000 A 
ATOM     24  C   UNL     1      52.946   9.165   7.012  0.00  0.00    +0.000 A 
ATOM     25  S   UNL     1      53.325   8.221   5.642  0.00  0.00    +0.000 S 
ATOM     26  C   UNL     1      53.522   6.822   6.591  0.00  0.00    +0.000 A 
ATOM     27  N   UNL     1      53.846   5.630   6.022  0.00  0.00    +0.000 NA
ATOM     28  C   UNL     1      53.931   4.647   6.854  0.00  0.00    +0.000 A 
ATOM     29  N   UNL     1      53.722   4.749   8.206  0.00  0.00    +0.000 N 
ATOM     30  C   UNL     1      53.418   5.936   8.827  0.00  0.00    +0.000 A 
ATOM     31  O   UNL     1      53.266   5.996  10.042  0.00  0.00    +0.000 OA
ATOM     32  C   UNL     1      53.310   7.074   7.935  0.00  0.00    +0.000 A 
ATOM     33  H   UNL     1      53.805   3.940   8.805  0.00  0.00    +0.000 HD
ENDBRANCH  20  23
ENDBRANCH  18  19
ENDBRANCH   4  18
TORSDOF 6
ENDMDL
MODEL 9
REMARK VINA RESULT:    -5.883      5.156      6.963
REMARK INTER + INTRA:          -9.122
REMARK INTER:                  -8.215
REMARK INTRA:                  -0.907
REMARK UNBOUND:                -1.176
REMARK  Name = 
REMARK  6 active torsions:
REMARK  status: ('A' for Active; 'I' for Inactive)
REMARK    1  A    between atoms: C_2  and  C_25
REMARK    2  A    between atoms: N_3  and  C_4
REMARK    3  A    between atoms: C_4  and  C_5
REMARK    4  A    between atoms: C_8  and  C_9
REMARK    5  A    between atoms: C_9  and  N_10
REMARK    6  A    between atoms: C_11  and  C_13
REMARK                            x       y       z     vdW  Elec       q    Type
REMARK                         _______ _______ _______ _____ _____    ______ ____
ROOT
ATOM      1  C   UNL     1      52.560   8.846  10.464  0.00  0.00    +0.000 A 
ATOM      2  C   UNL     1      51.730   7.824  10.945  0.00  0.00    +0.000 A 
ATOM      3  C   UNL     1      50.439   8.110  11.407  0.00  0.00    +0.000 A 
ATOM      4  C   UNL     1      49.945   9.420  11.380  0.00  0.00    +0.000 A 
ATOM      5  C   UNL     1      50.778  10.443  10.907  0.00  0.00    +0.000 A 
ATOM      6  C   UNL     1      52.068  10.158  10.443  0.00  0.00    +0.000 A 
ENDROOT
BRANCH   1   7
ATOM      7  C   UNL     1      53.940   8.535   9.944  0.00  0.00    +0.000 C 
BRANCH   7  10
ATOM      8  O   UNL     1      54.528   5.801  10.033  0.00  0.00    +0.000 OA
ATOM      9  C   UNL     1      54.182   6.294   8.963  0.00  0.00    +0.000 C 
ATOM     10  N   UNL     1      53.881   7.626   8.825  0.00  0.00    +0.000 N 
ATOM     11  H   UNL     1      53.461   7.959   7.968  0.00  0.00    +0.000 HD
BRANCH   9  12
ATOM     12  C   UNL     1      54.050   5.509   7.763  0.00  0.00    +0.000 A 
ATOM     13  C   UNL     1      53.955   5.846   6.428  0.00  0.00    +0.000 A 
ATOM     14  N   UNL     1      53.847   4.734   5.635  0.00  0.00    +0.000 NA
ATOM     15  C   UNL     1      53.887   3.718   6.463  0.00  0.00    +0.000 A 
ATOM     16  N   UNL     1      54.016   4.132   7.757  0.00  0.00    +0.000 N 
ATOM     17  H   UNL     1      54.074   3.545   8.577  0.00  0.00    +0.000 HD
ENDBRANCH   9  12
ENDBRANCH   7  10
ENDBRANCH   1   7
BRANCH   4  18
ATOM     18  C   UNL     1      48.562   9.739  11.890  0.00  0.00    +0.000 C 
BRANCH  18  19
ATOM     19  N   UNL     1      47.737   8.558  11.924  0.00  0.00    +0.000 N 
ATOM     20  C   UNL     1      47.287   8.027  13.104  0.00  0.00    +0.000 C 
ATOM     21  O   UNL     1      47.517   8.558  14.188  0.00  0.00    +0.000 OA
ATOM     22  H   UNL     1      47.737   7.983  11.088  0.00  0.00    +0.000 HD
BRANCH  20  23
ATOM     23  C   UNL     1      46.451   6.822  13.001  0.00  0.00    +0.000 A 
ATOM     24  C   UNL     1      46.881   5.632  13.572  0.00  0.00    +0.000 A 
ATOM     25  S   UNL     1      45.756   4.358  13.427  0.00  0.00    +0.000 S 
ATOM     26  C   UNL     1      44.677   5.336  12.546  0.00  0.00    +0.000 A 
ATOM     27  N   UNL     1      43.494   4.843  12.093  0.00  0.00    +0.000 NA
ATOM     28  C   UNL     1      42.790   5.684  11.412  0.00  0.00    +0.000 A 
ATOM     29  N   UNL     1      43.163   6.976  11.143  0.00  0.00    +0.000 N 
ATOM     30  C   UNL     1      44.337   7.525  11.600  0.00  0.00    +0.000 A 
ATOM     31  O   UNL     1      44.625   8.693  11.366  0.00  0.00    +0.000 OA
ATOM     32  C   UNL     1      45.166   6.620  12.372  0.00  0.00    +0.000 A 
ATOM     33  H   UNL     1      42.566   7.586  10.604  0.00  0.00    +0.000 HD
ENDBRANCH  20  23
ENDBRANCH  18  19
ENDBRANCH   4  18
TORSDOF 6
ENDMDL
