MODEL 1
REMARK VINA RESULT:    -8.456      0.000      0.000
REMARK INTER + INTRA:         -12.448
REMARK INTER:                 -11.422
REMARK INTRA:                  -1.026
REMARK UNBOUND:                -1.026
REMARK  Name = 
REMARK  6 active torsions:
REMARK  status: ('A' for Active; 'I' for Inactive)
REMARK    1  A    between atoms: C_2  and  C_25
REMARK    2  A    between atoms: N_3  and  C_4
REMARK    3  A    between atoms: C_4  and  C_5
REMARK    4  A    between atoms: C_8  and  C_9
REMARK    5  A    between atoms: C_9  and  N_10
REMARK    6  A    between atoms: C_11  and  C_13
REMARK                            x       y       z     vdW  Elec       q    Type
REMARK                         _______ _______ _______ _____ _____    ______ ____
ROOT
ATOM      1  C   UNL     1      45.099   6.363  11.214  0.00  0.00    +0.000 A 
ATOM      2  C   UNL     1      44.691   7.599  11.736  0.00  0.00    +0.000 A 
ATOM      3  C   UNL     1      45.498   8.290  12.645  0.00  0.00    +0.000 A 
ATOM      4  C   UNL     1      46.739   7.771  13.036  0.00  0.00    +0.000 A 
ATOM      5  C   UNL     1      47.141   6.530  12.522  0.00  0.00    +0.000 A 
ATOM      6  C   UNL     1      46.335   5.840  11.613  0.00  0.00    +0.000 A 
ENDROOT
BRANCH   1   7
ATOM      7  C   UNL     1      44.225   5.610  10.248  0.00  0.00    +0.000 C 
BRANCH   7  10
ATOM      8  O   UNL     1      44.117   2.825  10.046  0.00  0.00    +0.000 OA
ATOM      9  C   UNL     1      44.854   3.445   9.286  0.00  0.00    +0.000 C 
ATOM     10  N   UNL     1      44.982   4.818   9.313  0.00  0.00    +0.000 N 
ATOM     11  H   UNL     1      45.601   5.251   8.632  0.00  0.00    +0.000 HD
BRANCH   9  12
ATOM     12  C   UNL     1      45.676   2.738   8.251  0.00  0.00    +0.000 A 
ATOM     13  C   UNL     1      46.028   3.413   7.085  0.00  0.00    +0.000 A 
ATOM     14  C   UNL     1      46.790   2.740   6.136  0.00  0.00    +0.000 A 
ATOM     15  C   UNL     1      47.172   1.424   6.383  0.00  0.00    +0.000 A 
ATOM     16  C   UNL     1      46.774   0.830   7.574  0.00  0.00    +0.000 A 
ATOM     17  N   UNL     1      46.036   1.454   8.521  0.00  0.00    +0.000 NA
ENDBRANCH   9  12
ENDBRANCH   7  10
ENDBRANCH   1   7
BRANCH   4  18
ATOM     18  C   UNL     1      47.612   8.505  14.021  0.00  0.00    +0.000 C 
BRANCH  18  19
ATOM     19  N   UNL     1      47.918   7.682  15.163  0.00  0.00    +0.000 N 
ATOM     20  C   UNL     1      49.119   7.030  15.275  0.00  0.00    +0.000 C 
ATOM     21  O   UNL     1      50.011   7.159  14.440  0.00  0.00    +0.000 OA
ATOM     22  H   UNL     1      47.132   7.380  15.731  0.00  0.00    +0.000 HD
BRANCH  20  23
ATOM     23  C   UNL     1      49.313   6.215  16.481  0.00  0.00    +0.000 A 
ATOM     24  C   UNL     1      50.314   6.546  17.385  0.00  0.00    +0.000 A 
ATOM     25  S   UNL     1      50.362   5.536  18.757  0.00  0.00    +0.000 S 
ATOM     26  C   UNL     1      49.079   4.584  18.169  0.00  0.00    +0.000 A 
ATOM     27  N   UNL     1      48.625   3.512  18.872  0.00  0.00    +0.000 NA
ATOM     28  C   UNL     1      47.668   2.864  18.295  0.00  0.00    +0.000 A 
ATOM     29  N   UNL     1      47.123   3.192  17.082  0.00  0.00    +0.000 N 
ATOM     30  C   UNL     1      47.535   4.279  16.348  0.00  0.00    +0.000 A 
ATOM     31  O   UNL     1      47.005   4.561  15.278  0.00  0.00    +0.000 OA
ATOM     32  C   UNL     1      48.612   5.041  16.950  0.00  0.00    +0.000 A 
ATOM     33  H   UNL     1      46.372   2.646  16.686  0.00  0.00    +0.000 HD
ENDBRANCH  20  23
ENDBRANCH  18  19
ENDBRANCH   4  18
TORSDOF 6
ENDMDL
MODEL 2
REMARK VINA RESULT:    -7.781      2.136      2.463
REMARK INTER + INTRA:         -11.536
REMARK INTER:                 -10.702
REMARK INTRA:                  -0.834
REMARK UNBOUND:                -1.026
REMARK  Name = 
REMARK  6 active torsions:
REMARK  status: ('A' for Active; 'I' for Inactive)
REMARK    1  A    between atoms: C_2  and  C_25
REMARK    2  A    between atoms: N_3  and  C_4
REMARK    3  A    between atoms: C_4  and  C_5
REMARK    4  A    between atoms: C_8  and  C_9
REMARK    5  A    between atoms: C_9  and  N_10
REMARK    6  A    between atoms: C_11  and  C_13
REMARK                            x       y       z     vdW  Elec       q    Type
REMARK                         _______ _______ _______ _____ _____    ______ ____
ROOT
ATOM      1  C   UNL     1      45.878   5.215  12.604  0.00  0.00    +0.000 A 
ATOM      2  C   UNL     1      46.408   4.577  13.734  0.00  0.00    +0.000 A 
ATOM      3  C   UNL     1      47.305   5.243  14.575  0.00  0.00    +0.000 A 
ATOM      4  C   UNL     1      47.676   6.569  14.315  0.00  0.00    +0.000 A 
ATOM      5  C   UNL     1      47.155   7.203  13.180  0.00  0.00    +0.000 A 
ATOM      6  C   UNL     1      46.257   6.537  12.339  0.00  0.00    +0.000 A 
ENDROOT
BRANCH   1   7
ATOM      7  C   UNL     1      44.925   4.495  11.689  0.00  0.00    +0.000 C 
BRANCH   7  10
ATOM      8  O   UNL     1      43.919   2.468  10.050  0.00  0.00    +0.000 OA
ATOM      9  C   UNL     1      44.982   3.002   9.747  0.00  0.00    +0.000 C 
ATOM     10  N   UNL     1      45.563   4.004  10.495  0.00  0.00    +0.000 N 
ATOM     11  H   UNL     1      46.435   4.404  10.158  0.00  0.00    +0.000 HD
BRANCH   9  12
ATOM     12  C   UNL     1      45.732   2.596   8.514  0.00  0.00    +0.000 A 
ATOM     13  C   UNL     1      45.942   3.534   7.506  0.00  0.00    +0.000 A 
ATOM     14  C   UNL     1      46.640   3.139   6.369  0.00  0.00    +0.000 A 
ATOM     15  C   UNL     1      47.099   1.829   6.279  0.00  0.00    +0.000 A 
ATOM     16  C   UNL     1      46.843   0.961   7.333  0.00  0.00    +0.000 A 
ATOM     17  N   UNL     1      46.172   1.309   8.455  0.00  0.00    +0.000 NA
ENDBRANCH   9  12
ENDBRANCH   7  10
ENDBRANCH   1   7
BRANCH   4  18
ATOM     18  C   UNL     1      48.649   7.292  15.212  0.00  0.00    +0.000 C 
BRANCH  18  19
ATOM     19  N   UNL     1      49.684   6.406  15.680  0.00  0.00    +0.000 N 
ATOM     20  C   UNL     1      49.793   6.067  17.004  0.00  0.00    +0.000 C 
ATOM     21  O   UNL     1      48.985   6.455  17.844  0.00  0.00    +0.000 OA
ATOM     22  H   UNL     1      50.478   6.267  15.063  0.00  0.00    +0.000 HD
BRANCH  20  23
ATOM     23  C   UNL     1      50.893   5.161  17.361  0.00  0.00    +0.000 A 
ATOM     24  C   UNL     1      52.115   5.685  17.761  0.00  0.00    +0.000 A 
ATOM     25  S   UNL     1      53.259   4.498  18.198  0.00  0.00    +0.000 S 
ATOM     26  C   UNL     1      52.179   3.239  17.817  0.00  0.00    +0.000 A 
ATOM     27  N   UNL     1      52.549   1.937  17.951  0.00  0.00    +0.000 NA
ATOM     28  C   UNL     1      51.643   1.086  17.601  0.00  0.00    +0.000 A 
ATOM     29  N   UNL     1      50.400   1.420  17.130  0.00  0.00    +0.000 N 
ATOM     30  C   UNL     1      49.975   2.721  16.999  0.00  0.00    +0.000 A 
ATOM     31  O   UNL     1      48.845   2.984  16.601  0.00  0.00    +0.000 OA
ATOM     32  C   UNL     1      50.959   3.718  17.377  0.00  0.00    +0.000 A 
ATOM     33  H   UNL     1      49.733   0.707  16.875  0.00  0.00    +0.000 HD
ENDBRANCH  20  23
ENDBRANCH  18  19
ENDBRANCH   4  18
TORSDOF 6
ENDMDL
MODEL 3
REMARK VINA RESULT:    -7.369      3.968      5.054
REMARK INTER + INTRA:         -10.980
REMARK INTER:                  -9.971
REMARK INTRA:                  -1.009
REMARK UNBOUND:                -1.026
REMARK  Name = 
REMARK  6 active torsions:
REMARK  status: ('A' for Active; 'I' for Inactive)
REMARK    1  A    between atoms: C_2  and  C_25
REMARK    2  A    between atoms: N_3  and  C_4
REMARK    3  A    between atoms: C_4  and  C_5
REMARK    4  A    between atoms: C_8  and  C_9
REMARK    5  A    between atoms: C_9  and  N_10
REMARK    6  A    between atoms: C_11  and  C_13
REMARK                            x       y       z     vdW  Elec       q    Type
REMARK                         _______ _______ _______ _____ _____    ______ ____
ROOT
ATOM      1  C   UNL     1      44.830   5.095  11.921  0.00  0.00    +0.000 A 
ATOM      2  C   UNL     1      44.068   6.189  11.490  0.00  0.00    +0.000 A 
ATOM      3  C   UNL     1      44.478   7.497  11.768  0.00  0.00    +0.000 A 
ATOM      4  C   UNL     1      45.671   7.738  12.464  0.00  0.00    +0.000 A 
ATOM      5  C   UNL     1      46.426   6.644  12.903  0.00  0.00    +0.000 A 
ATOM      6  C   UNL     1      46.016   5.336  12.625  0.00  0.00    +0.000 A 
ENDROOT
BRANCH   1   7
ATOM      7  C   UNL     1      44.382   3.686  11.638  0.00  0.00    +0.000 C 
BRANCH   7  10
ATOM      8  O   UNL     1      44.045   4.110   8.896  0.00  0.00    +0.000 OA
ATOM      9  C   UNL     1      44.918   3.334   9.272  0.00  0.00    +0.000 C 
ATOM     10  N   UNL     1      45.156   3.053  10.602  0.00  0.00    +0.000 N 
ATOM     11  H   UNL     1      45.915   2.413  10.823  0.00  0.00    +0.000 HD
BRANCH   9  12
ATOM     12  C   UNL     1      45.808   2.631   8.292  0.00  0.00    +0.000 A 
ATOM     13  C   UNL     1      46.368   3.353   7.242  0.00  0.00    +0.000 A 
ATOM     14  C   UNL     1      47.190   2.683   6.342  0.00  0.00    +0.000 A 
ATOM     15  C   UNL     1      47.423   1.322   6.521  0.00  0.00    +0.000 A 
ATOM     16  C   UNL     1      46.821   0.683   7.598  0.00  0.00    +0.000 A 
ATOM     17  N   UNL     1      46.019   1.301   8.495  0.00  0.00    +0.000 NA
ENDBRANCH   9  12
ENDBRANCH   7  10
ENDBRANCH   1   7
BRANCH   4  18
ATOM     18  C   UNL     1      46.116   9.145  12.774  0.00  0.00    +0.000 C 
BRANCH  18  19
ATOM     19  N   UNL     1      47.398   9.428  12.182  0.00  0.00    +0.000 N 
ATOM     20  C   UNL     1      48.470   9.816  12.944  0.00  0.00    +0.000 C 
ATOM     21  O   UNL     1      48.406   9.888  14.169  0.00  0.00    +0.000 OA
ATOM     22  H   UNL     1      47.411   9.600  11.181  0.00  0.00    +0.000 HD
BRANCH  20  23
ATOM     23  C   UNL     1      49.723  10.084  12.226  0.00  0.00    +0.000 A 
ATOM     24  C   UNL     1      50.178  11.389  12.094  0.00  0.00    +0.000 A 
ATOM     25  S   UNL     1      51.676  11.516  11.290  0.00  0.00    +0.000 S 
ATOM     26  C   UNL     1      51.746   9.834  11.041  0.00  0.00    +0.000 A 
ATOM     27  N   UNL     1      52.790   9.269  10.377  0.00  0.00    +0.000 NA
ATOM     28  C   UNL     1      52.702   7.988  10.236  0.00  0.00    +0.000 A 
ATOM     29  N   UNL     1      51.664   7.222  10.699  0.00  0.00    +0.000 N 
ATOM     30  C   UNL     1      50.600   7.746  11.393  0.00  0.00    +0.000 A 
ATOM     31  O   UNL     1      49.702   7.027  11.819  0.00  0.00    +0.000 OA
ATOM     32  C   UNL     1      50.649   9.184  11.577  0.00  0.00    +0.000 A 
ATOM     33  H   UNL     1      51.655   6.222  10.559  0.00  0.00    +0.000 HD
ENDBRANCH  20  23
ENDBRANCH  18  19
ENDBRANCH   4  18
TORSDOF 6
ENDMDL
MODEL 4
REMARK VINA RESULT:    -7.139      1.941      2.204
REMARK INTER + INTRA:         -10.670
REMARK INTER:                  -9.966
REMARK INTRA:                  -0.704
REMARK UNBOUND:                -1.026
REMARK  Name = 
REMARK  6 active torsions:
REMARK  status: ('A' for Active; 'I' for Inactive)
REMARK    1  A    between atoms: C_2  and  C_25
REMARK    2  A    between atoms: N_3  and  C_4
REMARK    3  A    between atoms: C_4  and  C_5
REMARK    4  A    between atoms: C_8  and  C_9
REMARK    5  A    between atoms: C_9  and  N_10
REMARK    6  A    between atoms: C_11  and  C_13
REMARK                            x       y       z     vdW  Elec       q    Type
REMARK                         _______ _______ _______ _____ _____    ______ ____
ROOT
ATOM      1  C   UNL     1      44.835   5.563  11.499  0.00  0.00    +0.000 A 
ATOM      2  C   UNL     1      44.872   6.962  11.421  0.00  0.00    +0.000 A 
ATOM      3  C   UNL     1      45.759   7.697  12.214  0.00  0.00    +0.000 A 
ATOM      4  C   UNL     1      46.642   7.047  13.086  0.00  0.00    +0.000 A 
ATOM      5  C   UNL     1      46.597   5.650  13.172  0.00  0.00    +0.000 A 
ATOM      6  C   UNL     1      45.711   4.915  12.379  0.00  0.00    +0.000 A 
ENDROOT
BRANCH   1   7
ATOM      7  C   UNL     1      43.870   4.770  10.659  0.00  0.00    +0.000 C 
BRANCH   7  10
ATOM      8  O   UNL     1      45.461   5.237   8.410  0.00  0.00    +0.000 OA
ATOM      9  C   UNL     1      45.293   4.082   8.787  0.00  0.00    +0.000 C 
ATOM     10  N   UNL     1      44.519   3.749   9.879  0.00  0.00    +0.000 N 
ATOM     11  H   UNL     1      44.452   2.766  10.132  0.00  0.00    +0.000 HD
BRANCH   9  12
ATOM     12  C   UNL     1      45.935   2.930   8.074  0.00  0.00    +0.000 A 
ATOM     13  C   UNL     1      46.649   3.168   6.902  0.00  0.00    +0.000 A 
ATOM     14  C   UNL     1      47.238   2.087   6.255  0.00  0.00    +0.000 A 
ATOM     15  C   UNL     1      47.093   0.813   6.796  0.00  0.00    +0.000 A 
ATOM     16  C   UNL     1      46.361   0.669   7.968  0.00  0.00    +0.000 A 
ATOM     17  N   UNL     1      45.778   1.696   8.627  0.00  0.00    +0.000 NA
ENDBRANCH   9  12
ENDBRANCH   7  10
ENDBRANCH   1   7
BRANCH   4  18
ATOM     18  C   UNL     1      47.596   7.833  13.950  0.00  0.00    +0.000 C 
BRANCH  18  19
ATOM     19  N   UNL     1      47.925   7.112  15.153  0.00  0.00    +0.000 N 
ATOM     20  C   UNL     1      49.005   7.458  15.923  0.00  0.00    +0.000 C 
ATOM     21  O   UNL     1      49.710   8.428  15.658  0.00  0.00    +0.000 OA
ATOM     22  H   UNL     1      47.512   6.191  15.260  0.00  0.00    +0.000 HD
BRANCH  20  23
ATOM     23  C   UNL     1      49.243   6.644  17.123  0.00  0.00    +0.000 A 
ATOM     24  C   UNL     1      50.045   5.514  17.042  0.00  0.00    +0.000 A 
ATOM     25  S   UNL     1      50.267   4.722  18.536  0.00  0.00    +0.000 S 
ATOM     26  C   UNL     1      49.255   5.832  19.336  0.00  0.00    +0.000 A 
ATOM     27  N   UNL     1      48.999   5.710  20.667  0.00  0.00    +0.000 NA
ATOM     28  C   UNL     1      48.193   6.603  21.138  0.00  0.00    +0.000 A 
ATOM     29  N   UNL     1      47.622   7.606  20.400  0.00  0.00    +0.000 N 
ATOM     30  C   UNL     1      47.869   7.780  19.059  0.00  0.00    +0.000 A 
ATOM     31  O   UNL     1      47.363   8.707  18.434  0.00  0.00    +0.000 OA
ATOM     32  C   UNL     1      48.767   6.801  18.479  0.00  0.00    +0.000 A 
ATOM     33  H   UNL     1      47.002   8.277  20.829  0.00  0.00    +0.000 HD
ENDBRANCH  20  23
ENDBRANCH  18  19
ENDBRANCH   4  18
TORSDOF 6
ENDMDL
MODEL 5
REMARK VINA RESULT:    -7.060      2.545      4.323
REMARK INTER + INTRA:         -10.563
REMARK INTER:                  -9.520
REMARK INTRA:                  -1.043
REMARK UNBOUND:                -1.026
REMARK  Name = 
REMARK  6 active torsions:
REMARK  status: ('A' for Active; 'I' for Inactive)
REMARK    1  A    between atoms: C_2  and  C_25
REMARK    2  A    between atoms: N_3  and  C_4
REMARK    3  A    between atoms: C_4  and  C_5
REMARK    4  A    between atoms: C_8  and  C_9
REMARK    5  A    between atoms: C_9  and  N_10
REMARK    6  A    between atoms: C_11  and  C_13
REMARK                            x       y       z     vdW  Elec       q    Type
REMARK                         _______ _______ _______ _____ _____    ______ ____
ROOT
ATOM      1  C   UNL     1      44.966   4.669  11.599  0.00  0.00    +0.000 A 
ATOM      2  C   UNL     1      45.362   5.985  11.879  0.00  0.00    +0.000 A 
ATOM      3  C   UNL     1      46.180   6.265  12.977  0.00  0.00    +0.000 A 
ATOM      4  C   UNL     1      46.637   5.234  13.808  0.00  0.00    +0.000 A 
ATOM      5  C   UNL     1      46.233   3.920  13.535  0.00  0.00    +0.000 A 
ATOM      6  C   UNL     1      45.415   3.640  12.436  0.00  0.00    +0.000 A 
ENDROOT
BRANCH   1   7
ATOM      7  C   UNL     1      44.072   4.367  10.427  0.00  0.00    +0.000 C 
BRANCH   7  10
ATOM      8  O   UNL     1      45.931   5.300   8.560  0.00  0.00    +0.000 OA
ATOM      9  C   UNL     1      45.631   4.110   8.553  0.00  0.00    +0.000 C 
ATOM     10  N   UNL     1      44.720   3.557   9.428  0.00  0.00    +0.000 N 
ATOM     11  H   UNL     1      44.547   2.556   9.364  0.00  0.00    +0.000 HD
BRANCH   9  12
ATOM     12  C   UNL     1      46.254   3.158   7.578  0.00  0.00    +0.000 A 
ATOM     13  C   UNL     1      46.523   3.590   6.282  0.00  0.00    +0.000 A 
ATOM     14  C   UNL     1      47.101   2.691   5.391  0.00  0.00    +0.000 A 
ATOM     15  C   UNL     1      47.386   1.399   5.823  0.00  0.00    +0.000 A 
ATOM     16  C   UNL     1      47.082   1.055   7.134  0.00  0.00    +0.000 A 
ATOM     17  N   UNL     1      46.524   1.902   8.029  0.00  0.00    +0.000 NA
ENDBRANCH   9  12
ENDBRANCH   7  10
ENDBRANCH   1   7
BRANCH   4  18
ATOM     18  C   UNL     1      47.513   5.528  14.999  0.00  0.00    +0.000 C 
BRANCH  18  19
ATOM     19  N   UNL     1      48.124   6.828  14.889  0.00  0.00    +0.000 N 
ATOM     20  C   UNL     1      49.382   7.073  15.376  0.00  0.00    +0.000 C 
ATOM     21  O   UNL     1      50.070   6.187  15.877  0.00  0.00    +0.000 OA
ATOM     22  H   UNL     1      47.503   7.609  14.699  0.00  0.00    +0.000 HD
BRANCH  20  23
ATOM     23  C   UNL     1      49.896   8.439  15.210  0.00  0.00    +0.000 A 
ATOM     24  C   UNL     1      50.285   9.169  16.326  0.00  0.00    +0.000 A 
ATOM     25  S   UNL     1      50.914  10.709  15.952  0.00  0.00    +0.000 S 
ATOM     26  C   UNL     1      50.639  10.477  14.289  0.00  0.00    +0.000 A 
ATOM     27  N   UNL     1      50.947  11.449  13.388  0.00  0.00    +0.000 NA
ATOM     28  C   UNL     1      50.661  11.151  12.163  0.00  0.00    +0.000 A 
ATOM     29  N   UNL     1      50.098   9.969  11.759  0.00  0.00    +0.000 N 
ATOM     30  C   UNL     1      49.791   8.951  12.631  0.00  0.00    +0.000 A 
ATOM     31  O   UNL     1      49.314   7.894  12.232  0.00  0.00    +0.000 OA
ATOM     32  C   UNL     1      50.090   9.236  14.021  0.00  0.00    +0.000 A 
ATOM     33  H   UNL     1      49.902   9.795  10.785  0.00  0.00    +0.000 HD
ENDBRANCH  20  23
ENDBRANCH  18  19
ENDBRANCH   4  18
TORSDOF 6
ENDMDL
MODEL 6
REMARK VINA RESULT:    -6.989      3.357      8.710
REMARK INTER + INTRA:         -10.467
REMARK INTER:                  -9.513
REMARK INTRA:                  -0.954
REMARK UNBOUND:                -1.026
REMARK  Name = 
REMARK  6 active torsions:
REMARK  status: ('A' for Active; 'I' for Inactive)
REMARK    1  A    between atoms: C_2  and  C_25
REMARK    2  A    between atoms: N_3  and  C_4
REMARK    3  A    between atoms: C_4  and  C_5
REMARK    4  A    between atoms: C_8  and  C_9
REMARK    5  A    between atoms: C_9  and  N_10
REMARK    6  A    between atoms: C_11  and  C_13
REMARK                            x       y       z     vdW  Elec       q    Type
REMARK                         _______ _______ _______ _____ _____    ______ ____
ROOT
ATOM      1  C   UNL     1      50.328   7.359  15.397  0.00  0.00    +0.000 A 
ATOM      2  C   UNL     1      50.706   8.098  14.267  0.00  0.00    +0.000 A 
ATOM      3  C   UNL     1      49.837   8.230  13.179  0.00  0.00    +0.000 A 
ATOM      4  C   UNL     1      48.565   7.643  13.206  0.00  0.00    +0.000 A 
ATOM      5  C   UNL     1      48.192   6.896  14.332  0.00  0.00    +0.000 A 
ATOM      6  C   UNL     1      49.060   6.765  15.420  0.00  0.00    +0.000 A 
ENDROOT
BRANCH   1   7
ATOM      7  C   UNL     1      51.267   7.203  16.563  0.00  0.00    +0.000 C 
BRANCH   7  10
ATOM      8  O   UNL     1      50.350   5.432  18.520  0.00  0.00    +0.000 OA
ATOM      9  C   UNL     1      51.203   5.047  17.727  0.00  0.00    +0.000 C 
ATOM     10  N   UNL     1      51.724   5.848  16.732  0.00  0.00    +0.000 N 
ATOM     11  H   UNL     1      52.413   5.439  16.105  0.00  0.00    +0.000 HD
BRANCH   9  12
ATOM     12  C   UNL     1      51.742   3.649  17.782  0.00  0.00    +0.000 A 
ATOM     13  C   UNL     1      50.933   2.591  17.377  0.00  0.00    +0.000 A 
ATOM     14  C   UNL     1      51.450   1.301  17.436  0.00  0.00    +0.000 A 
ATOM     15  C   UNL     1      52.750   1.115  17.896  0.00  0.00    +0.000 A 
ATOM     16  C   UNL     1      53.485   2.229  18.281  0.00  0.00    +0.000 A 
ATOM     17  N   UNL     1      53.017   3.498  18.234  0.00  0.00    +0.000 NA
ENDBRANCH   9  12
ENDBRANCH   7  10
ENDBRANCH   1   7
BRANCH   4  18
ATOM     18  C   UNL     1      47.625   7.774  12.034  0.00  0.00    +0.000 C 
BRANCH  18  19
ATOM     19  N   UNL     1      46.927   6.538  11.785  0.00  0.00    +0.000 N 
ATOM     20  C   UNL     1      45.557   6.483  11.756  0.00  0.00    +0.000 C 
ATOM     21  O   UNL     1      44.862   7.487  11.885  0.00  0.00    +0.000 OA
ATOM     22  H   UNL     1      47.458   5.682  11.908  0.00  0.00    +0.000 HD
BRANCH  20  23
ATOM     23  C   UNL     1      44.960   5.166  11.499  0.00  0.00    +0.000 A 
ATOM     24  C   UNL     1      44.254   4.520  12.506  0.00  0.00    +0.000 A 
ATOM     25  S   UNL     1      43.575   3.033  12.022  0.00  0.00    +0.000 S 
ATOM     26  C   UNL     1      44.244   3.173  10.463  0.00  0.00    +0.000 A 
ATOM     27  N   UNL     1      44.053   2.200   9.532  0.00  0.00    +0.000 NA
ATOM     28  C   UNL     1      44.640   2.421   8.402  0.00  0.00    +0.000 A 
ATOM     29  N   UNL     1      45.397   3.527   8.120  0.00  0.00    +0.000 N 
ATOM     30  C   UNL     1      45.598   4.545   9.022  0.00  0.00    +0.000 A 
ATOM     31  O   UNL     1      46.259   5.536   8.727  0.00  0.00    +0.000 OA
ATOM     32  C   UNL     1      44.963   4.344  10.310  0.00  0.00    +0.000 A 
ATOM     33  H   UNL     1      45.827   3.644   7.215  0.00  0.00    +0.000 HD
ENDBRANCH  20  23
ENDBRANCH  18  19
ENDBRANCH   4  18
TORSDOF 6
ENDMDL
MODEL 7
REMARK VINA RESULT:    -6.822      3.868      8.687
REMARK INTER + INTRA:         -10.241
REMARK INTER:                  -9.309
REMARK INTRA:                  -0.931
REMARK UNBOUND:                -1.026
REMARK  Name = 
REMARK  6 active torsions:
REMARK  status: ('A' for Active; 'I' for Inactive)
REMARK    1  A    between atoms: C_2  and  C_25
REMARK    2  A    between atoms: N_3  and  C_4
REMARK    3  A    between atoms: C_4  and  C_5
REMARK    4  A    between atoms: C_8  and  C_9
REMARK    5  A    between atoms: C_9  and  N_10
REMARK    6  A    between atoms: C_11  and  C_13
REMARK                            x       y       z     vdW  Elec       q    Type
REMARK                         _______ _______ _______ _____ _____    ______ ____
ROOT
ATOM      1  C   UNL     1      48.961   4.730  17.388  0.00  0.00    +0.000 A 
ATOM      2  C   UNL     1      49.704   5.848  16.984  0.00  0.00    +0.000 A 
ATOM      3  C   UNL     1      49.379   6.533  15.808  0.00  0.00    +0.000 A 
ATOM      4  C   UNL     1      48.292   6.126  15.023  0.00  0.00    +0.000 A 
ATOM      5  C   UNL     1      47.557   5.002  15.422  0.00  0.00    +0.000 A 
ATOM      6  C   UNL     1      47.881   4.318  16.598  0.00  0.00    +0.000 A 
ENDROOT
BRANCH   1   7
ATOM      7  C   UNL     1      49.318   3.982  18.644  0.00  0.00    +0.000 C 
BRANCH   7  10
ATOM      8  O   UNL     1      50.130   1.823  17.068  0.00  0.00    +0.000 OA
ATOM      9  C   UNL     1      50.956   2.372  17.789  0.00  0.00    +0.000 C 
ATOM     10  N   UNL     1      50.651   3.439  18.609  0.00  0.00    +0.000 N 
ATOM     11  H   UNL     1      51.404   3.846  19.159  0.00  0.00    +0.000 HD
BRANCH   9  12
ATOM     12  C   UNL     1      52.384   1.916  17.824  0.00  0.00    +0.000 A 
ATOM     13  C   UNL     1      53.401   2.851  17.652  0.00  0.00    +0.000 A 
ATOM     14  C   UNL     1      54.720   2.408  17.687  0.00  0.00    +0.000 A 
ATOM     15  C   UNL     1      54.974   1.056  17.891  0.00  0.00    +0.000 A 
ATOM     16  C   UNL     1      53.896   0.194  18.053  0.00  0.00    +0.000 A 
ATOM     17  N   UNL     1      52.602   0.588  18.028  0.00  0.00    +0.000 NA
ENDBRANCH   9  12
ENDBRANCH   7  10
ENDBRANCH   1   7
BRANCH   4  18
ATOM     18  C   UNL     1      47.940   6.854  13.750  0.00  0.00    +0.000 C 
BRANCH  18  19
ATOM     19  N   UNL     1      47.267   5.983  12.821  0.00  0.00    +0.000 N 
ATOM     20  C   UNL     1      46.364   6.468  11.910  0.00  0.00    +0.000 C 
ATOM     21  O   UNL     1      46.126   7.668  11.804  0.00  0.00    +0.000 OA
ATOM     22  H   UNL     1      47.270   4.992  13.041  0.00  0.00    +0.000 HD
BRANCH  20  23
ATOM     23  C   UNL     1      45.737   5.482  11.019  0.00  0.00    +0.000 A 
ATOM     24  C   UNL     1      45.869   5.615   9.643  0.00  0.00    +0.000 A 
ATOM     25  S   UNL     1      45.135   4.354   8.759  0.00  0.00    +0.000 S 
ATOM     26  C   UNL     1      44.568   3.614  10.183  0.00  0.00    +0.000 A 
ATOM     27  N   UNL     1      43.829   2.473  10.130  0.00  0.00    +0.000 NA
ATOM     28  C   UNL     1      43.441   2.035  11.282  0.00  0.00    +0.000 A 
ATOM     29  N   UNL     1      43.726   2.634  12.480  0.00  0.00    +0.000 N 
ATOM     30  C   UNL     1      44.487   3.775  12.583  0.00  0.00    +0.000 A 
ATOM     31  O   UNL     1      44.747   4.269  13.676  0.00  0.00    +0.000 OA
ATOM     32  C   UNL     1      44.946   4.310  11.316  0.00  0.00    +0.000 A 
ATOM     33  H   UNL     1      43.395   2.240  13.348  0.00  0.00    +0.000 HD
ENDBRANCH  20  23
ENDBRANCH  18  19
ENDBRANCH   4  18
TORSDOF 6
ENDMDL
MODEL 8
REMARK VINA RESULT:    -6.552      4.914      7.607
REMARK INTER + INTRA:          -9.877
REMARK INTER:                  -9.002
REMARK INTRA:                  -0.875
REMARK UNBOUND:                -1.026
REMARK  Name = 
REMARK  6 active torsions:
REMARK  status: ('A' for Active; 'I' for Inactive)
REMARK    1  A    between atoms: C_2  and  C_25
REMARK    2  A    between atoms: N_3  and  C_4
REMARK    3  A    between atoms: C_4  and  C_5
REMARK    4  A    between atoms: C_8  and  C_9
REMARK    5  A    between atoms: C_9  and  N_10
REMARK    6  A    between atoms: C_11  and  C_13
REMARK                            x       y       z     vdW  Elec       q    Type
REMARK                         _______ _______ _______ _____ _____    ______ ____
ROOT
ATOM      1  C   UNL     1      50.603   8.600  12.325  0.00  0.00    +0.000 A 
ATOM      2  C   UNL     1      49.834   7.700  11.575  0.00  0.00    +0.000 A 
ATOM      3  C   UNL     1      48.466   7.549  11.825  0.00  0.00    +0.000 A 
ATOM      4  C   UNL     1      47.834   8.311  12.818  0.00  0.00    +0.000 A 
ATOM      5  C   UNL     1      48.606   9.202  13.575  0.00  0.00    +0.000 A 
ATOM      6  C   UNL     1      49.973   9.353  13.324  0.00  0.00    +0.000 A 
ENDROOT
BRANCH   1   7
ATOM      7  C   UNL     1      52.078   8.752  12.069  0.00  0.00    +0.000 C 
BRANCH   7  10
ATOM      8  O   UNL     1      52.745   9.159   9.386  0.00  0.00    +0.000 OA
ATOM      9  C   UNL     1      52.903   8.044   9.872  0.00  0.00    +0.000 C 
ATOM     10  N   UNL     1      52.596   7.742  11.183  0.00  0.00    +0.000 N 
ATOM     11  H   UNL     1      52.779   6.795  11.508  0.00  0.00    +0.000 HD
BRANCH   9  12
ATOM     12  C   UNL     1      53.458   6.913   9.060  0.00  0.00    +0.000 A 
ATOM     13  C   UNL     1      52.758   6.470   7.942  0.00  0.00    +0.000 A 
ATOM     14  C   UNL     1      53.289   5.419   7.201  0.00  0.00    +0.000 A 
ATOM     15  C   UNL     1      54.494   4.850   7.602  0.00  0.00    +0.000 A 
ATOM     16  C   UNL     1      55.123   5.355   8.732  0.00  0.00    +0.000 A 
ATOM     17  N   UNL     1      54.640   6.378   9.475  0.00  0.00    +0.000 NA
ENDBRANCH   9  12
ENDBRANCH   7  10
ENDBRANCH   1   7
BRANCH   4  18
ATOM     18  C   UNL     1      46.362   8.149  13.100  0.00  0.00    +0.000 C 
BRANCH  18  19
ATOM     19  N   UNL     1      45.907   6.827  12.753  0.00  0.00    +0.000 N 
ATOM     20  C   UNL     1      45.001   6.622  11.744  0.00  0.00    +0.000 C 
ATOM     21  O   UNL     1      44.576   7.545  11.053  0.00  0.00    +0.000 OA
ATOM     22  H   UNL     1      46.058   6.097  13.442  0.00  0.00    +0.000 HD
BRANCH  20  23
ATOM     23  C   UNL     1      44.608   5.231  11.488  0.00  0.00    +0.000 A 
ATOM     24  C   UNL     1      43.880   4.532  12.442  0.00  0.00    +0.000 A 
ATOM     25  S   UNL     1      43.454   2.953  11.959  0.00  0.00    +0.000 S 
ATOM     26  C   UNL     1      44.273   3.127  10.478  0.00  0.00    +0.000 A 
ATOM     27  N   UNL     1      44.315   2.106   9.579  0.00  0.00    +0.000 NA
ATOM     28  C   UNL     1      44.993   2.365   8.510  0.00  0.00    +0.000 A 
ATOM     29  N   UNL     1      45.631   3.551   8.259  0.00  0.00    +0.000 N 
ATOM     30  C   UNL     1      45.598   4.616   9.128  0.00  0.00    +0.000 A 
ATOM     31  O   UNL     1      46.157   5.674   8.858  0.00  0.00    +0.000 OA
ATOM     32  C   UNL     1      44.850   4.377  10.347  0.00  0.00    +0.000 A 
ATOM     33  H   UNL     1      46.143   3.692   7.401  0.00  0.00    +0.000 HD
ENDBRANCH  20  23
ENDBRANCH  18  19
ENDBRANCH   4  18
TORSDOF 6
ENDMDL
MODEL 9
REMARK VINA RESULT:    -6.548      5.806      8.166
REMARK INTER + INTRA:          -9.871
REMARK INTER:                  -8.936
REMARK INTRA:                  -0.935
REMARK UNBOUND:                -1.026
REMARK  Name = 
REMARK  6 active torsions:
REMARK  status: ('A' for Active; 'I' for Inactive)
REMARK    1  A    between atoms: C_2  and  C_25
REMARK    2  A    between atoms: N_3  and  C_4
REMARK    3  A    between atoms: C_4  and  C_5
REMARK    4  A    between atoms: C_8  and  C_9
REMARK    5  A    between atoms: C_9  and  N_10
REMARK    6  A    between atoms: C_11  and  C_13
REMARK                            x       y       z     vdW  Elec       q    Type
REMARK                         _______ _______ _______ _____ _____    ______ ____
ROOT
ATOM      1  C   UNL     1      49.226   7.080  13.948  0.00  0.00    +0.000 A 
ATOM      2  C   UNL     1      49.122   7.081  12.550  0.00  0.00    +0.000 A 
ATOM      3  C   UNL     1      50.021   7.814  11.769  0.00  0.00    +0.000 A 
ATOM      4  C   UNL     1      51.055   8.545  12.368  0.00  0.00    +0.000 A 
ATOM      5  C   UNL     1      51.152   8.553  13.766  0.00  0.00    +0.000 A 
ATOM      6  C   UNL     1      50.254   7.819  14.547  0.00  0.00    +0.000 A 
ENDROOT
BRANCH   1   7
ATOM      7  C   UNL     1      48.250   6.304  14.792  0.00  0.00    +0.000 C 
BRANCH   7  10
ATOM      8  O   UNL     1      47.367   3.735  14.138  0.00  0.00    +0.000 OA
ATOM      9  C   UNL     1      46.674   4.698  13.823  0.00  0.00    +0.000 C 
ATOM     10  N   UNL     1      47.028   6.003  14.094  0.00  0.00    +0.000 N 
ATOM     11  H   UNL     1      46.382   6.738  13.815  0.00  0.00    +0.000 HD
BRANCH   9  12
ATOM     12  C   UNL     1      45.366   4.515  13.114  0.00  0.00    +0.000 A 
ATOM     13  C   UNL     1      44.504   5.601  12.985  0.00  0.00    +0.000 A 
ATOM     14  C   UNL     1      43.295   5.411  12.324  0.00  0.00    +0.000 A 
ATOM     15  C   UNL     1      42.989   4.151  11.820  0.00  0.00    +0.000 A 
ATOM     16  C   UNL     1      43.908   3.125  11.997  0.00  0.00    +0.000 A 
ATOM     17  N   UNL     1      45.095   3.272  12.630  0.00  0.00    +0.000 NA
ENDBRANCH   9  12
ENDBRANCH   7  10
ENDBRANCH   1   7
BRANCH   4  18
ATOM     18  C   UNL     1      52.024   9.345  11.534  0.00  0.00    +0.000 C 
BRANCH  18  19
ATOM     19  N   UNL     1      52.216   8.744  10.239  0.00  0.00    +0.000 N 
ATOM     20  C   UNL     1      53.401   8.868   9.560  0.00  0.00    +0.000 C 
ATOM     21  O   UNL     1      54.371   9.447  10.043  0.00  0.00    +0.000 OA
ATOM     22  H   UNL     1      51.379   8.471   9.733  0.00  0.00    +0.000 HD
BRANCH  20  23
ATOM     23  C   UNL     1      53.476   8.217   8.246  0.00  0.00    +0.000 A 
ATOM     24  C   UNL     1      53.440   8.988   7.091  0.00  0.00    +0.000 A 
ATOM     25  S   UNL     1      53.599   8.081   5.656  0.00  0.00    +0.000 S 
ATOM     26  C   UNL     1      53.669   6.619   6.523  0.00  0.00    +0.000 A 
ATOM     27  N   UNL     1      53.787   5.428   5.877  0.00  0.00    +0.000 NA
ATOM     28  C   UNL     1      53.800   4.397   6.656  0.00  0.00    +0.000 A 
ATOM     29  N   UNL     1      53.707   4.450   8.022  0.00  0.00    +0.000 N 
ATOM     30  C   UNL     1      53.609   5.632   8.718  0.00  0.00    +0.000 A 
ATOM     31  O   UNL     1      53.557   5.644   9.944  0.00  0.00    +0.000 OA
ATOM     32  C   UNL     1      53.587   6.821   7.889  0.00  0.00    +0.000 A 
ATOM     33  H   UNL     1      53.727   3.607   8.576  0.00  0.00    +0.000 HD
ENDBRANCH  20  23
ENDBRANCH  18  19
ENDBRANCH   4  18
TORSDOF 6
ENDMDL
