MODEL 1
REMARK VINA RESULT:    -7.763      0.000      0.000
REMARK INTER + INTRA:         -11.334
REMARK INTER:                 -10.486
REMARK INTRA:                  -0.848
REMARK UNBOUND:                -0.848
REMARK  Name = 
REMARK  8 active torsions:
REMARK  status: ('A' for Active; 'I' for Inactive)
REMARK    1  A    between atoms: C_1  and  C_2
REMARK    2  A    between atoms: C_4  and  N_5
REMARK    3  A    between atoms: N_5  and  C_6
REMARK    4  A    between atoms: C_6  and  C_7
REMARK    5  A    between atoms: C_10  and  C_11
REMARK    6  A    between atoms: C_11  and  N_12
REMARK    7  A    between atoms: C_13  and  C_15
REMARK    8  A    between atoms: C_28  and  C_29
REMARK                            x       y       z     vdW  Elec       q    Type
REMARK                         _______ _______ _______ _____ _____    ______ ____
ROOT
ATOM      1  C   UNL     1      45.089   4.761  11.175  0.00  0.00    +0.000 A 
ATOM      2  C   UNL     1      45.709   5.974  10.839  0.00  0.00    +0.000 A 
ATOM      3  C   UNL     1      46.659   6.556  11.689  0.00  0.00    +0.000 A 
ATOM      4  C   UNL     1      47.033   5.932  12.887  0.00  0.00    +0.000 A 
ATOM      5  C   UNL     1      46.420   4.715  13.219  0.00  0.00    +0.000 A 
ATOM      6  C   UNL     1      45.469   4.131  12.368  0.00  0.00    +0.000 A 
ENDROOT
BRANCH   1   7
ATOM      7  C   UNL     1      43.993   4.189  10.303  0.00  0.00    +0.000 C 
BRANCH   7   8
ATOM      8  N   UNL     1      44.262   2.841   9.862  0.00  0.00    +0.000 N 
ATOM      9  H   UNL     1      43.880   2.052  10.369  0.00  0.00    +0.000 HD
BRANCH   8  13
ATOM     10  C   UNL     1      47.032   3.932   5.929  0.00  0.00    +0.000 C 
ATOM     11  C   UNL     1      46.471   2.993   6.952  0.00  0.00    +0.000 A 
ATOM     12  C   UNL     1      45.606   3.438   7.931  0.00  0.00    +0.000 A 
ATOM     13  C   UNL     1      45.132   2.516   8.845  0.00  0.00    +0.000 A 
ATOM     14  N   UNL     1      45.499   1.224   8.774  0.00  0.00    +0.000 NA
ATOM     15  C   UNL     1      46.339   0.865   7.780  0.00  0.00    +0.000 A 
ATOM     16  C   UNL     1      46.754  -0.570   7.676  0.00  0.00    +0.000 C 
ATOM     17  N   UNL     1      46.844   1.703   6.860  0.00  0.00    +0.000 NA
ENDBRANCH   8  13
ENDBRANCH   7   8
ENDBRANCH   1   7
BRANCH   4  18
ATOM     18  C   UNL     1      48.162   6.484  13.719  0.00  0.00    +0.000 C 
BRANCH  18  19
ATOM     19  N   UNL     1      47.923   6.636  15.139  0.00  0.00    +0.000 N 
ATOM     20  C   UNL     1      49.034   6.715  15.957  0.00  0.00    +0.000 C 
ATOM     21  O   UNL     1      50.166   6.652  15.474  0.00  0.00    +0.000 OA
ATOM     22  H   UNL     1      46.995   6.871  15.487  0.00  0.00    +0.000 HD
BRANCH  20  23
ATOM     23  C   UNL     1      48.870   6.816  17.413  0.00  0.00    +0.000 A 
ATOM     24  C   UNL     1      49.060   8.051  18.028  0.00  0.00    +0.000 A 
ATOM     25  S   UNL     1      49.059   7.984  19.730  0.00  0.00    +0.000 S 
ATOM     26  C   UNL     1      48.868   6.295  19.701  0.00  0.00    +0.000 A 
ATOM     27  N   UNL     1      48.984   5.558  20.838  0.00  0.00    +0.000 NA
ATOM     28  C   UNL     1      48.843   4.287  20.657  0.00  0.00    +0.000 A 
ATOM     29  N   UNL     1      48.514   3.697  19.462  0.00  0.00    +0.000 N 
ATOM     30  C   UNL     1      48.296   4.418  18.308  0.00  0.00    +0.000 A 
ATOM     31  O   UNL     1      47.836   3.906  17.294  0.00  0.00    +0.000 OA
ATOM     32  C   UNL     1      48.625   5.822  18.422  0.00  0.00    +0.000 A 
ATOM     33  H   UNL     1      48.324   2.708  19.416  0.00  0.00    +0.000 HD
ENDBRANCH  20  23
ENDBRANCH  18  19
ENDBRANCH   4  18
TORSDOF 6
ENDMDL
MODEL 2
REMARK VINA RESULT:    -7.528      5.134      9.895
REMARK INTER + INTRA:         -11.017
REMARK INTER:                 -10.273
REMARK INTRA:                  -0.744
REMARK UNBOUND:                -0.848
REMARK  Name = 
REMARK  8 active torsions:
REMARK  status: ('A' for Active; 'I' for Inactive)
REMARK    1  A    between atoms: C_1  and  C_2
REMARK    2  A    between atoms: C_4  and  N_5
REMARK    3  A    between atoms: N_5  and  C_6
REMARK    4  A    between atoms: C_6  and  C_7
REMARK    5  A    between atoms: C_10  and  C_11
REMARK    6  A    between atoms: C_11  and  N_12
REMARK    7  A    between atoms: C_13  and  C_15
REMARK    8  A    between atoms: C_28  and  C_29
REMARK                            x       y       z     vdW  Elec       q    Type
REMARK                         _______ _______ _______ _____ _____    ______ ____
ROOT
ATOM      1  C   UNL     1      51.534   3.266  17.757  0.00  0.00    +0.000 A 
ATOM      2  C   UNL     1      50.833   4.478  17.838  0.00  0.00    +0.000 A 
ATOM      3  C   UNL     1      49.478   4.551  17.487  0.00  0.00    +0.000 A 
ATOM      4  C   UNL     1      48.780   3.410  17.068  0.00  0.00    +0.000 A 
ATOM      5  C   UNL     1      49.478   2.195  16.996  0.00  0.00    +0.000 A 
ATOM      6  C   UNL     1      50.834   2.122  17.347  0.00  0.00    +0.000 A 
ENDROOT
BRANCH   1   7
ATOM      7  C   UNL     1      53.020   3.214  18.040  0.00  0.00    +0.000 C 
BRANCH   7   8
ATOM      8  N   UNL     1      53.393   2.136  18.925  0.00  0.00    +0.000 N 
ATOM      9  H   UNL     1      53.173   2.186  19.912  0.00  0.00    +0.000 HD
BRANCH   8  13
ATOM     10  C   UNL     1      55.775  -0.627  15.605  0.00  0.00    +0.000 C 
ATOM     11  C   UNL     1      55.318  -0.300  16.993  0.00  0.00    +0.000 A 
ATOM     12  C   UNL     1      54.546   0.816  17.245  0.00  0.00    +0.000 A 
ATOM     13  C   UNL     1      54.166   1.059  18.552  0.00  0.00    +0.000 A 
ATOM     14  N   UNL     1      54.534   0.227  19.543  0.00  0.00    +0.000 NA
ATOM     15  C   UNL     1      55.279  -0.848  19.213  0.00  0.00    +0.000 A 
ATOM     16  C   UNL     1      55.692  -1.794  20.299  0.00  0.00    +0.000 C 
ATOM     17  N   UNL     1      55.691  -1.148  17.970  0.00  0.00    +0.000 NA
ENDBRANCH   8  13
ENDBRANCH   7   8
ENDBRANCH   1   7
BRANCH   4  18
ATOM     18  C   UNL     1      47.291   3.464  16.841  0.00  0.00    +0.000 C 
BRANCH  18  19
ATOM     19  N   UNL     1      46.808   4.408  15.855  0.00  0.00    +0.000 N 
ATOM     20  C   UNL     1      46.900   4.031  14.528  0.00  0.00    +0.000 C 
ATOM     21  O   UNL     1      47.378   2.936  14.226  0.00  0.00    +0.000 OA
ATOM     22  H   UNL     1      46.253   5.215  16.135  0.00  0.00    +0.000 HD
BRANCH  20  23
ATOM     23  C   UNL     1      46.480   4.958  13.469  0.00  0.00    +0.000 A 
ATOM     24  C   UNL     1      47.268   6.074  13.201  0.00  0.00    +0.000 A 
ATOM     25  S   UNL     1      46.557   7.176  12.113  0.00  0.00    +0.000 S 
ATOM     26  C   UNL     1      45.149   6.229  12.014  0.00  0.00    +0.000 A 
ATOM     27  N   UNL     1      44.035   6.695  11.388  0.00  0.00    +0.000 NA
ATOM     28  C   UNL     1      43.036   5.878  11.417  0.00  0.00    +0.000 A 
ATOM     29  N   UNL     1      43.076   4.608  11.939  0.00  0.00    +0.000 N 
ATOM     30  C   UNL     1      44.213   4.066  12.497  0.00  0.00    +0.000 A 
ATOM     31  O   UNL     1      44.291   2.881  12.801  0.00  0.00    +0.000 OA
ATOM     32  C   UNL     1      45.298   5.009  12.653  0.00  0.00    +0.000 A 
ATOM     33  H   UNL     1      42.285   3.990  11.839  0.00  0.00    +0.000 HD
ENDBRANCH  20  23
ENDBRANCH  18  19
ENDBRANCH   4  18
TORSDOF 6
ENDMDL
MODEL 3
REMARK VINA RESULT:    -7.324      3.681      8.624
REMARK INTER + INTRA:         -10.742
REMARK INTER:                  -9.828
REMARK INTRA:                  -0.913
REMARK UNBOUND:                -0.848
REMARK  Name = 
REMARK  8 active torsions:
REMARK  status: ('A' for Active; 'I' for Inactive)
REMARK    1  A    between atoms: C_1  and  C_2
REMARK    2  A    between atoms: C_4  and  N_5
REMARK    3  A    between atoms: N_5  and  C_6
REMARK    4  A    between atoms: C_6  and  C_7
REMARK    5  A    between atoms: C_10  and  C_11
REMARK    6  A    between atoms: C_11  and  N_12
REMARK    7  A    between atoms: C_13  and  C_15
REMARK    8  A    between atoms: C_28  and  C_29
REMARK                            x       y       z     vdW  Elec       q    Type
REMARK                         _______ _______ _______ _____ _____    ______ ____
ROOT
ATOM      1  C   UNL     1      49.953   7.690  16.117  0.00  0.00    +0.000 A 
ATOM      2  C   UNL     1      48.691   8.303  16.123  0.00  0.00    +0.000 A 
ATOM      3  C   UNL     1      48.059   8.659  14.924  0.00  0.00    +0.000 A 
ATOM      4  C   UNL     1      48.659   8.391  13.686  0.00  0.00    +0.000 A 
ATOM      5  C   UNL     1      49.916   7.770  13.679  0.00  0.00    +0.000 A 
ATOM      6  C   UNL     1      50.551   7.414  14.879  0.00  0.00    +0.000 A 
ENDROOT
BRANCH   1   7
ATOM      7  C   UNL     1      50.675   7.400  17.415  0.00  0.00    +0.000 C 
BRANCH   7   8
ATOM      8  N   UNL     1      51.318   6.108  17.432  0.00  0.00    +0.000 N 
ATOM      9  H   UNL     1      52.326   6.038  17.376  0.00  0.00    +0.000 HD
BRANCH   8  13
ATOM     10  C   UNL     1      47.222   3.365  17.263  0.00  0.00    +0.000 C 
ATOM     11  C   UNL     1      48.707   3.550  17.313  0.00  0.00    +0.000 A 
ATOM     12  C   UNL     1      49.268   4.811  17.349  0.00  0.00    +0.000 A 
ATOM     13  C   UNL     1      50.646   4.906  17.389  0.00  0.00    +0.000 A 
ATOM     14  N   UNL     1      51.414   3.801  17.401  0.00  0.00    +0.000 NA
ATOM     15  C   UNL     1      50.789   2.605  17.376  0.00  0.00    +0.000 A 
ATOM     16  C   UNL     1      51.623   1.361  17.397  0.00  0.00    +0.000 C 
ATOM     17  N   UNL     1      49.458   2.433  17.331  0.00  0.00    +0.000 NA
ENDBRANCH   8  13
ENDBRANCH   7   8
ENDBRANCH   1   7
BRANCH   4  18
ATOM     18  C   UNL     1      47.907   8.636  12.402  0.00  0.00    +0.000 C 
BRANCH  18  19
ATOM     19  N   UNL     1      47.521   7.471  11.632  0.00  0.00    +0.000 N 
ATOM     20  C   UNL     1      46.241   6.987  11.827  0.00  0.00    +0.000 C 
ATOM     21  O   UNL     1      45.484   7.538  12.628  0.00  0.00    +0.000 OA
ATOM     22  H   UNL     1      48.091   7.153  10.851  0.00  0.00    +0.000 HD
BRANCH  20  23
ATOM     23  C   UNL     1      45.796   5.778  11.121  0.00  0.00    +0.000 A 
ATOM     24  C   UNL     1      45.917   5.726   9.735  0.00  0.00    +0.000 A 
ATOM     25  S   UNL     1      45.165   4.371   9.027  0.00  0.00    +0.000 S 
ATOM     26  C   UNL     1      44.600   3.845  10.541  0.00  0.00    +0.000 A 
ATOM     27  N   UNL     1      43.706   2.825  10.639  0.00  0.00    +0.000 NA
ATOM     28  C   UNL     1      43.347   2.555  11.849  0.00  0.00    +0.000 A 
ATOM     29  N   UNL     1      43.862   3.155  12.972  0.00  0.00    +0.000 N 
ATOM     30  C   UNL     1      44.837   4.126  12.919  0.00  0.00    +0.000 A 
ATOM     31  O   UNL     1      45.413   4.531  13.923  0.00  0.00    +0.000 OA
ATOM     32  C   UNL     1      45.133   4.589  11.581  0.00  0.00    +0.000 A 
ATOM     33  H   UNL     1      43.605   2.825  13.890  0.00  0.00    +0.000 HD
ENDBRANCH  20  23
ENDBRANCH  18  19
ENDBRANCH   4  18
TORSDOF 6
ENDMDL
MODEL 4
REMARK VINA RESULT:    -7.298      1.459      2.342
REMARK INTER + INTRA:         -10.706
REMARK INTER:                  -9.834
REMARK INTRA:                  -0.873
REMARK UNBOUND:                -0.848
REMARK  Name = 
REMARK  8 active torsions:
REMARK  status: ('A' for Active; 'I' for Inactive)
REMARK    1  A    between atoms: C_1  and  C_2
REMARK    2  A    between atoms: C_4  and  N_5
REMARK    3  A    between atoms: N_5  and  C_6
REMARK    4  A    between atoms: C_6  and  C_7
REMARK    5  A    between atoms: C_10  and  C_11
REMARK    6  A    between atoms: C_11  and  N_12
REMARK    7  A    between atoms: C_13  and  C_15
REMARK    8  A    between atoms: C_28  and  C_29
REMARK                            x       y       z     vdW  Elec       q    Type
REMARK                         _______ _______ _______ _____ _____    ______ ____
ROOT
ATOM      1  C   UNL     1      45.066   4.204  11.375  0.00  0.00    +0.000 A 
ATOM      2  C   UNL     1      45.350   5.518  10.973  0.00  0.00    +0.000 A 
ATOM      3  C   UNL     1      46.148   6.356  11.764  0.00  0.00    +0.000 A 
ATOM      4  C   UNL     1      46.703   5.898  12.966  0.00  0.00    +0.000 A 
ATOM      5  C   UNL     1      46.427   4.582  13.365  0.00  0.00    +0.000 A 
ATOM      6  C   UNL     1      45.628   3.742  12.574  0.00  0.00    +0.000 A 
ENDROOT
BRANCH   1   7
ATOM      7  C   UNL     1      44.123   3.338  10.568  0.00  0.00    +0.000 C 
BRANCH   7   8
ATOM      8  N   UNL     1      44.237   3.545   9.145  0.00  0.00    +0.000 N 
ATOM      9  H   UNL     1      43.576   4.139   8.661  0.00  0.00    +0.000 HD
BRANCH   8  13
ATOM     10  C   UNL     1      46.825  -0.429   7.788  0.00  0.00    +0.000 C 
ATOM     11  C   UNL     1      46.393   0.998   7.648  0.00  0.00    +0.000 A 
ATOM     12  C   UNL     1      45.486   1.557   8.526  0.00  0.00    +0.000 A 
ATOM     13  C   UNL     1      45.128   2.878   8.332  0.00  0.00    +0.000 A 
ATOM     14  N   UNL     1      45.655   3.595   7.323  0.00  0.00    +0.000 NA
ATOM     15  C   UNL     1      46.543   2.979   6.516  0.00  0.00    +0.000 A 
ATOM     16  C   UNL     1      47.150   3.760   5.391  0.00  0.00    +0.000 C 
ATOM     17  N   UNL     1      46.936   1.700   6.637  0.00  0.00    +0.000 NA
ENDBRANCH   8  13
ENDBRANCH   7   8
ENDBRANCH   1   7
BRANCH   4  18
ATOM     18  C   UNL     1      47.682   6.752  13.732  0.00  0.00    +0.000 C 
BRANCH  18  19
ATOM     19  N   UNL     1      47.842   6.467  15.143  0.00  0.00    +0.000 N 
ATOM     20  C   UNL     1      49.120   6.564  15.661  0.00  0.00    +0.000 C 
ATOM     21  O   UNL     1      50.063   6.877  14.932  0.00  0.00    +0.000 OA
ATOM     22  H   UNL     1      47.030   6.395  15.754  0.00  0.00    +0.000 HD
BRANCH  20  23
ATOM     23  C   UNL     1      49.369   6.238  17.071  0.00  0.00    +0.000 A 
ATOM     24  C   UNL     1      50.176   5.146  17.377  0.00  0.00    +0.000 A 
ATOM     25  S   UNL     1      50.201   4.747  19.033  0.00  0.00    +0.000 S 
ATOM     26  C   UNL     1      49.086   5.981  19.386  0.00  0.00    +0.000 A 
ATOM     27  N   UNL     1      48.514   6.077  20.616  0.00  0.00    +0.000 NA
ATOM     28  C   UNL     1      47.666   7.045  20.728  0.00  0.00    +0.000 A 
ATOM     29  N   UNL     1      47.403   7.972  19.750  0.00  0.00    +0.000 N 
ATOM     30  C   UNL     1      48.031   7.964  18.524  0.00  0.00    +0.000 A 
ATOM     31  O   UNL     1      47.920   8.889  17.726  0.00  0.00    +0.000 OA
ATOM     32  C   UNL     1      48.846   6.793  18.290  0.00  0.00    +0.000 A 
ATOM     33  H   UNL     1      46.801   8.759  19.942  0.00  0.00    +0.000 HD
ENDBRANCH  20  23
ENDBRANCH  18  19
ENDBRANCH   4  18
TORSDOF 6
ENDMDL
MODEL 5
REMARK VINA RESULT:    -7.289      3.571      8.792
REMARK INTER + INTRA:         -10.694
REMARK INTER:                  -9.461
REMARK INTRA:                  -1.233
REMARK UNBOUND:                -0.848
REMARK  Name = 
REMARK  8 active torsions:
REMARK  status: ('A' for Active; 'I' for Inactive)
REMARK    1  A    between atoms: C_1  and  C_2
REMARK    2  A    between atoms: C_4  and  N_5
REMARK    3  A    between atoms: N_5  and  C_6
REMARK    4  A    between atoms: C_6  and  C_7
REMARK    5  A    between atoms: C_10  and  C_11
REMARK    6  A    between atoms: C_11  and  N_12
REMARK    7  A    between atoms: C_13  and  C_15
REMARK    8  A    between atoms: C_28  and  C_29
REMARK                            x       y       z     vdW  Elec       q    Type
REMARK                         _______ _______ _______ _____ _____    ______ ____
ROOT
ATOM      1  C   UNL     1      49.905   8.072  16.350  0.00  0.00    +0.000 A 
ATOM      2  C   UNL     1      50.448   7.514  15.183  0.00  0.00    +0.000 A 
ATOM      3  C   UNL     1      49.777   7.617  13.957  0.00  0.00    +0.000 A 
ATOM      4  C   UNL     1      48.558   8.301  13.857  0.00  0.00    +0.000 A 
ATOM      5  C   UNL     1      48.019   8.867  15.022  0.00  0.00    +0.000 A 
ATOM      6  C   UNL     1      48.690   8.764  16.250  0.00  0.00    +0.000 A 
ENDROOT
BRANCH   1   7
ATOM      7  C   UNL     1      50.583   7.871  17.688  0.00  0.00    +0.000 C 
BRANCH   7   8
ATOM      8  N   UNL     1      49.943   6.869  18.506  0.00  0.00    +0.000 N 
ATOM      9  H   UNL     1      49.620   7.099  19.437  0.00  0.00    +0.000 HD
BRANCH   8  13
ATOM     10  C   UNL     1      51.832   2.397  17.629  0.00  0.00    +0.000 C 
ATOM     11  C   UNL     1      50.704   3.378  17.728  0.00  0.00    +0.000 A 
ATOM     12  C   UNL     1      50.930   4.691  18.086  0.00  0.00    +0.000 A 
ATOM     13  C   UNL     1      49.841   5.538  18.163  0.00  0.00    +0.000 A 
ATOM     14  N   UNL     1      48.601   5.094  17.889  0.00  0.00    +0.000 NA
ATOM     15  C   UNL     1      48.465   3.799  17.535  0.00  0.00    +0.000 A 
ATOM     16  C   UNL     1      47.094   3.284  17.216  0.00  0.00    +0.000 C 
ATOM     17  N   UNL     1      49.472   2.916  17.443  0.00  0.00    +0.000 NA
ENDBRANCH   8  13
ENDBRANCH   7   8
ENDBRANCH   1   7
BRANCH   4  18
ATOM     18  C   UNL     1      47.921   8.540  12.512  0.00  0.00    +0.000 C 
BRANCH  18  19
ATOM     19  N   UNL     1      47.544   7.371  11.744  0.00  0.00    +0.000 N 
ATOM     20  C   UNL     1      46.225   6.964  11.829  0.00  0.00    +0.000 C 
ATOM     21  O   UNL     1      45.428   7.585  12.535  0.00  0.00    +0.000 OA
ATOM     22  H   UNL     1      48.166   6.993  11.033  0.00  0.00    +0.000 HD
BRANCH  20  23
ATOM     23  C   UNL     1      45.780   5.756  11.121  0.00  0.00    +0.000 A 
ATOM     24  C   UNL     1      45.894   5.709   9.735  0.00  0.00    +0.000 A 
ATOM     25  S   UNL     1      45.143   4.354   9.025  0.00  0.00    +0.000 S 
ATOM     26  C   UNL     1      44.587   3.821  10.540  0.00  0.00    +0.000 A 
ATOM     27  N   UNL     1      43.698   2.798  10.640  0.00  0.00    +0.000 NA
ATOM     28  C   UNL     1      43.345   2.522  11.851  0.00  0.00    +0.000 A 
ATOM     29  N   UNL     1      43.864   3.120  12.973  0.00  0.00    +0.000 N 
ATOM     30  C   UNL     1      44.836   4.095  12.918  0.00  0.00    +0.000 A 
ATOM     31  O   UNL     1      45.416   4.498  13.921  0.00  0.00    +0.000 OA
ATOM     32  C   UNL     1      45.123   4.563  11.581  0.00  0.00    +0.000 A 
ATOM     33  H   UNL     1      43.613   2.786  13.891  0.00  0.00    +0.000 HD
ENDBRANCH  20  23
ENDBRANCH  18  19
ENDBRANCH   4  18
TORSDOF 6
ENDMDL
MODEL 6
REMARK VINA RESULT:    -7.103      1.743      2.092
REMARK INTER + INTRA:         -10.443
REMARK INTER:                  -9.628
REMARK INTRA:                  -0.815
REMARK UNBOUND:                -0.848
REMARK  Name = 
REMARK  8 active torsions:
REMARK  status: ('A' for Active; 'I' for Inactive)
REMARK    1  A    between atoms: C_1  and  C_2
REMARK    2  A    between atoms: C_4  and  N_5
REMARK    3  A    between atoms: N_5  and  C_6
REMARK    4  A    between atoms: C_6  and  C_7
REMARK    5  A    between atoms: C_10  and  C_11
REMARK    6  A    between atoms: C_11  and  N_12
REMARK    7  A    between atoms: C_13  and  C_15
REMARK    8  A    between atoms: C_28  and  C_29
REMARK                            x       y       z     vdW  Elec       q    Type
REMARK                         _______ _______ _______ _____ _____    ______ ____
ROOT
ATOM      1  C   UNL     1      44.699   4.735  11.255  0.00  0.00    +0.000 A 
ATOM      2  C   UNL     1      44.869   4.503  12.628  0.00  0.00    +0.000 A 
ATOM      3  C   UNL     1      45.784   5.257  13.376  0.00  0.00    +0.000 A 
ATOM      4  C   UNL     1      46.537   6.277  12.779  0.00  0.00    +0.000 A 
ATOM      5  C   UNL     1      46.360   6.515  11.408  0.00  0.00    +0.000 A 
ATOM      6  C   UNL     1      45.444   5.762  10.658  0.00  0.00    +0.000 A 
ENDROOT
BRANCH   1   7
ATOM      7  C   UNL     1      43.785   3.853  10.432  0.00  0.00    +0.000 C 
BRANCH   7   8
ATOM      8  N   UNL     1      44.366   2.571  10.113  0.00  0.00    +0.000 N 
ATOM      9  H   UNL     1      44.266   1.792  10.750  0.00  0.00    +0.000 HD
BRANCH   8  13
ATOM     10  C   UNL     1      46.950   4.012   6.165  0.00  0.00    +0.000 C 
ATOM     11  C   UNL     1      46.437   2.985   7.127  0.00  0.00    +0.000 A 
ATOM     12  C   UNL     1      45.619   3.340   8.181  0.00  0.00    +0.000 A 
ATOM     13  C   UNL     1      45.188   2.340   9.031  0.00  0.00    +0.000 A 
ATOM     14  N   UNL     1      45.550   1.060   8.831  0.00  0.00    +0.000 NA
ATOM     15  C   UNL     1      46.342   0.793   7.771  0.00  0.00    +0.000 A 
ATOM     16  C   UNL     1      46.751  -0.627   7.523  0.00  0.00    +0.000 C 
ATOM     17  N   UNL     1      46.805   1.710   6.905  0.00  0.00    +0.000 NA
ENDBRANCH   8  13
ENDBRANCH   7   8
ENDBRANCH   1   7
BRANCH   4  18
ATOM     18  C   UNL     1      47.402   7.182  13.618  0.00  0.00    +0.000 C 
BRANCH  18  19
ATOM     19  N   UNL     1      48.421   6.551  14.432  0.00  0.00    +0.000 N 
ATOM     20  C   UNL     1      49.113   7.364  15.312  0.00  0.00    +0.000 C 
ATOM     21  O   UNL     1      48.856   8.567  15.377  0.00  0.00    +0.000 OA
ATOM     22  H   UNL     1      48.483   5.536  14.493  0.00  0.00    +0.000 HD
BRANCH  20  23
ATOM     23  C   UNL     1      50.196   6.805  16.131  0.00  0.00    +0.000 A 
ATOM     24  C   UNL     1      51.426   7.458  16.155  0.00  0.00    +0.000 A 
ATOM     25  S   UNL     1      52.653   6.591  16.959  0.00  0.00    +0.000 S 
ATOM     26  C   UNL     1      51.598   5.290  17.246  0.00  0.00    +0.000 A 
ATOM     27  N   UNL     1      52.060   4.108  17.735  0.00  0.00    +0.000 NA
ATOM     28  C   UNL     1      51.149   3.204  17.874  0.00  0.00    +0.000 A 
ATOM     29  N   UNL     1      49.809   3.400  17.650  0.00  0.00    +0.000 N 
ATOM     30  C   UNL     1      49.289   4.610  17.244  0.00  0.00    +0.000 A 
ATOM     31  O   UNL     1      48.083   4.826  17.213  0.00  0.00    +0.000 OA
ATOM     32  C   UNL     1      50.292   5.593  16.897  0.00  0.00    +0.000 A 
ATOM     33  H   UNL     1      49.143   2.677  17.873  0.00  0.00    +0.000 HD
ENDBRANCH  20  23
ENDBRANCH  18  19
ENDBRANCH   4  18
TORSDOF 6
ENDMDL
MODEL 7
REMARK VINA RESULT:    -7.072      5.239      8.389
REMARK INTER + INTRA:         -10.402
REMARK INTER:                  -9.222
REMARK INTRA:                  -1.179
REMARK UNBOUND:                -0.848
REMARK  Name = 
REMARK  8 active torsions:
REMARK  status: ('A' for Active; 'I' for Inactive)
REMARK    1  A    between atoms: C_1  and  C_2
REMARK    2  A    between atoms: C_4  and  N_5
REMARK    3  A    between atoms: N_5  and  C_6
REMARK    4  A    between atoms: C_6  and  C_7
REMARK    5  A    between atoms: C_10  and  C_11
REMARK    6  A    between atoms: C_11  and  N_12
REMARK    7  A    between atoms: C_13  and  C_15
REMARK    8  A    between atoms: C_28  and  C_29
REMARK                            x       y       z     vdW  Elec       q    Type
REMARK                         _______ _______ _______ _____ _____    ______ ____
ROOT
ATOM      1  C   UNL     1      50.688   9.051  11.172  0.00  0.00    +0.000 A 
ATOM      2  C   UNL     1      49.655   9.996  11.263  0.00  0.00    +0.000 A 
ATOM      3  C   UNL     1      48.402   9.643  11.783  0.00  0.00    +0.000 A 
ATOM      4  C   UNL     1      48.154   8.344  12.249  0.00  0.00    +0.000 A 
ATOM      5  C   UNL     1      49.190   7.402  12.166  0.00  0.00    +0.000 A 
ATOM      6  C   UNL     1      50.444   7.754  11.645  0.00  0.00    +0.000 A 
ENDROOT
BRANCH   1   7
ATOM      7  C   UNL     1      52.005   9.410  10.517  0.00  0.00    +0.000 C 
BRANCH   7   8
ATOM      8  N   UNL     1      52.799   8.257  10.166  0.00  0.00    +0.000 N 
ATOM      9  H   UNL     1      53.415   7.835  10.849  0.00  0.00    +0.000 HD
BRANCH   8  13
ATOM     10  C   UNL     1      53.375   4.551   6.962  0.00  0.00    +0.000 C 
ATOM     11  C   UNL     1      53.168   5.991   7.320  0.00  0.00    +0.000 A 
ATOM     12  C   UNL     1      53.088   6.393   8.638  0.00  0.00    +0.000 A 
ATOM     13  C   UNL     1      52.890   7.737   8.894  0.00  0.00    +0.000 A 
ATOM     14  N   UNL     1      52.787   8.623   7.887  0.00  0.00    +0.000 NA
ATOM     15  C   UNL     1      52.887   8.152   6.626  0.00  0.00    +0.000 A 
ATOM     16  C   UNL     1      52.784   9.121   5.489  0.00  0.00    +0.000 C 
ATOM     17  N   UNL     1      53.074   6.862   6.299  0.00  0.00    +0.000 NA
ENDBRANCH   8  13
ENDBRANCH   7   8
ENDBRANCH   1   7
BRANCH   4  18
ATOM     18  C   UNL     1      46.859   8.015  12.946  0.00  0.00    +0.000 C 
BRANCH  18  19
ATOM     19  N   UNL     1      45.943   7.132  12.254  0.00  0.00    +0.000 N 
ATOM     20  C   UNL     1      45.906   5.814  12.671  0.00  0.00    +0.000 C 
ATOM     21  O   UNL     1      46.633   5.434  13.591  0.00  0.00    +0.000 OA
ATOM     22  H   UNL     1      45.229   7.507  11.632  0.00  0.00    +0.000 HD
BRANCH  20  23
ATOM     23  C   UNL     1      45.042   4.848  11.982  0.00  0.00    +0.000 A 
ATOM     24  C   UNL     1      44.151   4.086  12.733  0.00  0.00    +0.000 A 
ATOM     25  S   UNL     1      43.374   2.857  11.846  0.00  0.00    +0.000 S 
ATOM     26  C   UNL     1      44.248   3.261  10.446  0.00  0.00    +0.000 A 
ATOM     27  N   UNL     1      44.210   2.468   9.342  0.00  0.00    +0.000 NA
ATOM     28  C   UNL     1      44.945   2.887   8.367  0.00  0.00    +0.000 A 
ATOM     29  N   UNL     1      45.647   4.067   8.366  0.00  0.00    +0.000 N 
ATOM     30  C   UNL     1      45.636   4.944   9.429  0.00  0.00    +0.000 A 
ATOM     31  O   UNL     1      46.120   6.068   9.355  0.00  0.00    +0.000 OA
ATOM     32  C   UNL     1      44.978   4.428  10.608  0.00  0.00    +0.000 A 
ATOM     33  H   UNL     1      46.122   4.377   7.532  0.00  0.00    +0.000 HD
ENDBRANCH  20  23
ENDBRANCH  18  19
ENDBRANCH   4  18
TORSDOF 6
ENDMDL
MODEL 8
REMARK VINA RESULT:    -7.047      2.622      3.653
REMARK INTER + INTRA:         -10.367
REMARK INTER:                  -9.375
REMARK INTRA:                  -0.992
REMARK UNBOUND:                -0.848
REMARK  Name = 
REMARK  8 active torsions:
REMARK  status: ('A' for Active; 'I' for Inactive)
REMARK    1  A    between atoms: C_1  and  C_2
REMARK    2  A    between atoms: C_4  and  N_5
REMARK    3  A    between atoms: N_5  and  C_6
REMARK    4  A    between atoms: C_6  and  C_7
REMARK    5  A    between atoms: C_10  and  C_11
REMARK    6  A    between atoms: C_11  and  N_12
REMARK    7  A    between atoms: C_13  and  C_15
REMARK    8  A    between atoms: C_28  and  C_29
REMARK                            x       y       z     vdW  Elec       q    Type
REMARK                         _______ _______ _______ _____ _____    ______ ____
ROOT
ATOM      1  C   UNL     1      46.109   7.280  12.918  0.00  0.00    +0.000 A 
ATOM      2  C   UNL     1      46.889   6.181  13.308  0.00  0.00    +0.000 A 
ATOM      3  C   UNL     1      48.062   6.360  14.054  0.00  0.00    +0.000 A 
ATOM      4  C   UNL     1      48.476   7.638  14.451  0.00  0.00    +0.000 A 
ATOM      5  C   UNL     1      47.691   8.737  14.069  0.00  0.00    +0.000 A 
ATOM      6  C   UNL     1      46.517   8.559  13.322  0.00  0.00    +0.000 A 
ENDROOT
BRANCH   1   7
ATOM      7  C   UNL     1      44.899   7.090  12.028  0.00  0.00    +0.000 C 
BRANCH   7   8
ATOM      8  N   UNL     1      45.233   6.604  10.711  0.00  0.00    +0.000 N 
ATOM      9  H   UNL     1      45.524   7.250   9.987  0.00  0.00    +0.000 HD
BRANCH   8  13
ATOM     10  C   UNL     1      45.862   2.876   7.542  0.00  0.00    +0.000 C 
ATOM     11  C   UNL     1      45.332   3.485   8.804  0.00  0.00    +0.000 A 
ATOM     12  C   UNL     1      45.576   4.808   9.114  0.00  0.00    +0.000 A 
ATOM     13  C   UNL     1      45.060   5.301  10.298  0.00  0.00    +0.000 A 
ATOM     14  N   UNL     1      44.339   4.515  11.117  0.00  0.00    +0.000 NA
ATOM     15  C   UNL     1      44.136   3.236  10.737  0.00  0.00    +0.000 A 
ATOM     16  C   UNL     1      43.328   2.344  11.629  0.00  0.00    +0.000 C 
ATOM     17  N   UNL     1      44.608   2.684   9.606  0.00  0.00    +0.000 NA
ENDBRANCH   8  13
ENDBRANCH   7   8
ENDBRANCH   1   7
BRANCH   4  18
ATOM     18  C   UNL     1      49.650   7.809  15.380  0.00  0.00    +0.000 C 
BRANCH  18  19
ATOM     19  N   UNL     1      50.255   6.602  15.906  0.00  0.00    +0.000 N 
ATOM     20  C   UNL     1      50.587   6.602  17.249  0.00  0.00    +0.000 C 
ATOM     21  O   UNL     1      50.370   7.597  17.942  0.00  0.00    +0.000 OA
ATOM     22  H   UNL     1      50.252   5.740  15.364  0.00  0.00    +0.000 HD
BRANCH  20  23
ATOM     23  C   UNL     1      51.252   5.434  17.841  0.00  0.00    +0.000 A 
ATOM     24  C   UNL     1      52.399   5.630  18.606  0.00  0.00    +0.000 A 
ATOM     25  S   UNL     1      53.192   4.187  19.044  0.00  0.00    +0.000 S 
ATOM     26  C   UNL     1      52.066   3.258  18.173  0.00  0.00    +0.000 A 
ATOM     27  N   UNL     1      52.265   1.929  17.966  0.00  0.00    +0.000 NA
ATOM     28  C   UNL     1      51.340   1.362  17.265  0.00  0.00    +0.000 A 
ATOM     29  N   UNL     1      50.197   1.984  16.826  0.00  0.00    +0.000 N 
ATOM     30  C   UNL     1      49.914   3.305  17.096  0.00  0.00    +0.000 A 
ATOM     31  O   UNL     1      48.821   3.803  16.852  0.00  0.00    +0.000 OA
ATOM     32  C   UNL     1      51.005   4.024  17.716  0.00  0.00    +0.000 A 
ATOM     33  H   UNL     1      49.473   1.453  16.367  0.00  0.00    +0.000 HD
ENDBRANCH  20  23
ENDBRANCH  18  19
ENDBRANCH   4  18
TORSDOF 6
ENDMDL
MODEL 9
REMARK VINA RESULT:    -7.011      3.295      9.077
REMARK INTER + INTRA:         -10.319
REMARK INTER:                  -9.188
REMARK INTRA:                  -1.130
REMARK UNBOUND:                -0.848
REMARK  Name = 
REMARK  8 active torsions:
REMARK  status: ('A' for Active; 'I' for Inactive)
REMARK    1  A    between atoms: C_1  and  C_2
REMARK    2  A    between atoms: C_4  and  N_5
REMARK    3  A    between atoms: N_5  and  C_6
REMARK    4  A    between atoms: C_6  and  C_7
REMARK    5  A    between atoms: C_10  and  C_11
REMARK    6  A    between atoms: C_11  and  N_12
REMARK    7  A    between atoms: C_13  and  C_15
REMARK    8  A    between atoms: C_28  and  C_29
REMARK                            x       y       z     vdW  Elec       q    Type
REMARK                         _______ _______ _______ _____ _____    ______ ____
ROOT
ATOM      1  C   UNL     1      49.680   8.188  16.008  0.00  0.00    +0.000 A 
ATOM      2  C   UNL     1      48.366   8.552  15.677  0.00  0.00    +0.000 A 
ATOM      3  C   UNL     1      47.914   8.489  14.352  0.00  0.00    +0.000 A 
ATOM      4  C   UNL     1      48.755   8.038  13.325  0.00  0.00    +0.000 A 
ATOM      5  C   UNL     1      50.065   7.666  13.656  0.00  0.00    +0.000 A 
ATOM      6  C   UNL     1      50.519   7.729  14.983  0.00  0.00    +0.000 A 
ENDROOT
BRANCH   1   7
ATOM      7  C   UNL     1      50.192   8.354  17.422  0.00  0.00    +0.000 C 
BRANCH   7   8
ATOM      8  N   UNL     1      49.688   7.353  18.331  0.00  0.00    +0.000 N 
ATOM      9  H   UNL     1      49.389   7.613  19.262  0.00  0.00    +0.000 HD
BRANCH   8  13
ATOM     10  C   UNL     1      51.934   2.994  17.790  0.00  0.00    +0.000 C 
ATOM     11  C   UNL     1      50.732   3.888  17.802  0.00  0.00    +0.000 A 
ATOM     12  C   UNL     1      50.849   5.236  18.077  0.00  0.00    +0.000 A 
ATOM     13  C   UNL     1      49.697   5.999  18.076  0.00  0.00    +0.000 A 
ATOM     14  N   UNL     1      48.501   5.443  17.809  0.00  0.00    +0.000 NA
ATOM     15  C   UNL     1      48.472   4.121  17.539  0.00  0.00    +0.000 A 
ATOM     16  C   UNL     1      47.153   3.482  17.229  0.00  0.00    +0.000 C 
ATOM     17  N   UNL     1      49.547   3.315  17.525  0.00  0.00    +0.000 NA
ENDBRANCH   8  13
ENDBRANCH   7   8
ENDBRANCH   1   7
BRANCH   4  18
ATOM     18  C   UNL     1      48.216   7.827  11.932  0.00  0.00    +0.000 C 
BRANCH  18  19
ATOM     19  N   UNL     1      47.302   6.721  11.740  0.00  0.00    +0.000 N 
ATOM     20  C   UNL     1      45.953   7.023  11.697  0.00  0.00    +0.000 C 
ATOM     21  O   UNL     1      45.574   8.189  11.824  0.00  0.00    +0.000 OA
ATOM     22  H   UNL     1      47.645   5.806  11.454  0.00  0.00    +0.000 HD
BRANCH  20  23
ATOM     23  C   UNL     1      44.962   5.947  11.559  0.00  0.00    +0.000 A 
ATOM     24  C   UNL     1      44.008   5.779  12.558  0.00  0.00    +0.000 A 
ATOM     25  S   UNL     1      43.068   4.369  12.385  0.00  0.00    +0.000 S 
ATOM     26  C   UNL     1      43.947   3.905  11.007  0.00  0.00    +0.000 A 
ATOM     27  N   UNL     1      43.787   2.673  10.455  0.00  0.00    +0.000 NA
ATOM     28  C   UNL     1      44.541   2.453   9.430  0.00  0.00    +0.000 A 
ATOM     29  N   UNL     1      45.377   3.380   8.859  0.00  0.00    +0.000 N 
ATOM     30  C   UNL     1      45.498   4.668   9.332  0.00  0.00    +0.000 A 
ATOM     31  O   UNL     1      46.110   5.536   8.718  0.00  0.00    +0.000 OA
ATOM     32  C   UNL     1      44.814   4.900  10.585  0.00  0.00    +0.000 A 
ATOM     33  H   UNL     1      45.864   3.168   8.002  0.00  0.00    +0.000 HD
ENDBRANCH  20  23
ENDBRANCH  18  19
ENDBRANCH   4  18
TORSDOF 6
ENDMDL
