MODEL 1
REMARK VINA RESULT:    -8.313      0.000      0.000
REMARK INTER + INTRA:         -12.056
REMARK INTER:                 -10.743
REMARK INTRA:                  -1.313
REMARK UNBOUND:                -1.313
REMARK  Name = 
REMARK  7 active torsions:
REMARK  status: ('A' for Active; 'I' for Inactive)
REMARK    1  A    between atoms: C_1  and  C_2
REMARK    2  A    between atoms: C_2  and  N_3
REMARK    3  A    between atoms: C_2  and  C_17
REMARK    4  A    between atoms: C_4  and  C_6
REMARK    5  A    between atoms: N_12  and  C_13
REMARK    6  A    between atoms: C_20  and  C_21
REMARK    7  A    between atoms: C_21  and  C_22
REMARK                            x       y       z     vdW  Elec       q    Type
REMARK                         _______ _______ _______ _____ _____    ______ ____
ROOT
ATOM      1  C   UNL     1      46.424   4.609  14.224  0.00  0.00    +0.000 C 
ATOM      2  C   UNL     1      46.153   5.763  13.256  0.00  0.00    +0.000 C 
ENDROOT
BRANCH   2   3
ATOM      3  C   UNL     1      45.695   5.250  11.899  0.00  0.00    +0.000 A 
ATOM      4  C   UNL     1      46.059   5.927  10.728  0.00  0.00    +0.000 A 
ATOM      5  C   UNL     1      45.713   5.418   9.472  0.00  0.00    +0.000 A 
ATOM      6  C   UNL     1      45.005   4.214   9.359  0.00  0.00    +0.000 A 
ATOM      7  C   UNL     1      44.616   3.548  10.527  0.00  0.00    +0.000 A 
ATOM      8  C   UNL     1      44.953   4.063  11.780  0.00  0.00    +0.000 A 
BRANCH   6   9
ATOM      9  C   UNL     1      44.715   3.605   8.005  0.00  0.00    +0.000 C 
BRANCH   9  10
ATOM     10  C   UNL     1      45.897   2.864   7.423  0.00  0.00    +0.000 A 
ATOM     11  C   UNL     1      46.566   3.348   6.295  0.00  0.00    +0.000 A 
ATOM     12  C   UNL     1      47.617   2.608   5.771  0.00  0.00    +0.000 A 
ATOM     13  N   UNL     1      48.043   1.437   6.289  0.00  0.00    +0.000 NA
ATOM     14  C   UNL     1      47.384   0.984   7.376  0.00  0.00    +0.000 A 
ATOM     15  C   UNL     1      46.322   1.649   7.970  0.00  0.00    +0.000 A 
ENDBRANCH   9  10
ENDBRANCH   6   9
ENDBRANCH   2   3
BRANCH   2  16
ATOM     16  N   UNL     1      47.340   6.584  13.079  0.00  0.00    +0.000 N 
ATOM     17  C   UNL     1      47.387   7.929  13.295  0.00  0.00    +0.000 C 
ATOM     18  O   UNL     1      46.389   8.604  13.533  0.00  0.00    +0.000 OA
ATOM     19  H   UNL     1      48.211   6.072  13.020  0.00  0.00    +0.000 HD
BRANCH  17  20
ATOM     20  C   UNL     1      48.724   8.541  13.190  0.00  0.00    +0.000 A 
ATOM     21  C   UNL     1      48.954   9.579  12.299  0.00  0.00    +0.000 A 
ATOM     22  S   UNL     1      50.554  10.167  12.338  0.00  0.00    +0.000 S 
ATOM     23  C   UNL     1      50.989   9.078  13.574  0.00  0.00    +0.000 A 
ATOM     24  N   UNL     1      52.239   9.077  14.106  0.00  0.00    +0.000 NA
ATOM     25  C   UNL     1      52.420   8.216  15.050  0.00  0.00    +0.000 A 
ATOM     26  N   UNL     1      51.475   7.329  15.512  0.00  0.00    +0.000 N 
ATOM     27  C   UNL     1      51.791   6.371  16.554  0.00  0.00    +0.000 C 
ATOM     28  C   UNL     1      50.202   7.270  14.960  0.00  0.00    +0.000 A 
ATOM     29  O   UNL     1      49.370   6.434  15.308  0.00  0.00    +0.000 OA
ATOM     30  C   UNL     1      49.940   8.253  13.923  0.00  0.00    +0.000 A 
ENDBRANCH  17  20
ENDBRANCH   2  16
TORSDOF 5
ENDMDL
MODEL 2
REMARK VINA RESULT:    -8.287      3.013      3.914
REMARK INTER + INTRA:         -12.023
REMARK INTER:                 -11.143
REMARK INTRA:                  -0.880
REMARK UNBOUND:                -1.313
REMARK  Name = 
REMARK  7 active torsions:
REMARK  status: ('A' for Active; 'I' for Inactive)
REMARK    1  A    between atoms: C_1  and  C_2
REMARK    2  A    between atoms: C_2  and  N_3
REMARK    3  A    between atoms: C_2  and  C_17
REMARK    4  A    between atoms: C_4  and  C_6
REMARK    5  A    between atoms: N_12  and  C_13
REMARK    6  A    between atoms: C_20  and  C_21
REMARK    7  A    between atoms: C_21  and  C_22
REMARK                            x       y       z     vdW  Elec       q    Type
REMARK                         _______ _______ _______ _____ _____    ______ ____
ROOT
ATOM      1  C   UNL     1      45.721   8.028  13.086  0.00  0.00    +0.000 C 
ATOM      2  C   UNL     1      46.593   6.803  12.801  0.00  0.00    +0.000 C 
ENDROOT
BRANCH   2   3
ATOM      3  C   UNL     1      45.980   5.928  11.718  0.00  0.00    +0.000 A 
ATOM      4  C   UNL     1      46.119   6.273  10.368  0.00  0.00    +0.000 A 
ATOM      5  C   UNL     1      45.631   5.433   9.362  0.00  0.00    +0.000 A 
ATOM      6  C   UNL     1      45.002   4.222   9.684  0.00  0.00    +0.000 A 
ATOM      7  C   UNL     1      44.837   3.887  11.033  0.00  0.00    +0.000 A 
ATOM      8  C   UNL     1      45.316   4.731  12.036  0.00  0.00    +0.000 A 
BRANCH   6   9
ATOM      9  C   UNL     1      44.562   3.260   8.603  0.00  0.00    +0.000 C 
BRANCH   9  10
ATOM     10  C   UNL     1      45.720   2.611   7.880  0.00  0.00    +0.000 A 
ATOM     11  C   UNL     1      46.115   1.304   8.182  0.00  0.00    +0.000 A 
ATOM     12  C   UNL     1      47.213   0.768   7.523  0.00  0.00    +0.000 A 
ATOM     13  N   UNL     1      47.931   1.434   6.594  0.00  0.00    +0.000 NA
ATOM     14  C   UNL     1      47.536   2.694   6.317  0.00  0.00    +0.000 A 
ATOM     15  C   UNL     1      46.455   3.317   6.923  0.00  0.00    +0.000 A 
ENDBRANCH   9  10
ENDBRANCH   6   9
ENDBRANCH   2   3
BRANCH   2  16
ATOM     16  N   UNL     1      46.785   6.009  14.003  0.00  0.00    +0.000 N 
ATOM     17  C   UNL     1      47.976   5.861  14.650  0.00  0.00    +0.000 C 
ATOM     18  O   UNL     1      49.038   6.281  14.197  0.00  0.00    +0.000 OA
ATOM     19  H   UNL     1      45.934   5.757  14.492  0.00  0.00    +0.000 HD
BRANCH  17  20
ATOM     20  C   UNL     1      47.918   5.127  15.926  0.00  0.00    +0.000 A 
ATOM     21  C   UNL     1      47.505   3.803  15.958  0.00  0.00    +0.000 A 
ATOM     22  S   UNL     1      47.524   3.122  17.521  0.00  0.00    +0.000 S 
ATOM     23  C   UNL     1      48.120   4.562  18.208  0.00  0.00    +0.000 A 
ATOM     24  N   UNL     1      48.399   4.648  19.535  0.00  0.00    +0.000 NA
ATOM     25  C   UNL     1      48.867   5.789  19.912  0.00  0.00    +0.000 A 
ATOM     26  N   UNL     1      49.070   6.878  19.094  0.00  0.00    +0.000 N 
ATOM     27  C   UNL     1      49.565   8.133  19.625  0.00  0.00    +0.000 C 
ATOM     28  C   UNL     1      48.754   6.840  17.742  0.00  0.00    +0.000 A 
ATOM     29  O   UNL     1      48.858   7.824  17.013  0.00  0.00    +0.000 OA
ATOM     30  C   UNL     1      48.265   5.558  17.265  0.00  0.00    +0.000 A 
ENDBRANCH  17  20
ENDBRANCH   2  16
TORSDOF 5
ENDMDL
MODEL 3
REMARK VINA RESULT:    -7.658      1.871      2.184
REMARK INTER + INTRA:         -11.209
REMARK INTER:                 -10.696
REMARK INTRA:                  -0.513
REMARK UNBOUND:                -1.313
REMARK  Name = 
REMARK  7 active torsions:
REMARK  status: ('A' for Active; 'I' for Inactive)
REMARK    1  A    between atoms: C_1  and  C_2
REMARK    2  A    between atoms: C_2  and  N_3
REMARK    3  A    between atoms: C_2  and  C_17
REMARK    4  A    between atoms: C_4  and  C_6
REMARK    5  A    between atoms: N_12  and  C_13
REMARK    6  A    between atoms: C_20  and  C_21
REMARK    7  A    between atoms: C_21  and  C_22
REMARK                            x       y       z     vdW  Elec       q    Type
REMARK                         _______ _______ _______ _____ _____    ______ ____
ROOT
ATOM      1  C   UNL     1      46.787   4.418  14.437  0.00  0.00    +0.000 C 
ATOM      2  C   UNL     1      45.969   5.483  13.703  0.00  0.00    +0.000 C 
ENDROOT
BRANCH   2   3
ATOM      3  C   UNL     1      45.539   4.998  12.326  0.00  0.00    +0.000 A 
ATOM      4  C   UNL     1      45.574   5.866  11.228  0.00  0.00    +0.000 A 
ATOM      5  C   UNL     1      45.261   5.409   9.945  0.00  0.00    +0.000 A 
ATOM      6  C   UNL     1      44.915   4.067   9.729  0.00  0.00    +0.000 A 
ATOM      7  C   UNL     1      44.853   3.202  10.827  0.00  0.00    +0.000 A 
ATOM      8  C   UNL     1      45.156   3.664  12.109  0.00  0.00    +0.000 A 
BRANCH   6   9
ATOM      9  C   UNL     1      44.674   3.540   8.332  0.00  0.00    +0.000 C 
BRANCH   9  10
ATOM     10  C   UNL     1      45.840   2.750   7.786  0.00  0.00    +0.000 A 
ATOM     11  C   UNL     1      45.993   1.392   8.083  0.00  0.00    +0.000 A 
ATOM     12  C   UNL     1      47.105   0.721   7.595  0.00  0.00    +0.000 A 
ATOM     13  N   UNL     1      48.061   1.300   6.839  0.00  0.00    +0.000 NA
ATOM     14  C   UNL     1      47.898   2.612   6.563  0.00  0.00    +0.000 A 
ATOM     15  C   UNL     1      46.823   3.368   7.007  0.00  0.00    +0.000 A 
ENDBRANCH   9  10
ENDBRANCH   6   9
ENDBRANCH   2   3
BRANCH   2  16
ATOM     16  N   UNL     1      46.728   6.714  13.558  0.00  0.00    +0.000 N 
ATOM     17  C   UNL     1      48.025   6.778  13.144  0.00  0.00    +0.000 C 
ATOM     18  O   UNL     1      48.725   5.781  12.981  0.00  0.00    +0.000 OA
ATOM     19  H   UNL     1      46.174   7.561  13.544  0.00  0.00    +0.000 HD
BRANCH  17  20
ATOM     20  C   UNL     1      48.558   8.135  12.933  0.00  0.00    +0.000 A 
ATOM     21  C   UNL     1      48.857   8.584  11.655  0.00  0.00    +0.000 A 
ATOM     22  S   UNL     1      49.442  10.184  11.615  0.00  0.00    +0.000 S 
ATOM     23  C   UNL     1      49.284  10.350  13.302  0.00  0.00    +0.000 A 
ATOM     24  N   UNL     1      49.588  11.516  13.929  0.00  0.00    +0.000 NA
ATOM     25  C   UNL     1      49.398  11.506  15.205  0.00  0.00    +0.000 A 
ATOM     26  N   UNL     1      48.947  10.430  15.935  0.00  0.00    +0.000 N 
ATOM     27  C   UNL     1      48.804  10.509  17.376  0.00  0.00    +0.000 C 
ATOM     28  C   UNL     1      48.670   9.208  15.335  0.00  0.00    +0.000 A 
ATOM     29  O   UNL     1      48.340   8.216  15.981  0.00  0.00    +0.000 OA
ATOM     30  C   UNL     1      48.829   9.188  13.891  0.00  0.00    +0.000 A 
ENDBRANCH  17  20
ENDBRANCH   2  16
TORSDOF 5
ENDMDL
MODEL 4
REMARK VINA RESULT:    -7.406      3.667      4.875
REMARK INTER + INTRA:         -10.884
REMARK INTER:                  -9.511
REMARK INTRA:                  -1.373
REMARK UNBOUND:                -1.313
REMARK  Name = 
REMARK  7 active torsions:
REMARK  status: ('A' for Active; 'I' for Inactive)
REMARK    1  A    between atoms: C_1  and  C_2
REMARK    2  A    between atoms: C_2  and  N_3
REMARK    3  A    between atoms: C_2  and  C_17
REMARK    4  A    between atoms: C_4  and  C_6
REMARK    5  A    between atoms: N_12  and  C_13
REMARK    6  A    between atoms: C_20  and  C_21
REMARK    7  A    between atoms: C_21  and  C_22
REMARK                            x       y       z     vdW  Elec       q    Type
REMARK                         _______ _______ _______ _____ _____    ______ ____
ROOT
ATOM      1  C   UNL     1      48.440   8.618  13.936  0.00  0.00    +0.000 C 
ATOM      2  C   UNL     1      48.374   7.094  14.060  0.00  0.00    +0.000 C 
ENDROOT
BRANCH   2   3
ATOM      3  C   UNL     1      47.232   6.521  13.234  0.00  0.00    +0.000 A 
ATOM      4  C   UNL     1      46.688   7.258  12.174  0.00  0.00    +0.000 A 
ATOM      5  C   UNL     1      45.695   6.709  11.357  0.00  0.00    +0.000 A 
ATOM      6  C   UNL     1      45.232   5.403  11.575  0.00  0.00    +0.000 A 
ATOM      7  C   UNL     1      45.753   4.674  12.649  0.00  0.00    +0.000 A 
ATOM      8  C   UNL     1      46.737   5.228  13.470  0.00  0.00    +0.000 A 
BRANCH   6   9
ATOM      9  C   UNL     1      44.233   4.765  10.636  0.00  0.00    +0.000 C 
BRANCH   9  10
ATOM     10  C   UNL     1      44.878   3.875   9.598  0.00  0.00    +0.000 A 
ATOM     11  C   UNL     1      44.815   2.482   9.704  0.00  0.00    +0.000 A 
ATOM     12  C   UNL     1      45.463   1.710   8.751  0.00  0.00    +0.000 A 
ATOM     13  N   UNL     1      46.156   2.221   7.712  0.00  0.00    +0.000 NA
ATOM     14  C   UNL     1      46.206   3.567   7.627  0.00  0.00    +0.000 A 
ATOM     15  C   UNL     1      45.595   4.424   8.530  0.00  0.00    +0.000 A 
ENDBRANCH   9  10
ENDBRANCH   6   9
ENDBRANCH   2   3
BRANCH   2  16
ATOM     16  N   UNL     1      48.207   6.691  15.446  0.00  0.00    +0.000 N 
ATOM     17  C   UNL     1      49.233   6.389  16.292  0.00  0.00    +0.000 C 
ATOM     18  O   UNL     1      50.400   6.298  15.920  0.00  0.00    +0.000 OA
ATOM     19  H   UNL     1      47.294   6.879  15.841  0.00  0.00    +0.000 HD
BRANCH  17  20
ATOM     20  C   UNL     1      48.848   6.140  17.692  0.00  0.00    +0.000 A 
ATOM     21  C   UNL     1      49.067   4.898  18.272  0.00  0.00    +0.000 A 
ATOM     22  S   UNL     1      48.574   4.812  19.902  0.00  0.00    +0.000 S 
ATOM     23  C   UNL     1      48.083   6.443  19.903  0.00  0.00    +0.000 A 
ATOM     24  N   UNL     1      47.587   7.030  21.024  0.00  0.00    +0.000 NA
ATOM     25  C   UNL     1      47.279   8.275  20.887  0.00  0.00    +0.000 A 
ATOM     26  N   UNL     1      47.396   9.002  19.724  0.00  0.00    +0.000 N 
ATOM     27  C   UNL     1      46.983  10.391  19.663  0.00  0.00    +0.000 C 
ATOM     28  C   UNL     1      47.855   8.423  18.547  0.00  0.00    +0.000 A 
ATOM     29  O   UNL     1      47.895   9.036  17.482  0.00  0.00    +0.000 OA
ATOM     30  C   UNL     1      48.256   7.032  18.668  0.00  0.00    +0.000 A 
ENDBRANCH  17  20
ENDBRANCH   2  16
TORSDOF 5
ENDMDL
MODEL 5
REMARK VINA RESULT:    -7.364      1.662      2.260
REMARK INTER + INTRA:         -10.829
REMARK INTER:                  -9.743
REMARK INTRA:                  -1.087
REMARK UNBOUND:                -1.313
REMARK  Name = 
REMARK  7 active torsions:
REMARK  status: ('A' for Active; 'I' for Inactive)
REMARK    1  A    between atoms: C_1  and  C_2
REMARK    2  A    between atoms: C_2  and  N_3
REMARK    3  A    between atoms: C_2  and  C_17
REMARK    4  A    between atoms: C_4  and  C_6
REMARK    5  A    between atoms: N_12  and  C_13
REMARK    6  A    between atoms: C_20  and  C_21
REMARK    7  A    between atoms: C_21  and  C_22
REMARK                            x       y       z     vdW  Elec       q    Type
REMARK                         _______ _______ _______ _____ _____    ______ ____
ROOT
ATOM      1  C   UNL     1      44.290   4.728  13.929  0.00  0.00    +0.000 C 
ATOM      2  C   UNL     1      45.002   5.662  12.948  0.00  0.00    +0.000 C 
ENDROOT
BRANCH   2   3
ATOM      3  C   UNL     1      45.039   5.067  11.547  0.00  0.00    +0.000 A 
ATOM      4  C   UNL     1      44.367   3.869  11.271  0.00  0.00    +0.000 A 
ATOM      5  C   UNL     1      44.326   3.358   9.970  0.00  0.00    +0.000 A 
ATOM      6  C   UNL     1      44.946   4.039   8.914  0.00  0.00    +0.000 A 
ATOM      7  C   UNL     1      45.642   5.222   9.191  0.00  0.00    +0.000 A 
ATOM      8  C   UNL     1      45.691   5.725  10.492  0.00  0.00    +0.000 A 
BRANCH   6   9
ATOM      9  C   UNL     1      44.821   3.547   7.489  0.00  0.00    +0.000 C 
BRANCH   9  10
ATOM     10  C   UNL     1      46.071   2.861   6.986  0.00  0.00    +0.000 A 
ATOM     11  C   UNL     1      46.687   3.267   5.799  0.00  0.00    +0.000 A 
ATOM     12  C   UNL     1      47.806   2.576   5.356  0.00  0.00    +0.000 A 
ATOM     13  N   UNL     1      48.348   1.526   6.007  0.00  0.00    +0.000 NA
ATOM     14  C   UNL     1      47.739   1.147   7.151  0.00  0.00    +0.000 A 
ATOM     15  C   UNL     1      46.616   1.772   7.673  0.00  0.00    +0.000 A 
ENDBRANCH   9  10
ENDBRANCH   6   9
ENDBRANCH   2   3
BRANCH   2  16
ATOM     16  N   UNL     1      46.361   5.938  13.384  0.00  0.00    +0.000 N 
ATOM     17  C   UNL     1      46.871   7.187  13.577  0.00  0.00    +0.000 C 
ATOM     18  O   UNL     1      46.267   8.211  13.270  0.00  0.00    +0.000 OA
ATOM     19  H   UNL     1      46.854   5.146  13.779  0.00  0.00    +0.000 HD
BRANCH  17  20
ATOM     20  C   UNL     1      48.226   7.235  14.154  0.00  0.00    +0.000 A 
ATOM     21  C   UNL     1      49.155   8.157  13.692  0.00  0.00    +0.000 A 
ATOM     22  S   UNL     1      50.656   8.072  14.497  0.00  0.00    +0.000 S 
ATOM     23  C   UNL     1      50.108   6.822  15.516  0.00  0.00    +0.000 A 
ATOM     24  N   UNL     1      50.906   6.300  16.484  0.00  0.00    +0.000 NA
ATOM     25  C   UNL     1      50.353   5.378  17.197  0.00  0.00    +0.000 A 
ATOM     26  N   UNL     1      49.073   4.900  17.029  0.00  0.00    +0.000 N 
ATOM     27  C   UNL     1      48.556   3.831  17.860  0.00  0.00    +0.000 C 
ATOM     28  C   UNL     1      48.245   5.378  16.020  0.00  0.00    +0.000 A 
ATOM     29  O   UNL     1      47.128   4.912  15.808  0.00  0.00    +0.000 OA
ATOM     30  C   UNL     1      48.813   6.450  15.221  0.00  0.00    +0.000 A 
ENDBRANCH  17  20
ENDBRANCH   2  16
TORSDOF 5
ENDMDL
MODEL 6
REMARK VINA RESULT:    -7.351      1.692      2.203
REMARK INTER + INTRA:         -10.812
REMARK INTER:                  -9.750
REMARK INTRA:                  -1.063
REMARK UNBOUND:                -1.313
REMARK  Name = 
REMARK  7 active torsions:
REMARK  status: ('A' for Active; 'I' for Inactive)
REMARK    1  A    between atoms: C_1  and  C_2
REMARK    2  A    between atoms: C_2  and  N_3
REMARK    3  A    between atoms: C_2  and  C_17
REMARK    4  A    between atoms: C_4  and  C_6
REMARK    5  A    between atoms: N_12  and  C_13
REMARK    6  A    between atoms: C_20  and  C_21
REMARK    7  A    between atoms: C_21  and  C_22
REMARK                            x       y       z     vdW  Elec       q    Type
REMARK                         _______ _______ _______ _____ _____    ______ ____
ROOT
ATOM      1  C   UNL     1      46.397   4.713  14.673  0.00  0.00    +0.000 C 
ATOM      2  C   UNL     1      46.146   5.838  13.666  0.00  0.00    +0.000 C 
ENDROOT
BRANCH   2   3
ATOM      3  C   UNL     1      45.919   5.286  12.267  0.00  0.00    +0.000 A 
ATOM      4  C   UNL     1      45.436   3.983  12.091  0.00  0.00    +0.000 A 
ATOM      5  C   UNL     1      45.145   3.495  10.813  0.00  0.00    +0.000 A 
ATOM      6  C   UNL     1      45.320   4.304   9.682  0.00  0.00    +0.000 A 
ATOM      7  C   UNL     1      45.829   5.597   9.851  0.00  0.00    +0.000 A 
ATOM      8  C   UNL     1      46.129   6.078  11.126  0.00  0.00    +0.000 A 
BRANCH   6   9
ATOM      9  C   UNL     1      44.914   3.821   8.308  0.00  0.00    +0.000 C 
BRANCH   9  10
ATOM     10  C   UNL     1      45.955   2.939   7.657  0.00  0.00    +0.000 A 
ATOM     11  C   UNL     1      46.706   3.395   6.570  0.00  0.00    +0.000 A 
ATOM     12  C   UNL     1      47.617   2.531   5.978  0.00  0.00    +0.000 A 
ATOM     13  N   UNL     1      47.831   1.264   6.392  0.00  0.00    +0.000 NA
ATOM     14  C   UNL     1      47.096   0.842   7.442  0.00  0.00    +0.000 A 
ATOM     15  C   UNL     1      46.160   1.628   8.097  0.00  0.00    +0.000 A 
ENDBRANCH   9  10
ENDBRANCH   6   9
ENDBRANCH   2   3
BRANCH   2  16
ATOM     16  N   UNL     1      47.263   6.768  13.635  0.00  0.00    +0.000 N 
ATOM     17  C   UNL     1      47.137   8.124  13.572  0.00  0.00    +0.000 C 
ATOM     18  O   UNL     1      46.060   8.688  13.397  0.00  0.00    +0.000 OA
ATOM     19  H   UNL     1      48.155   6.377  13.912  0.00  0.00    +0.000 HD
BRANCH  17  20
ATOM     20  C   UNL     1      48.394   8.884  13.692  0.00  0.00    +0.000 A 
ATOM     21  C   UNL     1      48.550   9.834  14.691  0.00  0.00    +0.000 A 
ATOM     22  S   UNL     1      50.077  10.590  14.678  0.00  0.00    +0.000 S 
ATOM     23  C   UNL     1      50.601   9.650  13.358  0.00  0.00    +0.000 A 
ATOM     24  N   UNL     1      51.857   9.775  12.857  0.00  0.00    +0.000 NA
ATOM     25  C   UNL     1      52.124   8.984  11.873  0.00  0.00    +0.000 A 
ATOM     26  N   UNL     1      51.248   8.080  11.316  0.00  0.00    +0.000 N 
ATOM     27  C   UNL     1      51.634   7.261  10.184  0.00  0.00    +0.000 C 
ATOM     28  C   UNL     1      49.941   7.958  11.773  0.00  0.00    +0.000 A 
ATOM     29  O   UNL     1      49.123   7.212  11.239  0.00  0.00    +0.000 OA
ATOM     30  C   UNL     1      49.611   8.800  12.910  0.00  0.00    +0.000 A 
ENDBRANCH  17  20
ENDBRANCH   2  16
TORSDOF 5
ENDMDL
MODEL 7
REMARK VINA RESULT:    -7.198      2.747      4.066
REMARK INTER + INTRA:         -10.615
REMARK INTER:                  -9.229
REMARK INTRA:                  -1.386
REMARK UNBOUND:                -1.313
REMARK  Name = 
REMARK  7 active torsions:
REMARK  status: ('A' for Active; 'I' for Inactive)
REMARK    1  A    between atoms: C_1  and  C_2
REMARK    2  A    between atoms: C_2  and  N_3
REMARK    3  A    between atoms: C_2  and  C_17
REMARK    4  A    between atoms: C_4  and  C_6
REMARK    5  A    between atoms: N_12  and  C_13
REMARK    6  A    between atoms: C_20  and  C_21
REMARK    7  A    between atoms: C_21  and  C_22
REMARK                            x       y       z     vdW  Elec       q    Type
REMARK                         _______ _______ _______ _____ _____    ______ ____
ROOT
ATOM      1  C   UNL     1      47.264   9.809  12.966  0.00  0.00    +0.000 C 
ATOM      2  C   UNL     1      47.741   8.358  13.065  0.00  0.00    +0.000 C 
ENDROOT
BRANCH   2   3
ATOM      3  C   UNL     1      46.714   7.397  12.485  0.00  0.00    +0.000 A 
ATOM      4  C   UNL     1      45.625   7.885  11.752  0.00  0.00    +0.000 A 
ATOM      5  C   UNL     1      44.721   7.008  11.145  0.00  0.00    +0.000 A 
ATOM      6  C   UNL     1      44.894   5.620  11.247  0.00  0.00    +0.000 A 
ATOM      7  C   UNL     1      45.965   5.128  12.002  0.00  0.00    +0.000 A 
ATOM      8  C   UNL     1      46.860   6.006  12.616  0.00  0.00    +0.000 A 
BRANCH   6   9
ATOM      9  C   UNL     1      43.981   4.665  10.511  0.00  0.00    +0.000 C 
BRANCH   9  10
ATOM     10  C   UNL     1      44.711   3.805   9.505  0.00  0.00    +0.000 A 
ATOM     11  C   UNL     1      44.718   2.411   9.620  0.00  0.00    +0.000 A 
ATOM     12  C   UNL     1      45.441   1.668   8.697  0.00  0.00    +0.000 A 
ATOM     13  N   UNL     1      46.142   2.209   7.679  0.00  0.00    +0.000 NA
ATOM     14  C   UNL     1      46.124   3.555   7.585  0.00  0.00    +0.000 A 
ATOM     15  C   UNL     1      45.436   4.384   8.458  0.00  0.00    +0.000 A 
ENDBRANCH   9  10
ENDBRANCH   6   9
ENDBRANCH   2   3
BRANCH   2  16
ATOM     16  N   UNL     1      48.010   7.991  14.446  0.00  0.00    +0.000 N 
ATOM     17  C   UNL     1      49.255   7.799  14.966  0.00  0.00    +0.000 C 
ATOM     18  O   UNL     1      50.272   7.786  14.277  0.00  0.00    +0.000 OA
ATOM     19  H   UNL     1      47.233   8.121  15.083  0.00  0.00    +0.000 HD
BRANCH  17  20
ATOM     20  C   UNL     1      49.306   7.569  16.421  0.00  0.00    +0.000 A 
ATOM     21  C   UNL     1      49.771   8.560  17.273  0.00  0.00    +0.000 A 
ATOM     22  S   UNL     1      49.735   8.113  18.918  0.00  0.00    +0.000 S 
ATOM     23  C   UNL     1      49.062   6.592  18.554  0.00  0.00    +0.000 A 
ATOM     24  N   UNL     1      48.743   5.708  19.535  0.00  0.00    +0.000 NA
ATOM     25  C   UNL     1      48.219   4.606  19.116  0.00  0.00    +0.000 A 
ATOM     26  N   UNL     1      47.996   4.280  17.798  0.00  0.00    +0.000 N 
ATOM     27  C   UNL     1      47.436   2.995  17.427  0.00  0.00    +0.000 C 
ATOM     28  C   UNL     1      48.351   5.140  16.766  0.00  0.00    +0.000 A 
ATOM     29  O   UNL     1      48.229   4.835  15.581  0.00  0.00    +0.000 OA
ATOM     30  C   UNL     1      48.905   6.413  17.196  0.00  0.00    +0.000 A 
ENDBRANCH  17  20
ENDBRANCH   2  16
TORSDOF 5
ENDMDL
MODEL 8
REMARK VINA RESULT:    -6.631      1.609      3.082
REMARK INTER + INTRA:          -9.882
REMARK INTER:                  -8.705
REMARK INTRA:                  -1.177
REMARK UNBOUND:                -1.313
REMARK  Name = 
REMARK  7 active torsions:
REMARK  status: ('A' for Active; 'I' for Inactive)
REMARK    1  A    between atoms: C_1  and  C_2
REMARK    2  A    between atoms: C_2  and  N_3
REMARK    3  A    between atoms: C_2  and  C_17
REMARK    4  A    between atoms: C_4  and  C_6
REMARK    5  A    between atoms: N_12  and  C_13
REMARK    6  A    between atoms: C_20  and  C_21
REMARK    7  A    between atoms: C_21  and  C_22
REMARK                            x       y       z     vdW  Elec       q    Type
REMARK                         _______ _______ _______ _____ _____    ______ ____
ROOT
ATOM      1  C   UNL     1      47.329   3.934  15.858  0.00  0.00    +0.000 C 
ATOM      2  C   UNL     1      47.106   5.219  15.056  0.00  0.00    +0.000 C 
ENDROOT
BRANCH   2   3
ATOM      3  C   UNL     1      46.505   4.921  13.690  0.00  0.00    +0.000 A 
ATOM      4  C   UNL     1      46.012   3.643  13.399  0.00  0.00    +0.000 A 
ATOM      5  C   UNL     1      45.384   3.381  12.178  0.00  0.00    +0.000 A 
ATOM      6  C   UNL     1      45.224   4.396  11.224  0.00  0.00    +0.000 A 
ATOM      7  C   UNL     1      45.740   5.667  11.500  0.00  0.00    +0.000 A 
ATOM      8  C   UNL     1      46.376   5.924  12.715  0.00  0.00    +0.000 A 
BRANCH   6   9
ATOM      9  C   UNL     1      44.457   4.149   9.944  0.00  0.00    +0.000 C 
BRANCH   9  10
ATOM     10  C   UNL     1      45.266   3.413   8.900  0.00  0.00    +0.000 A 
ATOM     11  C   UNL     1      45.413   2.024   8.950  0.00  0.00    +0.000 A 
ATOM     12  C   UNL     1      46.203   1.400   7.995  0.00  0.00    +0.000 A 
ATOM     13  N   UNL     1      46.845   2.056   7.005  0.00  0.00    +0.000 NA
ATOM     14  C   UNL     1      46.693   3.396   6.974  0.00  0.00    +0.000 A 
ATOM     15  C   UNL     1      45.927   4.110   7.884  0.00  0.00    +0.000 A 
ENDBRANCH   9  10
ENDBRANCH   6   9
ENDBRANCH   2   3
BRANCH   2  16
ATOM     16  N   UNL     1      48.353   5.945  14.880  0.00  0.00    +0.000 N 
ATOM     17  C   UNL     1      49.006   6.611  15.874  0.00  0.00    +0.000 C 
ATOM     18  O   UNL     1      48.529   6.776  16.993  0.00  0.00    +0.000 OA
ATOM     19  H   UNL     1      48.857   5.733  14.027  0.00  0.00    +0.000 HD
BRANCH  17  20
ATOM     20  C   UNL     1      50.323   7.162  15.509  0.00  0.00    +0.000 A 
ATOM     21  C   UNL     1      51.455   6.817  16.234  0.00  0.00    +0.000 A 
ATOM     22  S   UNL     1      52.884   7.538  15.647  0.00  0.00    +0.000 S 
ATOM     23  C   UNL     1      52.048   8.309  14.380  0.00  0.00    +0.000 A 
ATOM     24  N   UNL     1      52.701   9.073  13.466  0.00  0.00    +0.000 NA
ATOM     25  C   UNL     1      51.946   9.576  12.548  0.00  0.00    +0.000 A 
ATOM     26  N   UNL     1      50.583   9.409  12.457  0.00  0.00    +0.000 N 
ATOM     27  C   UNL     1      49.817  10.051  11.406  0.00  0.00    +0.000 C 
ATOM     28  C   UNL     1      49.876   8.673  13.400  0.00  0.00    +0.000 A 
ATOM     29  O   UNL     1      48.651   8.576  13.378  0.00  0.00    +0.000 OA
ATOM     30  C   UNL     1      50.694   8.052  14.428  0.00  0.00    +0.000 A 
ENDBRANCH  17  20
ENDBRANCH   2  16
TORSDOF 5
ENDMDL
MODEL 9
REMARK VINA RESULT:    -6.611      4.013      9.488
REMARK INTER + INTRA:          -9.856
REMARK INTER:                  -9.306
REMARK INTRA:                  -0.550
REMARK UNBOUND:                -1.313
REMARK  Name = 
REMARK  7 active torsions:
REMARK  status: ('A' for Active; 'I' for Inactive)
REMARK    1  A    between atoms: C_1  and  C_2
REMARK    2  A    between atoms: C_2  and  N_3
REMARK    3  A    between atoms: C_2  and  C_17
REMARK    4  A    between atoms: C_4  and  C_6
REMARK    5  A    between atoms: N_12  and  C_13
REMARK    6  A    between atoms: C_20  and  C_21
REMARK    7  A    between atoms: C_21  and  C_22
REMARK                            x       y       z     vdW  Elec       q    Type
REMARK                         _______ _______ _______ _____ _____    ______ ____
ROOT
ATOM      1  C   UNL     1      47.128   5.114  18.416  0.00  0.00    +0.000 C 
ATOM      2  C   UNL     1      47.803   4.379  17.255  0.00  0.00    +0.000 C 
ENDROOT
BRANCH   2   3
ATOM      3  C   UNL     1      49.307   4.281  17.463  0.00  0.00    +0.000 A 
ATOM      4  C   UNL     1      49.940   3.032  17.464  0.00  0.00    +0.000 A 
ATOM      5  C   UNL     1      51.331   2.936  17.571  0.00  0.00    +0.000 A 
ATOM      6  C   UNL     1      52.122   4.089  17.668  0.00  0.00    +0.000 A 
ATOM      7  C   UNL     1      51.491   5.338  17.696  0.00  0.00    +0.000 A 
ATOM      8  C   UNL     1      50.102   5.431  17.599  0.00  0.00    +0.000 A 
BRANCH   6   9
ATOM      9  C   UNL     1      53.632   4.000  17.682  0.00  0.00    +0.000 C 
BRANCH   9  10
ATOM     10  C   UNL     1      54.150   2.846  18.510  0.00  0.00    +0.000 A 
ATOM     11  C   UNL     1      54.306   1.573  17.953  0.00  0.00    +0.000 A 
ATOM     12  C   UNL     1      54.742   0.536  18.766  0.00  0.00    +0.000 A 
ATOM     13  N   UNL     1      55.033   0.679  20.076  0.00  0.00    +0.000 NA
ATOM     14  C   UNL     1      54.875   1.914  20.596  0.00  0.00    +0.000 A 
ATOM     15  C   UNL     1      54.442   3.012  19.867  0.00  0.00    +0.000 A 
ENDBRANCH   9  10
ENDBRANCH   6   9
ENDBRANCH   2   3
BRANCH   2  16
ATOM     16  N   UNL     1      47.539   5.047  15.991  0.00  0.00    +0.000 N 
ATOM     17  C   UNL     1      47.359   4.406  14.802  0.00  0.00    +0.000 C 
ATOM     18  O   UNL     1      47.538   3.199  14.659  0.00  0.00    +0.000 OA
ATOM     19  H   UNL     1      47.248   6.014  16.069  0.00  0.00    +0.000 HD
BRANCH  17  20
ATOM     20  C   UNL     1      46.966   5.266  13.672  0.00  0.00    +0.000 A 
ATOM     21  C   UNL     1      47.475   6.552  13.555  0.00  0.00    +0.000 A 
ATOM     22  S   UNL     1      46.918   7.381  12.173  0.00  0.00    +0.000 S 
ATOM     23  C   UNL     1      46.004   6.038  11.661  0.00  0.00    +0.000 A 
ATOM     24  N   UNL     1      45.296   6.068  10.502  0.00  0.00    +0.000 NA
ATOM     25  C   UNL     1      44.670   4.974  10.226  0.00  0.00    +0.000 A 
ATOM     26  N   UNL     1      44.661   3.841  11.009  0.00  0.00    +0.000 N 
ATOM     27  C   UNL     1      43.893   2.672  10.629  0.00  0.00    +0.000 C 
ATOM     28  C   UNL     1      45.336   3.791  12.222  0.00  0.00    +0.000 A 
ATOM     29  O   UNL     1      45.278   2.817  12.970  0.00  0.00    +0.000 OA
ATOM     30  C   UNL     1      46.091   4.988  12.551  0.00  0.00    +0.000 A 
ENDBRANCH  17  20
ENDBRANCH   2  16
TORSDOF 5
ENDMDL
