MODEL 1
REMARK VINA RESULT:    -8.392      0.000      0.000
REMARK INTER + INTRA:         -11.531
REMARK INTER:                 -11.090
REMARK INTRA:                  -0.440
REMARK UNBOUND:                -0.440
REMARK  Name = 
REMARK  6 active torsions:
REMARK  status: ('A' for Active; 'I' for Inactive)
REMARK    1  A    between atoms: N_1  and  C_2
REMARK    2  A    between atoms: C_2  and  C_3
REMARK    3  A    between atoms: C_7  and  C_8
REMARK    4  A    between atoms: C_8  and  C_9
REMARK    5  A    between atoms: C_9  and  N_10
REMARK    6  A    between atoms: C_14  and  C_15
REMARK                            x       y       z     vdW  Elec       q    Type
REMARK                         _______ _______ _______ _____ _____    ______ ____
ROOT
ATOM      1  N   UNL     1      43.759   4.902   9.591  0.00  0.00    +0.000 N 
ATOM      2  C   UNL     1      44.562   3.938   8.988  0.00  0.00    +0.000 A 
ATOM      3  N   UNL     1      44.453   2.660   9.368  0.00  0.00    +0.000 NA
ATOM      4  C   UNL     1      45.292   1.764   8.807  0.00  0.00    +0.000 A 
ATOM      5  C   UNL     1      46.221   2.091   7.855  0.00  0.00    +0.000 A 
ATOM      6  C   UNL     1      46.253   3.424   7.511  0.00  0.00    +0.000 A 
ATOM      7  N   UNL     1      45.441   4.362   8.066  0.00  0.00    +0.000 NA
ATOM      8  H   UNL     1      44.235   5.791   9.471  0.00  0.00    +0.000 HD
ENDROOT
BRANCH   5   9
ATOM      9  C   UNL     1      47.118   1.054   7.331  0.00  0.00    +0.000 C 
ATOM     10  N   UNL     1      46.887  -0.248   7.675  0.00  0.00    +0.000 N 
ATOM     11  O   UNL     1      48.073   1.354   6.625  0.00  0.00    +0.000 OA
ATOM     12  H   UNL     1      46.238  -0.545   8.390  0.00  0.00    +0.000 HD
ATOM     13  H   UNL     1      47.585  -0.917   7.368  0.00  0.00    +0.000 HD
ENDBRANCH   5   9
BRANCH   1  14
ATOM     14  C   UNL     1      43.394   4.552  10.963  0.00  0.00    +0.000 C 
BRANCH  14  15
ATOM     15  C   UNL     1      43.560   5.746  11.912  0.00  0.00    +0.000 C 
BRANCH  15  20
ATOM     16  C   UNL     1      46.768   5.209  13.923  0.00  0.00    +0.000 A 
ATOM     17  C   UNL     1      47.694   5.921  13.148  0.00  0.00    +0.000 A 
ATOM     18  C   UNL     1      47.281   6.614  12.012  0.00  0.00    +0.000 A 
ATOM     19  C   UNL     1      45.940   6.585  11.619  0.00  0.00    +0.000 A 
ATOM     20  C   UNL     1      44.996   5.876  12.373  0.00  0.00    +0.000 A 
ATOM     21  C   UNL     1      45.420   5.207  13.533  0.00  0.00    +0.000 A 
BRANCH  16  22
ATOM     22  C   UNL     1      47.219   4.398  15.110  0.00  0.00    +0.000 C 
BRANCH  22  23
ATOM     23  N   UNL     1      47.589   3.038  14.737  0.00  0.00    +0.000 NA
ATOM     24  H   UNL     1      48.362   2.733  15.326  0.00  0.00    +0.000 HD
ATOM     25  H   UNL     1      47.943   3.048  13.781  0.00  0.00    +0.000 HD
ENDBRANCH  22  23
ENDBRANCH  16  22
ENDBRANCH  15  20
ENDBRANCH  14  15
ENDBRANCH   1  14
TORSDOF 6
ENDMDL
MODEL 2
REMARK VINA RESULT:    -8.123      1.772      2.172
REMARK INTER + INTRA:         -11.175
REMARK INTER:                 -10.690
REMARK INTRA:                  -0.486
REMARK UNBOUND:                -0.440
REMARK  Name = 
REMARK  6 active torsions:
REMARK  status: ('A' for Active; 'I' for Inactive)
REMARK    1  A    between atoms: N_1  and  C_2
REMARK    2  A    between atoms: C_2  and  C_3
REMARK    3  A    between atoms: C_7  and  C_8
REMARK    4  A    between atoms: C_8  and  C_9
REMARK    5  A    between atoms: C_9  and  N_10
REMARK    6  A    between atoms: C_14  and  C_15
REMARK                            x       y       z     vdW  Elec       q    Type
REMARK                         _______ _______ _______ _____ _____    ______ ____
ROOT
ATOM      1  N   UNL     1      43.700   4.692   9.934  0.00  0.00    +0.000 N 
ATOM      2  C   UNL     1      44.602   3.974   9.154  0.00  0.00    +0.000 A 
ATOM      3  N   UNL     1      44.618   2.638   9.228  0.00  0.00    +0.000 NA
ATOM      4  C   UNL     1      45.548   1.980   8.507  0.00  0.00    +0.000 A 
ATOM      5  C   UNL     1      46.449   2.604   7.685  0.00  0.00    +0.000 A 
ATOM      6  C   UNL     1      46.351   3.978   7.656  0.00  0.00    +0.000 A 
ATOM      7  N   UNL     1      45.443   4.681   8.383  0.00  0.00    +0.000 NA
ATOM      8  H   UNL     1      44.085   5.626  10.036  0.00  0.00    +0.000 HD
ENDROOT
BRANCH   5   9
ATOM      9  C   UNL     1      47.452   1.807   6.969  0.00  0.00    +0.000 C 
ATOM     10  N   UNL     1      48.547   2.439   6.453  0.00  0.00    +0.000 N 
ATOM     11  O   UNL     1      47.292   0.603   6.809  0.00  0.00    +0.000 OA
ATOM     12  H   UNL     1      48.653   3.442   6.389  0.00  0.00    +0.000 HD
ATOM     13  H   UNL     1      49.164   1.866   5.887  0.00  0.00    +0.000 HD
ENDBRANCH   5   9
BRANCH   1  14
ATOM     14  C   UNL     1      43.357   4.002  11.178  0.00  0.00    +0.000 C 
BRANCH  14  15
ATOM     15  C   UNL     1      43.377   4.959  12.376  0.00  0.00    +0.000 C 
BRANCH  15  20
ATOM     16  C   UNL     1      46.430   7.127  13.151  0.00  0.00    +0.000 A 
ATOM     17  C   UNL     1      47.350   6.157  13.573  0.00  0.00    +0.000 A 
ATOM     18  C   UNL     1      47.008   4.806  13.559  0.00  0.00    +0.000 A 
ATOM     19  C   UNL     1      45.734   4.407  13.148  0.00  0.00    +0.000 A 
ATOM     20  C   UNL     1      44.794   5.357  12.728  0.00  0.00    +0.000 A 
ATOM     21  C   UNL     1      45.162   6.713  12.717  0.00  0.00    +0.000 A 
BRANCH  16  22
ATOM     22  C   UNL     1      46.766   8.594  13.232  0.00  0.00    +0.000 C 
BRANCH  22  23
ATOM     23  N   UNL     1      47.091   9.009  14.591  0.00  0.00    +0.000 NA
ATOM     24  H   UNL     1      46.235   9.034  15.141  0.00  0.00    +0.000 HD
ATOM     25  H   UNL     1      47.442   9.966  14.563  0.00  0.00    +0.000 HD
ENDBRANCH  22  23
ENDBRANCH  16  22
ENDBRANCH  15  20
ENDBRANCH  14  15
ENDBRANCH   1  14
TORSDOF 6
ENDMDL
MODEL 3
REMARK VINA RESULT:    -7.900      2.804      6.498
REMARK INTER + INTRA:         -10.881
REMARK INTER:                 -10.338
REMARK INTRA:                  -0.543
REMARK UNBOUND:                -0.440
REMARK  Name = 
REMARK  6 active torsions:
REMARK  status: ('A' for Active; 'I' for Inactive)
REMARK    1  A    between atoms: N_1  and  C_2
REMARK    2  A    between atoms: C_2  and  C_3
REMARK    3  A    between atoms: C_7  and  C_8
REMARK    4  A    between atoms: C_8  and  C_9
REMARK    5  A    between atoms: C_9  and  N_10
REMARK    6  A    between atoms: C_14  and  C_15
REMARK                            x       y       z     vdW  Elec       q    Type
REMARK                         _______ _______ _______ _____ _____    ______ ____
ROOT
ATOM      1  N   UNL     1      44.238   2.953  12.496  0.00  0.00    +0.000 N 
ATOM      2  C   UNL     1      45.144   3.934  12.888  0.00  0.00    +0.000 A 
ATOM      3  N   UNL     1      44.996   5.185  12.435  0.00  0.00    +0.000 NA
ATOM      4  C   UNL     1      45.930   6.094  12.784  0.00  0.00    +0.000 A 
ATOM      5  C   UNL     1      46.995   5.811  13.598  0.00  0.00    +0.000 A 
ATOM      6  C   UNL     1      47.060   4.505  14.031  0.00  0.00    +0.000 A 
ATOM      7  N   UNL     1      46.153   3.553  13.686  0.00  0.00    +0.000 NA
ATOM      8  H   UNL     1      44.712   2.062  12.605  0.00  0.00    +0.000 HD
ENDROOT
BRANCH   5   9
ATOM      9  C   UNL     1      47.982   6.856  13.891  0.00  0.00    +0.000 C 
ATOM     10  N   UNL     1      47.536   8.107  14.214  0.00  0.00    +0.000 N 
ATOM     11  O   UNL     1      49.181   6.620  13.817  0.00  0.00    +0.000 OA
ATOM     12  H   UNL     1      46.580   8.417  14.117  0.00  0.00    +0.000 HD
ATOM     13  H   UNL     1      48.251   8.819  14.316  0.00  0.00    +0.000 HD
ENDBRANCH   5   9
BRANCH   1  14
ATOM     14  C   UNL     1      43.661   3.213  11.177  0.00  0.00    +0.000 C 
BRANCH  14  15
ATOM     15  C   UNL     1      44.076   2.144  10.159  0.00  0.00    +0.000 C 
BRANCH  15  20
ATOM     16  C   UNL     1      46.716   2.283   7.396  0.00  0.00    +0.000 A 
ATOM     17  C   UNL     1      46.834   3.666   7.206  0.00  0.00    +0.000 A 
ATOM     18  C   UNL     1      46.107   4.553   7.997  0.00  0.00    +0.000 A 
ATOM     19  C   UNL     1      45.232   4.070   8.974  0.00  0.00    +0.000 A 
ATOM     20  C   UNL     1      45.091   2.692   9.180  0.00  0.00    +0.000 A 
ATOM     21  C   UNL     1      45.853   1.809   8.396  0.00  0.00    +0.000 A 
BRANCH  16  22
ATOM     22  C   UNL     1      47.442   1.316   6.496  0.00  0.00    +0.000 C 
BRANCH  22  23
ATOM     23  N   UNL     1      48.585   1.934   5.835  0.00  0.00    +0.000 NA
ATOM     24  H   UNL     1      48.643   1.584   4.881  0.00  0.00    +0.000 HD
ATOM     25  H   UNL     1      49.437   1.627   6.305  0.00  0.00    +0.000 HD
ENDBRANCH  22  23
ENDBRANCH  16  22
ENDBRANCH  15  20
ENDBRANCH  14  15
ENDBRANCH   1  14
TORSDOF 6
ENDMDL
MODEL 4
REMARK VINA RESULT:    -7.223      2.885      6.731
REMARK INTER + INTRA:          -9.985
REMARK INTER:                  -9.535
REMARK INTRA:                  -0.450
REMARK UNBOUND:                -0.440
REMARK  Name = 
REMARK  6 active torsions:
REMARK  status: ('A' for Active; 'I' for Inactive)
REMARK    1  A    between atoms: N_1  and  C_2
REMARK    2  A    between atoms: C_2  and  C_3
REMARK    3  A    between atoms: C_7  and  C_8
REMARK    4  A    between atoms: C_8  and  C_9
REMARK    5  A    between atoms: C_9  and  N_10
REMARK    6  A    between atoms: C_14  and  C_15
REMARK                            x       y       z     vdW  Elec       q    Type
REMARK                         _______ _______ _______ _____ _____    ______ ____
ROOT
ATOM      1  N   UNL     1      45.427   5.539  10.655  0.00  0.00    +0.000 N 
ATOM      2  C   UNL     1      46.017   5.288  11.890  0.00  0.00    +0.000 A 
ATOM      3  N   UNL     1      45.975   4.051  12.400  0.00  0.00    +0.000 NA
ATOM      4  C   UNL     1      46.501   3.860  13.627  0.00  0.00    +0.000 A 
ATOM      5  C   UNL     1      47.097   4.853  14.359  0.00  0.00    +0.000 A 
ATOM      6  C   UNL     1      47.111   6.089  13.752  0.00  0.00    +0.000 A 
ATOM      7  N   UNL     1      46.575   6.330  12.526  0.00  0.00    +0.000 NA
ATOM      8  H   UNL     1      45.223   6.533  10.629  0.00  0.00    +0.000 HD
ENDROOT
BRANCH   5   9
ATOM      9  C   UNL     1      47.606   4.558  15.703  0.00  0.00    +0.000 C 
ATOM     10  N   UNL     1      46.876   3.737  16.515  0.00  0.00    +0.000 N 
ATOM     11  O   UNL     1      48.648   5.063  16.100  0.00  0.00    +0.000 OA
ATOM     12  H   UNL     1      45.931   3.435  16.325  0.00  0.00    +0.000 HD
ATOM     13  H   UNL     1      47.216   3.637  17.466  0.00  0.00    +0.000 HD
ENDBRANCH   5   9
BRANCH   1  14
ATOM     14  C   UNL     1      44.302   4.647  10.376  0.00  0.00    +0.000 C 
BRANCH  14  15
ATOM     15  C   UNL     1      44.097   4.454   8.869  0.00  0.00    +0.000 C 
BRANCH  15  20
ATOM     16  C   UNL     1      46.655   2.514   6.790  0.00  0.00    +0.000 A 
ATOM     17  C   UNL     1      46.688   1.292   7.476  0.00  0.00    +0.000 A 
ATOM     18  C   UNL     1      45.854   1.073   8.570  0.00  0.00    +0.000 A 
ATOM     19  C   UNL     1      44.993   2.081   9.012  0.00  0.00    +0.000 A 
ATOM     20  C   UNL     1      44.945   3.313   8.348  0.00  0.00    +0.000 A 
ATOM     21  C   UNL     1      45.769   3.511   7.227  0.00  0.00    +0.000 A 
BRANCH  16  22
ATOM     22  C   UNL     1      47.605   2.785   5.652  0.00  0.00    +0.000 C 
BRANCH  22  23
ATOM     23  N   UNL     1      48.586   1.719   5.489  0.00  0.00    +0.000 NA
ATOM     24  H   UNL     1      48.116   0.893   5.125  0.00  0.00    +0.000 HD
ATOM     25  H   UNL     1      48.944   1.464   6.409  0.00  0.00    +0.000 HD
ENDBRANCH  22  23
ENDBRANCH  16  22
ENDBRANCH  15  20
ENDBRANCH  14  15
ENDBRANCH   1  14
TORSDOF 6
ENDMDL
MODEL 5
REMARK VINA RESULT:    -6.742      3.765      6.183
REMARK INTER + INTRA:          -9.350
REMARK INTER:                  -9.025
REMARK INTRA:                  -0.324
REMARK UNBOUND:                -0.440
REMARK  Name = 
REMARK  6 active torsions:
REMARK  status: ('A' for Active; 'I' for Inactive)
REMARK    1  A    between atoms: N_1  and  C_2
REMARK    2  A    between atoms: C_2  and  C_3
REMARK    3  A    between atoms: C_7  and  C_8
REMARK    4  A    between atoms: C_8  and  C_9
REMARK    5  A    between atoms: C_9  and  N_10
REMARK    6  A    between atoms: C_14  and  C_15
REMARK                            x       y       z     vdW  Elec       q    Type
REMARK                         _______ _______ _______ _____ _____    ______ ____
ROOT
ATOM      1  N   UNL     1      47.234   3.448  14.641  0.00  0.00    +0.000 N 
ATOM      2  C   UNL     1      46.368   3.853  13.630  0.00  0.00    +0.000 A 
ATOM      3  N   UNL     1      46.034   5.145  13.529  0.00  0.00    +0.000 NA
ATOM      4  C   UNL     1      45.141   5.490  12.577  0.00  0.00    +0.000 A 
ATOM      5  C   UNL     1      44.589   4.596  11.698  0.00  0.00    +0.000 A 
ATOM      6  C   UNL     1      45.002   3.293  11.863  0.00  0.00    +0.000 A 
ATOM      7  N   UNL     1      45.881   2.899  12.822  0.00  0.00    +0.000 NA
ATOM      8  H   UNL     1      47.059   2.460  14.793  0.00  0.00    +0.000 HD
ENDROOT
BRANCH   5   9
ATOM      9  C   UNL     1      43.596   5.059  10.721  0.00  0.00    +0.000 C 
ATOM     10  N   UNL     1      43.759   4.717   9.409  0.00  0.00    +0.000 N 
ATOM     11  O   UNL     1      42.659   5.764  11.072  0.00  0.00    +0.000 OA
ATOM     12  H   UNL     1      44.594   4.298   9.025  0.00  0.00    +0.000 HD
ATOM     13  H   UNL     1      43.103   5.135   8.758  0.00  0.00    +0.000 HD
ENDBRANCH   5   9
BRANCH   1  14
ATOM     14  C   UNL     1      47.155   4.301  15.827  0.00  0.00    +0.000 C 
BRANCH  14  15
ATOM     15  C   UNL     1      47.510   3.528  17.103  0.00  0.00    +0.000 C 
BRANCH  15  20
ATOM     16  C   UNL     1      51.186   2.569  17.538  0.00  0.00    +0.000 A 
ATOM     17  C   UNL     1      51.767   3.825  17.766  0.00  0.00    +0.000 A 
ATOM     18  C   UNL     1      50.974   4.969  17.831  0.00  0.00    +0.000 A 
ATOM     19  C   UNL     1      49.592   4.879  17.644  0.00  0.00    +0.000 A 
ATOM     20  C   UNL     1      48.988   3.638  17.409  0.00  0.00    +0.000 A 
ATOM     21  C   UNL     1      49.795   2.487  17.376  0.00  0.00    +0.000 A 
BRANCH  16  22
ATOM     22  C   UNL     1      52.044   1.339  17.394  0.00  0.00    +0.000 C 
BRANCH  22  23
ATOM     23  N   UNL     1      51.533   0.218  18.174  0.00  0.00    +0.000 NA
ATOM     24  H   UNL     1      52.298  -0.184  18.713  0.00  0.00    +0.000 HD
ATOM     25  H   UNL     1      51.222  -0.509  17.531  0.00  0.00    +0.000 HD
ENDBRANCH  22  23
ENDBRANCH  16  22
ENDBRANCH  15  20
ENDBRANCH  14  15
ENDBRANCH   1  14
TORSDOF 6
ENDMDL
MODEL 6
REMARK VINA RESULT:    -6.527      3.566      7.424
REMARK INTER + INTRA:          -9.066
REMARK INTER:                  -8.751
REMARK INTRA:                  -0.315
REMARK UNBOUND:                -0.440
REMARK  Name = 
REMARK  6 active torsions:
REMARK  status: ('A' for Active; 'I' for Inactive)
REMARK    1  A    between atoms: N_1  and  C_2
REMARK    2  A    between atoms: C_2  and  C_3
REMARK    3  A    between atoms: C_7  and  C_8
REMARK    4  A    between atoms: C_8  and  C_9
REMARK    5  A    between atoms: C_9  and  N_10
REMARK    6  A    between atoms: C_14  and  C_15
REMARK                            x       y       z     vdW  Elec       q    Type
REMARK                         _______ _______ _______ _____ _____    ______ ____
ROOT
ATOM      1  N   UNL     1      46.929   5.663  12.854  0.00  0.00    +0.000 N 
ATOM      2  C   UNL     1      47.326   5.323  14.144  0.00  0.00    +0.000 A 
ATOM      3  N   UNL     1      46.758   4.274  14.752  0.00  0.00    +0.000 NA
ATOM      4  C   UNL     1      47.121   4.014  16.024  0.00  0.00    +0.000 A 
ATOM      5  C   UNL     1      48.057   4.743  16.709  0.00  0.00    +0.000 A 
ATOM      6  C   UNL     1      48.602   5.792  16.002  0.00  0.00    +0.000 A 
ATOM      7  N   UNL     1      48.249   6.103  14.727  0.00  0.00    +0.000 NA
ATOM      8  H   UNL     1      47.159   6.644  12.731  0.00  0.00    +0.000 HD
ENDROOT
BRANCH   5   9
ATOM      9  C   UNL     1      48.358   4.408  18.106  0.00  0.00    +0.000 C 
ATOM     10  N   UNL     1      47.856   3.249  18.625  0.00  0.00    +0.000 N 
ATOM     11  O   UNL     1      49.021   5.169  18.800  0.00  0.00    +0.000 OA
ATOM     12  H   UNL     1      47.160   2.672  18.173  0.00  0.00    +0.000 HD
ATOM     13  H   UNL     1      48.010   3.105  19.617  0.00  0.00    +0.000 HD
ENDBRANCH   5   9
BRANCH   1  14
ATOM     14  C   UNL     1      45.543   5.291  12.574  0.00  0.00    +0.000 C 
BRANCH  14  15
ATOM     15  C   UNL     1      45.102   5.764  11.184  0.00  0.00    +0.000 C 
BRANCH  15  20
ATOM     16  C   UNL     1      45.728   3.621   8.079  0.00  0.00    +0.000 A 
ATOM     17  C   UNL     1      45.129   2.413   8.461  0.00  0.00    +0.000 A 
ATOM     18  C   UNL     1      44.481   2.302   9.689  0.00  0.00    +0.000 A 
ATOM     19  C   UNL     1      44.444   3.390  10.566  0.00  0.00    +0.000 A 
ATOM     20  C   UNL     1      45.040   4.606  10.211  0.00  0.00    +0.000 A 
ATOM     21  C   UNL     1      45.664   4.715   8.956  0.00  0.00    +0.000 A 
BRANCH  16  22
ATOM     22  C   UNL     1      46.493   3.727   6.785  0.00  0.00    +0.000 C 
BRANCH  22  23
ATOM     23  N   UNL     1      47.788   3.062   6.857  0.00  0.00    +0.000 NA
ATOM     24  H   UNL     1      48.298   3.420   7.661  0.00  0.00    +0.000 HD
ATOM     25  H   UNL     1      48.332   3.321   6.034  0.00  0.00    +0.000 HD
ENDBRANCH  22  23
ENDBRANCH  16  22
ENDBRANCH  15  20
ENDBRANCH  14  15
ENDBRANCH   1  14
TORSDOF 6
ENDMDL
MODEL 7
REMARK VINA RESULT:    -6.080      3.528      5.469
REMARK INTER + INTRA:          -8.476
REMARK INTER:                  -8.000
REMARK INTRA:                  -0.476
REMARK UNBOUND:                -0.440
REMARK  Name = 
REMARK  6 active torsions:
REMARK  status: ('A' for Active; 'I' for Inactive)
REMARK    1  A    between atoms: N_1  and  C_2
REMARK    2  A    between atoms: C_2  and  C_3
REMARK    3  A    between atoms: C_7  and  C_8
REMARK    4  A    between atoms: C_8  and  C_9
REMARK    5  A    between atoms: C_9  and  N_10
REMARK    6  A    between atoms: C_14  and  C_15
REMARK                            x       y       z     vdW  Elec       q    Type
REMARK                         _______ _______ _______ _____ _____    ______ ____
ROOT
ATOM      1  N   UNL     1      47.265   7.474  13.495  0.00  0.00    +0.000 N 
ATOM      2  C   UNL     1      46.397   6.474  13.069  0.00  0.00    +0.000 A 
ATOM      3  N   UNL     1      46.429   5.277  13.667  0.00  0.00    +0.000 NA
ATOM      4  C   UNL     1      45.618   4.312  13.185  0.00  0.00    +0.000 A 
ATOM      5  C   UNL     1      44.750   4.504  12.143  0.00  0.00    +0.000 A 
ATOM      6  C   UNL     1      44.771   5.769  11.598  0.00  0.00    +0.000 A 
ATOM      7  N   UNL     1      45.587   6.763  12.039  0.00  0.00    +0.000 NA
ATOM      8  H   UNL     1      47.366   8.120  12.718  0.00  0.00    +0.000 HD
ENDROOT
BRANCH   5   9
ATOM      9  C   UNL     1      43.935   3.382  11.661  0.00  0.00    +0.000 C 
ATOM     10  N   UNL     1      43.788   2.287  12.464  0.00  0.00    +0.000 N 
ATOM     11  O   UNL     1      43.425   3.415  10.549  0.00  0.00    +0.000 OA
ATOM     12  H   UNL     1      44.322   2.116  13.304  0.00  0.00    +0.000 HD
ATOM     13  H   UNL     1      43.297   1.500  12.053  0.00  0.00    +0.000 HD
ENDBRANCH   5   9
BRANCH   1  14
ATOM     14  C   UNL     1      48.509   6.942  14.051  0.00  0.00    +0.000 C 
BRANCH  14  15
ATOM     15  C   UNL     1      48.696   7.357  15.515  0.00  0.00    +0.000 C 
BRANCH  15  20
ATOM     16  C   UNL     1      48.857   3.979  17.301  0.00  0.00    +0.000 A 
ATOM     17  C   UNL     1      50.201   3.948  17.696  0.00  0.00    +0.000 A 
ATOM     18  C   UNL     1      51.041   5.029  17.436  0.00  0.00    +0.000 A 
ATOM     19  C   UNL     1      50.555   6.148  16.754  0.00  0.00    +0.000 A 
ATOM     20  C   UNL     1      49.218   6.202  16.343  0.00  0.00    +0.000 A 
ATOM     21  C   UNL     1      48.374   5.118  16.639  0.00  0.00    +0.000 A 
BRANCH  16  22
ATOM     22  C   UNL     1      47.963   2.784  17.514  0.00  0.00    +0.000 C 
BRANCH  22  23
ATOM     23  N   UNL     1      46.557   3.158  17.597  0.00  0.00    +0.000 NA
ATOM     24  H   UNL     1      46.256   3.096  18.567  0.00  0.00    +0.000 HD
ATOM     25  H   UNL     1      46.008   2.471  17.080  0.00  0.00    +0.000 HD
ENDBRANCH  22  23
ENDBRANCH  16  22
ENDBRANCH  15  20
ENDBRANCH  14  15
ENDBRANCH   1  14
TORSDOF 6
ENDMDL
MODEL 8
REMARK VINA RESULT:    -6.064      3.544      7.577
REMARK INTER + INTRA:          -8.454
REMARK INTER:                  -8.265
REMARK INTRA:                  -0.188
REMARK UNBOUND:                -0.440
REMARK  Name = 
REMARK  6 active torsions:
REMARK  status: ('A' for Active; 'I' for Inactive)
REMARK    1  A    between atoms: N_1  and  C_2
REMARK    2  A    between atoms: C_2  and  C_3
REMARK    3  A    between atoms: C_7  and  C_8
REMARK    4  A    between atoms: C_8  and  C_9
REMARK    5  A    between atoms: C_9  and  N_10
REMARK    6  A    between atoms: C_14  and  C_15
REMARK                            x       y       z     vdW  Elec       q    Type
REMARK                         _______ _______ _______ _____ _____    ______ ____
ROOT
ATOM      1  N   UNL     1      46.721   5.367  13.869  0.00  0.00    +0.000 N 
ATOM      2  C   UNL     1      47.292   5.043  15.096  0.00  0.00    +0.000 A 
ATOM      3  N   UNL     1      48.344   5.744  15.536  0.00  0.00    +0.000 NA
ATOM      4  C   UNL     1      48.912   5.360  16.699  0.00  0.00    +0.000 A 
ATOM      5  C   UNL     1      48.450   4.318  17.459  0.00  0.00    +0.000 A 
ATOM      6  C   UNL     1      47.355   3.664  16.939  0.00  0.00    +0.000 A 
ATOM      7  N   UNL     1      46.766   4.004  15.762  0.00  0.00    +0.000 NA
ATOM      8  H   UNL     1      46.237   4.534  13.547  0.00  0.00    +0.000 HD
ENDROOT
BRANCH   5   9
ATOM      9  C   UNL     1      49.158   3.950  18.691  0.00  0.00    +0.000 C 
ATOM     10  N   UNL     1      48.495   3.218  19.634  0.00  0.00    +0.000 N 
ATOM     11  O   UNL     1      50.310   4.319  18.882  0.00  0.00    +0.000 OA
ATOM     12  H   UNL     1      47.501   3.036  19.624  0.00  0.00    +0.000 HD
ATOM     13  H   UNL     1      48.990   3.067  20.506  0.00  0.00    +0.000 HD
ENDBRANCH   5   9
BRANCH   1  14
ATOM     14  C   UNL     1      47.684   5.948  12.934  0.00  0.00    +0.000 C 
BRANCH  14  15
ATOM     15  C   UNL     1      46.997   6.867  11.916  0.00  0.00    +0.000 C 
BRANCH  15  20
ATOM     16  C   UNL     1      44.493   4.497  10.262  0.00  0.00    +0.000 A 
ATOM     17  C   UNL     1      43.279   5.019  10.729  0.00  0.00    +0.000 A 
ATOM     18  C   UNL     1      43.261   6.159  11.529  0.00  0.00    +0.000 A 
ATOM     19  C   UNL     1      44.458   6.780  11.897  0.00  0.00    +0.000 A 
ATOM     20  C   UNL     1      45.685   6.274  11.450  0.00  0.00    +0.000 A 
ATOM     21  C   UNL     1      45.688   5.142  10.617  0.00  0.00    +0.000 A 
BRANCH  16  22
ATOM     22  C   UNL     1      44.525   3.223   9.457  0.00  0.00    +0.000 C 
BRANCH  22  23
ATOM     23  N   UNL     1      44.427   3.475   8.025  0.00  0.00    +0.000 NA
ATOM     24  H   UNL     1      44.175   2.609   7.554  0.00  0.00    +0.000 HD
ATOM     25  H   UNL     1      45.351   3.733   7.677  0.00  0.00    +0.000 HD
ENDBRANCH  22  23
ENDBRANCH  16  22
ENDBRANCH  15  20
ENDBRANCH  14  15
ENDBRANCH   1  14
TORSDOF 6
ENDMDL
MODEL 9
REMARK VINA RESULT:    -5.944      3.966      7.980
REMARK INTER + INTRA:          -8.295
REMARK INTER:                  -7.957
REMARK INTRA:                  -0.338
REMARK UNBOUND:                -0.440
REMARK  Name = 
REMARK  6 active torsions:
REMARK  status: ('A' for Active; 'I' for Inactive)
REMARK    1  A    between atoms: N_1  and  C_2
REMARK    2  A    between atoms: C_2  and  C_3
REMARK    3  A    between atoms: C_7  and  C_8
REMARK    4  A    between atoms: C_8  and  C_9
REMARK    5  A    between atoms: C_9  and  N_10
REMARK    6  A    between atoms: C_14  and  C_15
REMARK                            x       y       z     vdW  Elec       q    Type
REMARK                         _______ _______ _______ _____ _____    ______ ____
ROOT
ATOM      1  N   UNL     1      47.044   3.529  15.566  0.00  0.00    +0.000 N 
ATOM      2  C   UNL     1      48.250   3.427  16.253  0.00  0.00    +0.000 A 
ATOM      3  N   UNL     1      48.807   4.529  16.771  0.00  0.00    +0.000 NA
ATOM      4  C   UNL     1      50.008   4.401  17.373  0.00  0.00    +0.000 A 
ATOM      5  C   UNL     1      50.664   3.206  17.507  0.00  0.00    +0.000 A 
ATOM      6  C   UNL     1      50.011   2.124  16.961  0.00  0.00    +0.000 A 
ATOM      7  N   UNL     1      48.812   2.211  16.327  0.00  0.00    +0.000 NA
ATOM      8  H   UNL     1      46.993   2.724  14.950  0.00  0.00    +0.000 HD
ENDROOT
BRANCH   5   9
ATOM      9  C   UNL     1      51.986   3.172  18.144  0.00  0.00    +0.000 C 
ATOM     10  N   UNL     1      52.528   1.961  18.466  0.00  0.00    +0.000 N 
ATOM     11  O   UNL     1      52.576   4.212  18.411  0.00  0.00    +0.000 OA
ATOM     12  H   UNL     1      52.026   1.084  18.442  0.00  0.00    +0.000 HD
ATOM     13  H   UNL     1      53.397   1.988  18.988  0.00  0.00    +0.000 HD
ENDBRANCH   5   9
BRANCH   1  14
ATOM     14  C   UNL     1      46.867   4.834  14.929  0.00  0.00    +0.000 C 
BRANCH  14  15
ATOM     15  C   UNL     1      47.042   4.747  13.408  0.00  0.00    +0.000 C 
BRANCH  15  20
ATOM     16  C   UNL     1      44.395   4.545  10.655  0.00  0.00    +0.000 A 
ATOM     17  C   UNL     1      43.222   4.757  11.393  0.00  0.00    +0.000 A 
ATOM     18  C   UNL     1      43.284   5.016  12.760  0.00  0.00    +0.000 A 
ATOM     19  C   UNL     1      44.518   5.041  13.416  0.00  0.00    +0.000 A 
ATOM     20  C   UNL     1      45.704   4.826  12.703  0.00  0.00    +0.000 A 
ATOM     21  C   UNL     1      45.630   4.596  11.319  0.00  0.00    +0.000 A 
BRANCH  16  22
ATOM     22  C   UNL     1      44.331   4.192   9.191  0.00  0.00    +0.000 C 
BRANCH  22  23
ATOM     23  N   UNL     1      45.379   4.851   8.421  0.00  0.00    +0.000 NA
ATOM     24  H   UNL     1      45.042   5.006   7.473  0.00  0.00    +0.000 HD
ATOM     25  H   UNL     1      46.173   4.215   8.344  0.00  0.00    +0.000 HD
ENDBRANCH  22  23
ENDBRANCH  16  22
ENDBRANCH  15  20
ENDBRANCH  14  15
ENDBRANCH   1  14
TORSDOF 6
ENDMDL
