MODEL 1
REMARK VINA RESULT:    -7.802      0.000      0.000
REMARK INTER + INTRA:          -9.715
REMARK INTER:                  -9.399
REMARK INTRA:                  -0.316
REMARK UNBOUND:                -0.316
REMARK  Name = 
REMARK  4 active torsions:
REMARK  status: ('A' for Active; 'I' for Inactive)
REMARK    1  A    between atoms: N_1  and  C_2
REMARK    2  A    between atoms: C_2  and  C_3
REMARK    3  A    between atoms: C_6  and  C_7
REMARK    4  A    between atoms: C_7  and  N_8
REMARK                            x       y       z     vdW  Elec       q    Type
REMARK                         _______ _______ _______ _____ _____    ______ ____
ROOT
ATOM      1  C   UNL     1      43.798   4.713   9.604  0.00  0.00    +0.000 C 
ENDROOT
BRANCH   1   2
ATOM      2  N   UNL     1      44.194   4.540  10.996  0.00  0.00    +0.000 N 
ATOM      3  C   UNL     1      43.602   3.642  11.851  0.00  0.00    +0.000 A 
ATOM      4  C   UNL     1      44.339   3.607  13.011  0.00  0.00    +0.000 A 
ATOM      5  C   UNL     1      45.396   4.547  12.879  0.00  0.00    +0.000 A 
ATOM      6  C   UNL     1      46.469   4.933  13.704  0.00  0.00    +0.000 A 
ATOM      7  F   UNL     1      46.662   4.336  14.889  0.00  0.00    +0.000 F 
ATOM      8  C   UNL     1      47.355   5.929  13.294  0.00  0.00    +0.000 A 
ATOM      9  C   UNL     1      47.162   6.573  12.078  0.00  0.00    +0.000 A 
ATOM     10  C   UNL     1      46.103   6.212  11.230  0.00  0.00    +0.000 A 
ATOM     11  C   UNL     1      45.246   5.172  11.633  0.00  0.00    +0.000 A 
ENDBRANCH   1   2
BRANCH   1  15
ATOM     12  C   UNL     1      46.930   2.178   7.785  0.00  0.00    +0.000 C 
ATOM     13  C   UNL     1      45.683   1.505   8.377  0.00  0.00    +0.000 C 
ATOM     14  C   UNL     1      44.906   2.431   9.309  0.00  0.00    +0.000 C 
ATOM     15  C   UNL     1      44.519   3.753   8.628  0.00  0.00    +0.000 C 
ATOM     16  C   UNL     1      45.766   4.429   8.034  0.00  0.00    +0.000 C 
ATOM     17  C   UNL     1      46.545   3.499   7.099  0.00  0.00    +0.000 C 
BRANCH  12  18
ATOM     18  C   UNL     1      47.632   1.194   6.829  0.00  0.00    +0.000 C 
BRANCH  18  19
ATOM     19  N   UNL     1      48.422   1.871   5.807  0.00  0.00    +0.000 NA
ATOM     20  H   UNL     1      49.397   1.905   6.102  0.00  0.00    +0.000 HD
ATOM     21  H   UNL     1      48.117   2.840   5.719  0.00  0.00    +0.000 HD
ENDBRANCH  18  19
ENDBRANCH  12  18
ENDBRANCH   1  15
TORSDOF 4
ENDMDL
MODEL 2
REMARK VINA RESULT:    -7.299      1.411      2.109
REMARK INTER + INTRA:          -9.108
REMARK INTER:                  -8.581
REMARK INTRA:                  -0.527
REMARK UNBOUND:                -0.316
REMARK  Name = 
REMARK  4 active torsions:
REMARK  status: ('A' for Active; 'I' for Inactive)
REMARK    1  A    between atoms: N_1  and  C_2
REMARK    2  A    between atoms: C_2  and  C_3
REMARK    3  A    between atoms: C_6  and  C_7
REMARK    4  A    between atoms: C_7  and  N_8
REMARK                            x       y       z     vdW  Elec       q    Type
REMARK                         _______ _______ _______ _____ _____    ______ ____
ROOT
ATOM      1  C   UNL     1      44.709   3.339  10.593  0.00  0.00    +0.000 C 
ENDROOT
BRANCH   1   2
ATOM      2  N   UNL     1      45.267   4.081  11.717  0.00  0.00    +0.000 N 
ATOM      3  C   UNL     1      45.945   3.493  12.757  0.00  0.00    +0.000 A 
ATOM      4  C   UNL     1      46.490   4.491  13.529  0.00  0.00    +0.000 A 
ATOM      5  C   UNL     1      46.097   5.735  12.968  0.00  0.00    +0.000 A 
ATOM      6  C   UNL     1      46.360   7.080  13.290  0.00  0.00    +0.000 A 
ATOM      7  F   UNL     1      47.170   7.385  14.314  0.00  0.00    +0.000 F 
ATOM      8  C   UNL     1      45.797   8.111  12.539  0.00  0.00    +0.000 A 
ATOM      9  C   UNL     1      44.941   7.816  11.485  0.00  0.00    +0.000 A 
ATOM     10  C   UNL     1      44.658   6.487  11.135  0.00  0.00    +0.000 A 
ATOM     11  C   UNL     1      45.272   5.455  11.870  0.00  0.00    +0.000 A 
ENDBRANCH   1   2
BRANCH   1  15
ATOM     12  C   UNL     1      46.313   2.626   6.535  0.00  0.00    +0.000 C 
ATOM     13  C   UNL     1      46.538   3.997   7.191  0.00  0.00    +0.000 C 
ATOM     14  C   UNL     1      45.609   4.236   8.377  0.00  0.00    +0.000 C 
ATOM     15  C   UNL     1      45.710   3.123   9.432  0.00  0.00    +0.000 C 
ATOM     16  C   UNL     1      45.483   1.751   8.777  0.00  0.00    +0.000 C 
ATOM     17  C   UNL     1      46.416   1.511   7.586  0.00  0.00    +0.000 C 
BRANCH  12  18
ATOM     18  C   UNL     1      47.312   2.447   5.376  0.00  0.00    +0.000 C 
BRANCH  18  19
ATOM     19  N   UNL     1      48.557   1.816   5.800  0.00  0.00    +0.000 NA
ATOM     20  H   UNL     1      48.464   0.804   5.723  0.00  0.00    +0.000 HD
ATOM     21  H   UNL     1      48.726   2.013   6.786  0.00  0.00    +0.000 HD
ENDBRANCH  18  19
ENDBRANCH  12  18
ENDBRANCH   1  15
TORSDOF 4
ENDMDL
MODEL 3
REMARK VINA RESULT:    -7.265      1.396      2.112
REMARK INTER + INTRA:          -9.067
REMARK INTER:                  -8.797
REMARK INTRA:                  -0.270
REMARK UNBOUND:                -0.316
REMARK  Name = 
REMARK  4 active torsions:
REMARK  status: ('A' for Active; 'I' for Inactive)
REMARK    1  A    between atoms: N_1  and  C_2
REMARK    2  A    between atoms: C_2  and  C_3
REMARK    3  A    between atoms: C_6  and  C_7
REMARK    4  A    between atoms: C_7  and  N_8
REMARK                            x       y       z     vdW  Elec       q    Type
REMARK                         _______ _______ _______ _____ _____    ______ ____
ROOT
ATOM      1  C   UNL     1      43.717   4.873  10.497  0.00  0.00    +0.000 C 
ENDROOT
BRANCH   1   2
ATOM      2  N   UNL     1      44.775   5.590  11.199  0.00  0.00    +0.000 N 
ATOM      3  C   UNL     1      45.029   6.929  11.031  0.00  0.00    +0.000 A 
ATOM      4  C   UNL     1      45.952   7.310  11.975  0.00  0.00    +0.000 A 
ATOM      5  C   UNL     1      46.309   6.155  12.721  0.00  0.00    +0.000 A 
ATOM      6  C   UNL     1      47.166   5.922  13.814  0.00  0.00    +0.000 A 
ATOM      7  F   UNL     1      47.828   6.940  14.384  0.00  0.00    +0.000 F 
ATOM      8  C   UNL     1      47.326   4.636  14.326  0.00  0.00    +0.000 A 
ATOM      9  C   UNL     1      46.663   3.566  13.738  0.00  0.00    +0.000 A 
ATOM     10  C   UNL     1      45.799   3.762  12.650  0.00  0.00    +0.000 A 
ATOM     11  C   UNL     1      45.609   5.072  12.173  0.00  0.00    +0.000 A 
ENDBRANCH   1   2
BRANCH   1  15
ATOM     12  C   UNL     1      46.319   2.081   8.266  0.00  0.00    +0.000 C 
ATOM     13  C   UNL     1      44.993   1.560   8.840  0.00  0.00    +0.000 C 
ATOM     14  C   UNL     1      44.412   2.489   9.903  0.00  0.00    +0.000 C 
ATOM     15  C   UNL     1      44.235   3.926   9.389  0.00  0.00    +0.000 C 
ATOM     16  C   UNL     1      45.562   4.449   8.815  0.00  0.00    +0.000 C 
ATOM     17  C   UNL     1      46.145   3.518   7.748  0.00  0.00    +0.000 C 
BRANCH  12  18
ATOM     18  C   UNL     1      46.817   1.111   7.177  0.00  0.00    +0.000 C 
BRANCH  18  19
ATOM     19  N   UNL     1      46.913  -0.264   7.652  0.00  0.00    +0.000 NA
ATOM     20  H   UNL     1      46.003  -0.565   7.998  0.00  0.00    +0.000 HD
ATOM     21  H   UNL     1      47.551  -0.312   8.446  0.00  0.00    +0.000 HD
ENDBRANCH  18  19
ENDBRANCH  12  18
ENDBRANCH   1  15
TORSDOF 4
ENDMDL
MODEL 4
REMARK VINA RESULT:    -6.867      2.783      5.663
REMARK INTER + INTRA:          -8.588
REMARK INTER:                  -8.274
REMARK INTRA:                  -0.314
REMARK UNBOUND:                -0.316
REMARK  Name = 
REMARK  4 active torsions:
REMARK  status: ('A' for Active; 'I' for Inactive)
REMARK    1  A    between atoms: N_1  and  C_2
REMARK    2  A    between atoms: C_2  and  C_3
REMARK    3  A    between atoms: C_6  and  C_7
REMARK    4  A    between atoms: C_7  and  N_8
REMARK                            x       y       z     vdW  Elec       q    Type
REMARK                         _______ _______ _______ _____ _____    ______ ____
ROOT
ATOM      1  C   UNL     1      43.933   6.064  12.216  0.00  0.00    +0.000 C 
ENDROOT
BRANCH   1   2
ATOM      2  N   UNL     1      44.023   4.699  11.711  0.00  0.00    +0.000 N 
ATOM      3  C   UNL     1      43.465   3.615  12.342  0.00  0.00    +0.000 A 
ATOM      4  C   UNL     1      43.575   2.530  11.505  0.00  0.00    +0.000 A 
ATOM      5  C   UNL     1      44.263   2.955  10.337  0.00  0.00    +0.000 A 
ATOM      6  C   UNL     1      44.641   2.319   9.139  0.00  0.00    +0.000 A 
ATOM      7  F   UNL     1      44.312   1.037   8.919  0.00  0.00    +0.000 F 
ATOM      8  C   UNL     1      45.347   3.016   8.160  0.00  0.00    +0.000 A 
ATOM      9  C   UNL     1      45.714   4.339   8.376  0.00  0.00    +0.000 A 
ATOM     10  C   UNL     1      45.352   5.004   9.557  0.00  0.00    +0.000 A 
ATOM     11  C   UNL     1      44.597   4.304  10.516  0.00  0.00    +0.000 A 
ENDBRANCH   1   2
BRANCH   1  15
ATOM     12  C   UNL     1      48.246   6.914  12.689  0.00  0.00    +0.000 C 
ATOM     13  C   UNL     1      47.293   8.074  12.362  0.00  0.00    +0.000 C 
ATOM     14  C   UNL     1      45.945   7.591  11.835  0.00  0.00    +0.000 C 
ATOM     15  C   UNL     1      45.263   6.603  12.795  0.00  0.00    +0.000 C 
ATOM     16  C   UNL     1      46.215   5.441  13.123  0.00  0.00    +0.000 C 
ATOM     17  C   UNL     1      47.568   5.926  13.652  0.00  0.00    +0.000 C 
BRANCH  12  18
ATOM     18  C   UNL     1      49.564   7.482  13.250  0.00  0.00    +0.000 C 
BRANCH  18  19
ATOM     19  N   UNL     1      49.908   6.922  14.552  0.00  0.00    +0.000 NA
ATOM     20  H   UNL     1      50.916   6.988  14.690  0.00  0.00    +0.000 HD
ATOM     21  H   UNL     1      49.681   5.929  14.572  0.00  0.00    +0.000 HD
ENDBRANCH  18  19
ENDBRANCH  12  18
ENDBRANCH   1  15
TORSDOF 4
ENDMDL
MODEL 5
REMARK VINA RESULT:    -6.549      2.831      6.121
REMARK INTER + INTRA:          -8.205
REMARK INTER:                  -7.789
REMARK INTRA:                  -0.416
REMARK UNBOUND:                -0.316
REMARK  Name = 
REMARK  4 active torsions:
REMARK  status: ('A' for Active; 'I' for Inactive)
REMARK    1  A    between atoms: N_1  and  C_2
REMARK    2  A    between atoms: C_2  and  C_3
REMARK    3  A    between atoms: C_6  and  C_7
REMARK    4  A    between atoms: C_7  and  N_8
REMARK                            x       y       z     vdW  Elec       q    Type
REMARK                         _______ _______ _______ _____ _____    ______ ____
ROOT
ATOM      1  C   UNL     1      43.727   5.647  10.815  0.00  0.00    +0.000 C 
ENDROOT
BRANCH   1   2
ATOM      2  N   UNL     1      44.134   4.279  10.515  0.00  0.00    +0.000 N 
ATOM      3  C   UNL     1      43.649   3.177  11.175  0.00  0.00    +0.000 A 
ATOM      4  C   UNL     1      44.093   2.055  10.516  0.00  0.00    +0.000 A 
ATOM      5  C   UNL     1      44.914   2.483   9.439  0.00  0.00    +0.000 A 
ATOM      6  C   UNL     1      45.613   1.814   8.416  0.00  0.00    +0.000 A 
ATOM      7  F   UNL     1      45.545   0.479   8.310  0.00  0.00    +0.000 F 
ATOM      8  C   UNL     1      46.370   2.531   7.491  0.00  0.00    +0.000 A 
ATOM      9  C   UNL     1      46.467   3.914   7.593  0.00  0.00    +0.000 A 
ATOM     10  C   UNL     1      45.783   4.613   8.599  0.00  0.00    +0.000 A 
ATOM     11  C   UNL     1      44.982   3.882   9.497  0.00  0.00    +0.000 A 
ENDBRANCH   1   2
BRANCH   1  15
ATOM     12  C   UNL     1      46.192   8.350  13.298  0.00  0.00    +0.000 C 
ATOM     13  C   UNL     1      46.697   6.925  13.028  0.00  0.00    +0.000 C 
ATOM     14  C   UNL     1      45.594   5.999  12.522  0.00  0.00    +0.000 C 
ATOM     15  C   UNL     1      44.892   6.556  11.273  0.00  0.00    +0.000 C 
ATOM     16  C   UNL     1      44.385   7.982  11.543  0.00  0.00    +0.000 C 
ATOM     17  C   UNL     1      45.492   8.910  12.050  0.00  0.00    +0.000 C 
BRANCH  12  18
ATOM     18  C   UNL     1      47.370   9.226  13.765  0.00  0.00    +0.000 C 
BRANCH  18  19
ATOM     19  N   UNL     1      47.592   9.147  15.204  0.00  0.00    +0.000 NA
ATOM     20  H   UNL     1      48.406   9.709  15.450  0.00  0.00    +0.000 HD
ATOM     21  H   UNL     1      47.818   8.188  15.467  0.00  0.00    +0.000 HD
ENDBRANCH  18  19
ENDBRANCH  12  18
ENDBRANCH   1  15
TORSDOF 4
ENDMDL
MODEL 6
REMARK VINA RESULT:    -6.200      2.994      6.123
REMARK INTER + INTRA:          -7.784
REMARK INTER:                  -7.329
REMARK INTRA:                  -0.454
REMARK UNBOUND:                -0.316
REMARK  Name = 
REMARK  4 active torsions:
REMARK  status: ('A' for Active; 'I' for Inactive)
REMARK    1  A    between atoms: N_1  and  C_2
REMARK    2  A    between atoms: C_2  and  C_3
REMARK    3  A    between atoms: C_6  and  C_7
REMARK    4  A    between atoms: C_7  and  N_8
REMARK                            x       y       z     vdW  Elec       q    Type
REMARK                         _______ _______ _______ _____ _____    ______ ____
ROOT
ATOM      1  C   UNL     1      45.119   6.752  11.905  0.00  0.00    +0.000 C 
ENDROOT
BRANCH   1   2
ATOM      2  N   UNL     1      44.923   5.335  11.619  0.00  0.00    +0.000 N 
ATOM      3  C   UNL     1      44.396   4.442  12.518  0.00  0.00    +0.000 A 
ATOM      4  C   UNL     1      44.176   3.254  11.862  0.00  0.00    +0.000 A 
ATOM      5  C   UNL     1      44.625   3.412  10.523  0.00  0.00    +0.000 A 
ATOM      6  C   UNL     1      44.637   2.575   9.390  0.00  0.00    +0.000 A 
ATOM      7  F   UNL     1      44.111   1.343   9.453  0.00  0.00    +0.000 F 
ATOM      8  C   UNL     1      45.179   3.022   8.186  0.00  0.00    +0.000 A 
ATOM      9  C   UNL     1      45.745   4.289   8.106  0.00  0.00    +0.000 A 
ATOM     10  C   UNL     1      45.749   5.149   9.214  0.00  0.00    +0.000 A 
ATOM     11  C   UNL     1      45.153   4.705  10.409  0.00  0.00    +0.000 A 
ENDBRANCH   1   2
BRANCH   1  15
ATOM     12  C   UNL     1      48.937   8.671  13.037  0.00  0.00    +0.000 C 
ATOM     13  C   UNL     1      47.735   8.797  13.985  0.00  0.00    +0.000 C 
ATOM     14  C   UNL     1      46.414   8.453  13.301  0.00  0.00    +0.000 C 
ATOM     15  C   UNL     1      46.435   7.058  12.658  0.00  0.00    +0.000 C 
ATOM     16  C   UNL     1      47.638   6.930  11.709  0.00  0.00    +0.000 C 
ATOM     17  C   UNL     1      48.963   7.275  12.396  0.00  0.00    +0.000 C 
BRANCH  12  18
ATOM     18  C   UNL     1      50.230   8.995  13.811  0.00  0.00    +0.000 C 
BRANCH  18  19
ATOM     19  N   UNL     1      51.000   7.802  14.141  0.00  0.00    +0.000 NA
ATOM     20  H   UNL     1      51.993   7.999  14.021  0.00  0.00    +0.000 HD
ATOM     21  H   UNL     1      50.776   7.053  13.487  0.00  0.00    +0.000 HD
ENDBRANCH  18  19
ENDBRANCH  12  18
ENDBRANCH   1  15
TORSDOF 4
ENDMDL
MODEL 7
REMARK VINA RESULT:    -6.113      1.621      2.168
REMARK INTER + INTRA:          -7.679
REMARK INTER:                  -7.396
REMARK INTRA:                  -0.283
REMARK UNBOUND:                -0.316
REMARK  Name = 
REMARK  4 active torsions:
REMARK  status: ('A' for Active; 'I' for Inactive)
REMARK    1  A    between atoms: N_1  and  C_2
REMARK    2  A    between atoms: C_2  and  C_3
REMARK    3  A    between atoms: C_6  and  C_7
REMARK    4  A    between atoms: C_7  and  N_8
REMARK                            x       y       z     vdW  Elec       q    Type
REMARK                         _______ _______ _______ _____ _____    ______ ____
ROOT
ATOM      1  C   UNL     1      43.843   4.809  11.743  0.00  0.00    +0.000 C 
ENDROOT
BRANCH   1   2
ATOM      2  N   UNL     1      45.047   5.117  12.506  0.00  0.00    +0.000 N 
ATOM      3  C   UNL     1      45.808   4.169  13.144  0.00  0.00    +0.000 A 
ATOM      4  C   UNL     1      46.957   4.776  13.594  0.00  0.00    +0.000 A 
ATOM      5  C   UNL     1      46.876   6.154  13.258  0.00  0.00    +0.000 A 
ATOM      6  C   UNL     1      47.739   7.254  13.427  0.00  0.00    +0.000 A 
ATOM      7  F   UNL     1      48.945   7.088  13.990  0.00  0.00    +0.000 F 
ATOM      8  C   UNL     1      47.360   8.524  12.997  0.00  0.00    +0.000 A 
ATOM      9  C   UNL     1      46.107   8.720  12.428  0.00  0.00    +0.000 A 
ATOM     10  C   UNL     1      45.223   7.647  12.243  0.00  0.00    +0.000 A 
ATOM     11  C   UNL     1      45.638   6.361  12.636  0.00  0.00    +0.000 A 
ENDBRANCH   1   2
BRANCH   1  15
ATOM     12  C   UNL     1      45.941   2.615   8.530  0.00  0.00    +0.000 C 
ATOM     13  C   UNL     1      44.779   1.927   9.260  0.00  0.00    +0.000 C 
ATOM     14  C   UNL     1      44.427   2.614  10.577  0.00  0.00    +0.000 C 
ATOM     15  C   UNL     1      44.124   4.109  10.393  0.00  0.00    +0.000 C 
ATOM     16  C   UNL     1      45.287   4.799   9.662  0.00  0.00    +0.000 C 
ATOM     17  C   UNL     1      45.639   4.110   8.341  0.00  0.00    +0.000 C 
BRANCH  12  18
ATOM     18  C   UNL     1      46.206   1.888   7.198  0.00  0.00    +0.000 C 
BRANCH  18  19
ATOM     19  N   UNL     1      47.341   0.974   7.272  0.00  0.00    +0.000 NA
ATOM     20  H   UNL     1      47.178   0.295   8.015  0.00  0.00    +0.000 HD
ATOM     21  H   UNL     1      48.182   1.488   7.535  0.00  0.00    +0.000 HD
ENDBRANCH  18  19
ENDBRANCH  12  18
ENDBRANCH   1  15
TORSDOF 4
ENDMDL
MODEL 8
REMARK VINA RESULT:    -5.663      4.034      7.616
REMARK INTER + INTRA:          -7.138
REMARK INTER:                  -6.650
REMARK INTRA:                  -0.488
REMARK UNBOUND:                -0.316
REMARK  Name = 
REMARK  4 active torsions:
REMARK  status: ('A' for Active; 'I' for Inactive)
REMARK    1  A    between atoms: N_1  and  C_2
REMARK    2  A    between atoms: C_2  and  C_3
REMARK    3  A    between atoms: C_6  and  C_7
REMARK    4  A    between atoms: C_7  and  N_8
REMARK                            x       y       z     vdW  Elec       q    Type
REMARK                         _______ _______ _______ _____ _____    ______ ____
ROOT
ATOM      1  C   UNL     1      47.679   5.528  13.860  0.00  0.00    +0.000 C 
ENDROOT
BRANCH   1   2
ATOM      2  N   UNL     1      46.429   5.990  13.267  0.00  0.00    +0.000 N 
ATOM      3  C   UNL     1      46.152   7.308  13.003  0.00  0.00    +0.000 A 
ATOM      4  C   UNL     1      44.985   7.363  12.279  0.00  0.00    +0.000 A 
ATOM      5  C   UNL     1      44.507   6.033  12.131  0.00  0.00    +0.000 A 
ATOM      6  C   UNL     1      43.398   5.459  11.478  0.00  0.00    +0.000 A 
ATOM      7  F   UNL     1      42.547   6.229  10.785  0.00  0.00    +0.000 F 
ATOM      8  C   UNL     1      43.181   4.084  11.531  0.00  0.00    +0.000 A 
ATOM      9  C   UNL     1      44.042   3.270  12.259  0.00  0.00    +0.000 A 
ATOM     10  C   UNL     1      45.156   3.808  12.919  0.00  0.00    +0.000 A 
ATOM     11  C   UNL     1      45.393   5.192  12.817  0.00  0.00    +0.000 A 
ENDBRANCH   1   2
BRANCH   1  15
ATOM     12  C   UNL     1      48.730   4.432  18.012  0.00  0.00    +0.000 C 
ATOM     13  C   UNL     1      48.919   5.888  17.559  0.00  0.00    +0.000 C 
ATOM     14  C   UNL     1      48.910   6.033  16.040  0.00  0.00    +0.000 C 
ATOM     15  C   UNL     1      47.642   5.443  15.404  0.00  0.00    +0.000 C 
ATOM     16  C   UNL     1      47.452   3.985  15.856  0.00  0.00    +0.000 C 
ATOM     17  C   UNL     1      47.460   3.841  17.381  0.00  0.00    +0.000 C 
BRANCH  12  18
ATOM     18  C   UNL     1      48.711   4.378  19.552  0.00  0.00    +0.000 C 
BRANCH  18  19
ATOM     19  N   UNL     1      48.317   3.070  20.062  0.00  0.00    +0.000 NA
ATOM     20  H   UNL     1      48.518   3.024  21.061  0.00  0.00    +0.000 HD
ATOM     21  H   UNL     1      48.883   2.343  19.624  0.00  0.00    +0.000 HD
ENDBRANCH  18  19
ENDBRANCH  12  18
ENDBRANCH   1  15
TORSDOF 4
ENDMDL
MODEL 9
REMARK VINA RESULT:    -5.620      3.000      4.214
REMARK INTER + INTRA:          -7.085
REMARK INTER:                  -6.612
REMARK INTRA:                  -0.473
REMARK UNBOUND:                -0.316
REMARK  Name = 
REMARK  4 active torsions:
REMARK  status: ('A' for Active; 'I' for Inactive)
REMARK    1  A    between atoms: N_1  and  C_2
REMARK    2  A    between atoms: C_2  and  C_3
REMARK    3  A    between atoms: C_6  and  C_7
REMARK    4  A    between atoms: C_7  and  N_8
REMARK                            x       y       z     vdW  Elec       q    Type
REMARK                         _______ _______ _______ _____ _____    ______ ____
ROOT
ATOM      1  C   UNL     1      44.531   6.065  12.194  0.00  0.00    +0.000 C 
ENDROOT
BRANCH   1   2
ATOM      2  N   UNL     1      45.419   7.172  12.530  0.00  0.00    +0.000 N 
ATOM      3  C   UNL     1      46.555   7.034  13.290  0.00  0.00    +0.000 A 
ATOM      4  C   UNL     1      47.245   8.223  13.246  0.00  0.00    +0.000 A 
ATOM      5  C   UNL     1      46.483   9.135  12.467  0.00  0.00    +0.000 A 
ATOM      6  C   UNL     1      46.678  10.467  12.052  0.00  0.00    +0.000 A 
ATOM      7  F   UNL     1      47.805  11.118  12.373  0.00  0.00    +0.000 F 
ATOM      8  C   UNL     1      45.712  11.118  11.288  0.00  0.00    +0.000 A 
ATOM      9  C   UNL     1      44.528  10.466  10.959  0.00  0.00    +0.000 A 
ATOM     10  C   UNL     1      44.302   9.140  11.356  0.00  0.00    +0.000 A 
ATOM     11  C   UNL     1      45.307   8.477  12.084  0.00  0.00    +0.000 A 
ENDBRANCH   1   2
BRANCH   1  15
ATOM     12  C   UNL     1      45.043   4.021   8.308  0.00  0.00    +0.000 C 
ATOM     13  C   UNL     1      46.124   5.007   8.775  0.00  0.00    +0.000 C 
ATOM     14  C   UNL     1      45.637   5.920   9.897  0.00  0.00    +0.000 C 
ATOM     15  C   UNL     1      45.090   5.130  11.096  0.00  0.00    +0.000 C 
ATOM     16  C   UNL     1      44.007   4.143  10.631  0.00  0.00    +0.000 C 
ATOM     17  C   UNL     1      44.497   3.227   9.505  0.00  0.00    +0.000 C 
BRANCH  12  18
ATOM     18  C   UNL     1      45.625   3.114   7.207  0.00  0.00    +0.000 C 
BRANCH  18  19
ATOM     19  N   UNL     1      46.700   3.757   6.460  0.00  0.00    +0.000 NA
ATOM     20  H   UNL     1      47.520   3.843   7.059  0.00  0.00    +0.000 HD
ATOM     21  H   UNL     1      46.428   4.707   6.210  0.00  0.00    +0.000 HD
ENDBRANCH  18  19
ENDBRANCH  12  18
ENDBRANCH   1  15
TORSDOF 4
ENDMDL
