MODEL 1
REMARK VINA RESULT:    -7.433      0.000      0.000
REMARK INTER + INTRA:          -9.524
REMARK INTER:                  -9.389
REMARK INTRA:                  -0.135
REMARK UNBOUND:                -0.135
REMARK  Name = 
REMARK  5 active torsions:
REMARK  status: ('A' for Active; 'I' for Inactive)
REMARK    1  A    between atoms: N_1  and  C_2
REMARK    2  A    between atoms: C_2  and  C_3
REMARK    3  A    between atoms: C_5  and  C_6
REMARK    4  A    between atoms: C_6  and  N_7
REMARK    5  A    between atoms: C_12  and  C_13
REMARK                            x       y       z     vdW  Elec       q    Type
REMARK                         _______ _______ _______ _____ _____    ______ ____
ROOT
ATOM      1  N   UNL     1      44.171   4.430  10.864  0.00  0.00    +0.000 N 
ATOM      2  C   UNL     1      43.569   3.308  11.378  0.00  0.00    +0.000 A 
ATOM      3  C   UNL     1      43.968   2.226  10.630  0.00  0.00    +0.000 A 
ATOM      4  C   UNL     1      44.823   2.707   9.603  0.00  0.00    +0.000 A 
ATOM      5  C   UNL     1      45.472   2.083   8.515  0.00  0.00    +0.000 A 
ATOM      6  C   UNL     1      46.254   2.852   7.642  0.00  0.00    +0.000 A 
ATOM      7  C   UNL     1      46.416   4.222   7.882  0.00  0.00    +0.000 A 
ATOM      8  C   UNL     1      45.786   4.860   8.957  0.00  0.00    +0.000 A 
ATOM      9  C   UNL     1      44.971   4.084   9.793  0.00  0.00    +0.000 A 
ENDROOT
BRANCH   6  10
ATOM     10  C   UNL     1      46.914   2.280   6.429  0.00  0.00    +0.000 C 
ATOM     11  N   UNL     1      47.161   3.101   5.365  0.00  0.00    +0.000 N 
ATOM     12  O   UNL     1      47.250   1.101   6.377  0.00  0.00    +0.000 OA
ATOM     13  H   UNL     1      46.951   4.084   5.324  0.00  0.00    +0.000 HD
ATOM     14  H   UNL     1      47.639   2.686   4.574  0.00  0.00    +0.000 HD
ENDBRANCH   6  10
BRANCH   1  15
ATOM     15  C   UNL     1      43.853   5.785  11.288  0.00  0.00    +0.000 C 
BRANCH  15  18
ATOM     16  C   UNL     1      46.661   6.548  12.127  0.00  0.00    +0.000 C 
ATOM     17  C   UNL     1      45.444   7.295  12.644  0.00  0.00    +0.000 C 
ATOM     18  C   UNL     1      44.403   6.187  12.671  0.00  0.00    +0.000 C 
ATOM     19  C   UNL     1      45.253   5.047  13.231  0.00  0.00    +0.000 C 
ATOM     20  O   UNL     1      46.601   5.248  12.753  0.00  0.00    +0.000 OA
BRANCH  16  21
ATOM     21  C   UNL     1      48.016   7.235  12.332  0.00  0.00    +0.000 C 
BRANCH  21  22
ATOM     22  N   UNL     1      49.022   6.386  12.970  0.00  0.00    +0.000 NA
ATOM     23  H   UNL     1      49.289   5.648  12.320  0.00  0.00    +0.000 HD
ATOM     24  H   UNL     1      48.576   5.918  13.763  0.00  0.00    +0.000 HD
ENDBRANCH  21  22
ENDBRANCH  16  21
ENDBRANCH  15  18
ENDBRANCH   1  15
TORSDOF 5
ENDMDL
MODEL 2
REMARK VINA RESULT:    -7.125      1.857      6.215
REMARK INTER + INTRA:          -9.134
REMARK INTER:                  -8.613
REMARK INTRA:                  -0.521
REMARK UNBOUND:                -0.135
REMARK  Name = 
REMARK  5 active torsions:
REMARK  status: ('A' for Active; 'I' for Inactive)
REMARK    1  A    between atoms: N_1  and  C_2
REMARK    2  A    between atoms: C_2  and  C_3
REMARK    3  A    between atoms: C_5  and  C_6
REMARK    4  A    between atoms: C_6  and  N_7
REMARK    5  A    between atoms: C_12  and  C_13
REMARK                            x       y       z     vdW  Elec       q    Type
REMARK                         _______ _______ _______ _____ _____    ______ ____
ROOT
ATOM      1  N   UNL     1      44.356   4.155  10.939  0.00  0.00    +0.000 N 
ATOM      2  C   UNL     1      43.035   4.266  11.301  0.00  0.00    +0.000 A 
ATOM      3  C   UNL     1      42.853   5.495  11.888  0.00  0.00    +0.000 A 
ATOM      4  C   UNL     1      44.114   6.149  11.913  0.00  0.00    +0.000 A 
ATOM      5  C   UNL     1      44.552   7.383  12.441  0.00  0.00    +0.000 A 
ATOM      6  C   UNL     1      45.899   7.750  12.320  0.00  0.00    +0.000 A 
ATOM      7  C   UNL     1      46.787   6.906  11.641  0.00  0.00    +0.000 A 
ATOM      8  C   UNL     1      46.374   5.681  11.104  0.00  0.00    +0.000 A 
ATOM      9  C   UNL     1      45.033   5.310  11.275  0.00  0.00    +0.000 A 
ENDROOT
BRANCH   6  10
ATOM     10  C   UNL     1      46.454   9.004  12.914  0.00  0.00    +0.000 C 
ATOM     11  N   UNL     1      46.925   8.973  14.196  0.00  0.00    +0.000 N 
ATOM     12  O   UNL     1      46.509  10.049  12.272  0.00  0.00    +0.000 OA
ATOM     13  H   UNL     1      46.951   8.161  14.791  0.00  0.00    +0.000 HD
ATOM     14  H   UNL     1      47.324   9.833  14.553  0.00  0.00    +0.000 HD
ENDBRANCH   6  10
BRANCH   1  15
ATOM     15  C   UNL     1      44.959   2.926  10.446  0.00  0.00    +0.000 C 
BRANCH  15  18
ATOM     16  C   UNL     1      46.651   2.236   8.031  0.00  0.00    +0.000 C 
ATOM     17  C   UNL     1      45.407   1.440   8.387  0.00  0.00    +0.000 C 
ATOM     18  C   UNL     1      44.538   2.513   9.022  0.00  0.00    +0.000 C 
ATOM     19  C   UNL     1      44.806   3.668   8.057  0.00  0.00    +0.000 C 
ATOM     20  O   UNL     1      46.162   3.520   7.585  0.00  0.00    +0.000 OA
BRANCH  16  21
ATOM     21  C   UNL     1      47.604   1.589   7.020  0.00  0.00    +0.000 C 
BRANCH  21  22
ATOM     22  N   UNL     1      48.443   2.545   6.298  0.00  0.00    +0.000 NA
ATOM     23  H   UNL     1      48.440   3.430   6.802  0.00  0.00    +0.000 HD
ATOM     24  H   UNL     1      47.997   2.729   5.396  0.00  0.00    +0.000 HD
ENDBRANCH  21  22
ENDBRANCH  16  21
ENDBRANCH  15  18
ENDBRANCH   1  15
TORSDOF 5
ENDMDL
MODEL 3
REMARK VINA RESULT:    -6.478      3.062      4.813
REMARK INTER + INTRA:          -8.318
REMARK INTER:                  -7.611
REMARK INTRA:                  -0.707
REMARK UNBOUND:                -0.135
REMARK  Name = 
REMARK  5 active torsions:
REMARK  status: ('A' for Active; 'I' for Inactive)
REMARK    1  A    between atoms: N_1  and  C_2
REMARK    2  A    between atoms: C_2  and  C_3
REMARK    3  A    between atoms: C_5  and  C_6
REMARK    4  A    between atoms: C_6  and  N_7
REMARK    5  A    between atoms: C_12  and  C_13
REMARK                            x       y       z     vdW  Elec       q    Type
REMARK                         _______ _______ _______ _____ _____    ______ ____
ROOT
ATOM      1  N   UNL     1      47.314   6.894  12.678  0.00  0.00    +0.000 N 
ATOM      2  C   UNL     1      47.691   6.427  13.913  0.00  0.00    +0.000 A 
ATOM      3  C   UNL     1      47.143   5.178  14.085  0.00  0.00    +0.000 A 
ATOM      4  C   UNL     1      46.378   4.882  12.925  0.00  0.00    +0.000 A 
ATOM      5  C   UNL     1      45.553   3.795  12.563  0.00  0.00    +0.000 A 
ATOM      6  C   UNL     1      44.902   3.803  11.322  0.00  0.00    +0.000 A 
ATOM      7  C   UNL     1      45.108   4.870  10.438  0.00  0.00    +0.000 A 
ATOM      8  C   UNL     1      45.926   5.955  10.774  0.00  0.00    +0.000 A 
ATOM      9  C   UNL     1      46.533   5.951  12.038  0.00  0.00    +0.000 A 
ENDROOT
BRANCH   6  10
ATOM     10  C   UNL     1      43.957   2.725  10.896  0.00  0.00    +0.000 C 
ATOM     11  N   UNL     1      44.276   1.962   9.808  0.00  0.00    +0.000 N 
ATOM     12  O   UNL     1      42.916   2.505  11.508  0.00  0.00    +0.000 OA
ATOM     13  H   UNL     1      45.117   2.046   9.261  0.00  0.00    +0.000 HD
ATOM     14  H   UNL     1      43.629   1.221   9.569  0.00  0.00    +0.000 HD
ENDBRANCH   6  10
BRANCH   1  15
ATOM     15  C   UNL     1      47.561   8.251  12.217  0.00  0.00    +0.000 C 
BRANCH  15  18
ATOM     16  C   UNL     1      44.942   9.463  11.296  0.00  0.00    +0.000 C 
ATOM     17  C   UNL     1      45.186   9.102  12.752  0.00  0.00    +0.000 C 
ATOM     18  C   UNL     1      46.683   9.337  12.870  0.00  0.00    +0.000 C 
ATOM     19  C   UNL     1      46.804  10.636  12.075  0.00  0.00    +0.000 C 
ATOM     20  O   UNL     1      45.799  10.596  11.039  0.00  0.00    +0.000 OA
BRANCH  16  21
ATOM     21  C   UNL     1      43.486   9.727  10.898  0.00  0.00    +0.000 C 
BRANCH  21  22
ATOM     22  N   UNL     1      42.649   8.528  10.874  0.00  0.00    +0.000 NA
ATOM     23  H   UNL     1      41.693   8.789  11.110  0.00  0.00    +0.000 HD
ATOM     24  H   UNL     1      42.969   7.911  11.625  0.00  0.00    +0.000 HD
ENDBRANCH  21  22
ENDBRANCH  16  21
ENDBRANCH  15  18
ENDBRANCH   1  15
TORSDOF 5
ENDMDL
MODEL 4
REMARK VINA RESULT:    -6.373      3.939      5.453
REMARK INTER + INTRA:          -8.185
REMARK INTER:                  -7.849
REMARK INTRA:                  -0.336
REMARK UNBOUND:                -0.135
REMARK  Name = 
REMARK  5 active torsions:
REMARK  status: ('A' for Active; 'I' for Inactive)
REMARK    1  A    between atoms: N_1  and  C_2
REMARK    2  A    between atoms: C_2  and  C_3
REMARK    3  A    between atoms: C_5  and  C_6
REMARK    4  A    between atoms: C_6  and  N_7
REMARK    5  A    between atoms: C_12  and  C_13
REMARK                            x       y       z     vdW  Elec       q    Type
REMARK                         _______ _______ _______ _____ _____    ______ ____
ROOT
ATOM      1  N   UNL     1      47.353   5.788  14.170  0.00  0.00    +0.000 N 
ATOM      2  C   UNL     1      47.461   7.102  13.784  0.00  0.00    +0.000 A 
ATOM      3  C   UNL     1      46.735   7.270  12.630  0.00  0.00    +0.000 A 
ATOM      4  C   UNL     1      46.186   6.007  12.279  0.00  0.00    +0.000 A 
ATOM      5  C   UNL     1      45.420   5.557  11.182  0.00  0.00    +0.000 A 
ATOM      6  C   UNL     1      45.037   4.210  11.111  0.00  0.00    +0.000 A 
ATOM      7  C   UNL     1      45.383   3.336  12.149  0.00  0.00    +0.000 A 
ATOM      8  C   UNL     1      46.137   3.762  13.249  0.00  0.00    +0.000 A 
ATOM      9  C   UNL     1      46.551   5.101  13.281  0.00  0.00    +0.000 A 
ENDROOT
BRANCH   6  10
ATOM     10  C   UNL     1      44.288   3.641   9.949  0.00  0.00    +0.000 C 
ATOM     11  N   UNL     1      44.132   4.407   8.828  0.00  0.00    +0.000 N 
ATOM     12  O   UNL     1      43.829   2.504   9.976  0.00  0.00    +0.000 OA
ATOM     13  H   UNL     1      44.496   5.336   8.699  0.00  0.00    +0.000 HD
ATOM     14  H   UNL     1      43.648   3.976   8.050  0.00  0.00    +0.000 HD
ENDBRANCH   6  10
BRANCH   1  15
ATOM     15  C   UNL     1      48.127   5.197  15.251  0.00  0.00    +0.000 C 
BRANCH  15  18
ATOM     16  C   UNL     1      48.769   4.506  18.129  0.00  0.00    +0.000 C 
ATOM     17  C   UNL     1      47.381   4.957  17.708  0.00  0.00    +0.000 C 
ATOM     18  C   UNL     1      47.306   4.410  16.292  0.00  0.00    +0.000 C 
ATOM     19  C   UNL     1      47.944   3.039  16.511  0.00  0.00    +0.000 C 
ATOM     20  O   UNL     1      48.927   3.189  17.557  0.00  0.00    +0.000 OA
BRANCH  16  21
ATOM     21  C   UNL     1      49.064   4.530  19.633  0.00  0.00    +0.000 C 
BRANCH  21  22
ATOM     22  N   UNL     1      48.347   3.508  20.395  0.00  0.00    +0.000 NA
ATOM     23  H   UNL     1      47.849   3.957  21.161  0.00  0.00    +0.000 HD
ATOM     24  H   UNL     1      49.044   2.897  20.828  0.00  0.00    +0.000 HD
ENDBRANCH  21  22
ENDBRANCH  16  21
ENDBRANCH  15  18
ENDBRANCH   1  15
TORSDOF 5
ENDMDL
MODEL 5
REMARK VINA RESULT:    -6.286      1.824      6.396
REMARK INTER + INTRA:          -8.075
REMARK INTER:                  -7.754
REMARK INTRA:                  -0.321
REMARK UNBOUND:                -0.135
REMARK  Name = 
REMARK  5 active torsions:
REMARK  status: ('A' for Active; 'I' for Inactive)
REMARK    1  A    between atoms: N_1  and  C_2
REMARK    2  A    between atoms: C_2  and  C_3
REMARK    3  A    between atoms: C_5  and  C_6
REMARK    4  A    between atoms: C_6  and  N_7
REMARK    5  A    between atoms: C_12  and  C_13
REMARK                            x       y       z     vdW  Elec       q    Type
REMARK                         _______ _______ _______ _____ _____    ______ ____
ROOT
ATOM      1  N   UNL     1      45.361   4.744  11.138  0.00  0.00    +0.000 N 
ATOM      2  C   UNL     1      44.718   3.855  11.965  0.00  0.00    +0.000 A 
ATOM      3  C   UNL     1      45.204   4.026  13.239  0.00  0.00    +0.000 A 
ATOM      4  C   UNL     1      46.203   5.035  13.185  0.00  0.00    +0.000 A 
ATOM      5  C   UNL     1      47.077   5.581  14.149  0.00  0.00    +0.000 A 
ATOM      6  C   UNL     1      47.986   6.580  13.774  0.00  0.00    +0.000 A 
ATOM      7  C   UNL     1      47.987   7.055  12.456  0.00  0.00    +0.000 A 
ATOM      8  C   UNL     1      47.124   6.532  11.485  0.00  0.00    +0.000 A 
ATOM      9  C   UNL     1      46.255   5.502  11.868  0.00  0.00    +0.000 A 
ENDROOT
BRANCH   6  10
ATOM     10  C   UNL     1      48.992   7.157  14.717  0.00  0.00    +0.000 C 
ATOM     11  N   UNL     1      50.271   7.350  14.277  0.00  0.00    +0.000 N 
ATOM     12  O   UNL     1      48.690   7.472  15.864  0.00  0.00    +0.000 OA
ATOM     13  H   UNL     1      50.607   7.152  13.350  0.00  0.00    +0.000 HD
ATOM     14  H   UNL     1      50.916   7.773  14.933  0.00  0.00    +0.000 HD
ENDBRANCH   6  10
BRANCH   1  15
ATOM     15  C   UNL     1      45.232   4.738   9.689  0.00  0.00    +0.000 C 
BRANCH  15  18
ATOM     16  C   UNL     1      46.349   2.509   7.969  0.00  0.00    +0.000 C 
ATOM     17  C   UNL     1      45.380   2.230   9.105  0.00  0.00    +0.000 C 
ATOM     18  C   UNL     1      44.538   3.496   9.096  0.00  0.00    +0.000 C 
ATOM     19  C   UNL     1      44.366   3.681   7.589  0.00  0.00    +0.000 C 
ATOM     20  O   UNL     1      45.564   3.180   6.959  0.00  0.00    +0.000 OA
BRANCH  16  21
ATOM     21  C   UNL     1      47.108   1.299   7.413  0.00  0.00    +0.000 C 
BRANCH  21  22
ATOM     22  N   UNL     1      48.258   1.650   6.581  0.00  0.00    +0.000 NA
ATOM     23  H   UNL     1      48.487   0.857   5.984  0.00  0.00    +0.000 HD
ATOM     24  H   UNL     1      49.061   1.781   7.201  0.00  0.00    +0.000 HD
ENDBRANCH  21  22
ENDBRANCH  16  21
ENDBRANCH  15  18
ENDBRANCH   1  15
TORSDOF 5
ENDMDL
MODEL 6
REMARK VINA RESULT:    -6.077      3.906      8.072
REMARK INTER + INTRA:          -7.811
REMARK INTER:                  -7.234
REMARK INTRA:                  -0.577
REMARK UNBOUND:                -0.135
REMARK  Name = 
REMARK  5 active torsions:
REMARK  status: ('A' for Active; 'I' for Inactive)
REMARK    1  A    between atoms: N_1  and  C_2
REMARK    2  A    between atoms: C_2  and  C_3
REMARK    3  A    between atoms: C_5  and  C_6
REMARK    4  A    between atoms: C_6  and  N_7
REMARK    5  A    between atoms: C_12  and  C_13
REMARK                            x       y       z     vdW  Elec       q    Type
REMARK                         _______ _______ _______ _____ _____    ______ ____
ROOT
ATOM      1  N   UNL     1      47.807   6.205  13.856  0.00  0.00    +0.000 N 
ATOM      2  C   UNL     1      48.496   7.394  13.882  0.00  0.00    +0.000 A 
ATOM      3  C   UNL     1      49.056   7.537  15.128  0.00  0.00    +0.000 A 
ATOM      4  C   UNL     1      48.673   6.411  15.904  0.00  0.00    +0.000 A 
ATOM      5  C   UNL     1      48.888   6.046  17.250  0.00  0.00    +0.000 A 
ATOM      6  C   UNL     1      48.351   4.846  17.738  0.00  0.00    +0.000 A 
ATOM      7  C   UNL     1      47.641   4.004  16.872  0.00  0.00    +0.000 A 
ATOM      8  C   UNL     1      47.421   4.342  15.532  0.00  0.00    +0.000 A 
ATOM      9  C   UNL     1      47.926   5.568  15.075  0.00  0.00    +0.000 A 
ENDROOT
BRANCH   6  10
ATOM     10  C   UNL     1      48.474   4.425  19.167  0.00  0.00    +0.000 C 
ATOM     11  N   UNL     1      48.302   3.106  19.481  0.00  0.00    +0.000 N 
ATOM     12  O   UNL     1      48.739   5.231  20.053  0.00  0.00    +0.000 OA
ATOM     13  H   UNL     1      48.112   2.368  18.824  0.00  0.00    +0.000 HD
ATOM     14  H   UNL     1      48.425   2.853  20.454  0.00  0.00    +0.000 HD
ENDBRANCH   6  10
BRANCH   1  15
ATOM     15  C   UNL     1      46.943   5.796  12.760  0.00  0.00    +0.000 C 
BRANCH  15  18
ATOM     16  C   UNL     1      44.507   4.297  11.763  0.00  0.00    +0.000 C 
ATOM     17  C   UNL     1      44.576   4.859  13.173  0.00  0.00    +0.000 C 
ATOM     18  C   UNL     1      45.443   6.089  12.961  0.00  0.00    +0.000 C 
ATOM     19  C   UNL     1      44.845   6.604  11.653  0.00  0.00    +0.000 C 
ATOM     20  O   UNL     1      44.411   5.452  10.901  0.00  0.00    +0.000 OA
BRANCH  16  21
ATOM     21  C   UNL     1      43.400   3.271  11.495  0.00  0.00    +0.000 C 
BRANCH  21  22
ATOM     22  N   UNL     1      43.452   2.100  12.369  0.00  0.00    +0.000 NA
ATOM     23  H   UNL     1      44.339   1.621  12.225  0.00  0.00    +0.000 HD
ATOM     24  H   UNL     1      42.725   1.450  12.060  0.00  0.00    +0.000 HD
ENDBRANCH  21  22
ENDBRANCH  16  21
ENDBRANCH  15  18
ENDBRANCH   1  15
TORSDOF 5
ENDMDL
MODEL 7
REMARK VINA RESULT:    -5.895      4.438      6.214
REMARK INTER + INTRA:          -7.581
REMARK INTER:                  -7.135
REMARK INTRA:                  -0.447
REMARK UNBOUND:                -0.135
REMARK  Name = 
REMARK  5 active torsions:
REMARK  status: ('A' for Active; 'I' for Inactive)
REMARK    1  A    between atoms: N_1  and  C_2
REMARK    2  A    between atoms: C_2  and  C_3
REMARK    3  A    between atoms: C_5  and  C_6
REMARK    4  A    between atoms: C_6  and  N_7
REMARK    5  A    between atoms: C_12  and  C_13
REMARK                            x       y       z     vdW  Elec       q    Type
REMARK                         _______ _______ _______ _____ _____    ______ ____
ROOT
ATOM      1  N   UNL     1      46.702   5.027  13.741  0.00  0.00    +0.000 N 
ATOM      2  C   UNL     1      46.063   3.936  13.205  0.00  0.00    +0.000 A 
ATOM      3  C   UNL     1      45.184   4.383  12.248  0.00  0.00    +0.000 A 
ATOM      4  C   UNL     1      45.265   5.801  12.218  0.00  0.00    +0.000 A 
ATOM      5  C   UNL     1      44.567   6.794  11.497  0.00  0.00    +0.000 A 
ATOM      6  C   UNL     1      44.873   8.146  11.707  0.00  0.00    +0.000 A 
ATOM      7  C   UNL     1      45.896   8.494  12.599  0.00  0.00    +0.000 A 
ATOM      8  C   UNL     1      46.605   7.526  13.319  0.00  0.00    +0.000 A 
ATOM      9  C   UNL     1      46.254   6.182  13.131  0.00  0.00    +0.000 A 
ENDROOT
BRANCH   6  10
ATOM     10  C   UNL     1      44.131   9.258  11.037  0.00  0.00    +0.000 C 
ATOM     11  N   UNL     1      42.817   9.071  10.715  0.00  0.00    +0.000 N 
ATOM     12  O   UNL     1      44.672  10.331  10.788  0.00  0.00    +0.000 OA
ATOM     13  H   UNL     1      42.280   8.242  10.904  0.00  0.00    +0.000 HD
ATOM     14  H   UNL     1      42.339   9.858  10.293  0.00  0.00    +0.000 HD
ENDBRANCH   6  10
BRANCH   1  15
ATOM     15  C   UNL     1      47.579   4.961  14.901  0.00  0.00    +0.000 C 
BRANCH  15  18
ATOM     16  C   UNL     1      48.703   4.496  17.674  0.00  0.00    +0.000 C 
ATOM     17  C   UNL     1      47.207   4.514  17.413  0.00  0.00    +0.000 C 
ATOM     18  C   UNL     1      47.145   3.967  15.996  0.00  0.00    +0.000 C 
ATOM     19  C   UNL     1      48.180   2.848  16.106  0.00  0.00    +0.000 C 
ATOM     20  O   UNL     1      49.182   3.286  17.048  0.00  0.00    +0.000 OA
BRANCH  16  21
ATOM     21  C   UNL     1      49.138   4.609  19.140  0.00  0.00    +0.000 C 
BRANCH  21  22
ATOM     22  N   UNL     1      48.648   3.524  19.989  0.00  0.00    +0.000 NA
ATOM     23  H   UNL     1      47.833   3.853  20.506  0.00  0.00    +0.000 HD
ATOM     24  H   UNL     1      49.367   3.328  20.689  0.00  0.00    +0.000 HD
ENDBRANCH  21  22
ENDBRANCH  16  21
ENDBRANCH  15  18
ENDBRANCH   1  15
TORSDOF 5
ENDMDL
MODEL 8
REMARK VINA RESULT:    -5.827      3.254      4.852
REMARK INTER + INTRA:          -7.495
REMARK INTER:                  -6.998
REMARK INTRA:                  -0.497
REMARK UNBOUND:                -0.135
REMARK  Name = 
REMARK  5 active torsions:
REMARK  status: ('A' for Active; 'I' for Inactive)
REMARK    1  A    between atoms: N_1  and  C_2
REMARK    2  A    between atoms: C_2  and  C_3
REMARK    3  A    between atoms: C_5  and  C_6
REMARK    4  A    between atoms: C_6  and  N_7
REMARK    5  A    between atoms: C_12  and  C_13
REMARK                            x       y       z     vdW  Elec       q    Type
REMARK                         _______ _______ _______ _____ _____    ______ ____
ROOT
ATOM      1  N   UNL     1      46.183   7.748  12.864  0.00  0.00    +0.000 N 
ATOM      2  C   UNL     1      45.450   8.661  12.147  0.00  0.00    +0.000 A 
ATOM      3  C   UNL     1      44.509   7.976  11.416  0.00  0.00    +0.000 A 
ATOM      4  C   UNL     1      44.692   6.590  11.672  0.00  0.00    +0.000 A 
ATOM      5  C   UNL     1      44.077   5.425  11.166  0.00  0.00    +0.000 A 
ATOM      6  C   UNL     1      44.503   4.167  11.614  0.00  0.00    +0.000 A 
ATOM      7  C   UNL     1      45.506   4.082  12.589  0.00  0.00    +0.000 A 
ATOM      8  C   UNL     1      46.125   5.224  13.108  0.00  0.00    +0.000 A 
ATOM      9  C   UNL     1      45.718   6.472  12.615  0.00  0.00    +0.000 A 
ENDROOT
BRANCH   6  10
ATOM     10  C   UNL     1      43.953   2.885  11.075  0.00  0.00    +0.000 C 
ATOM     11  N   UNL     1      44.581   2.292  10.017  0.00  0.00    +0.000 N 
ATOM     12  O   UNL     1      42.965   2.353  11.571  0.00  0.00    +0.000 OA
ATOM     13  H   UNL     1      45.412   2.635   9.563  0.00  0.00    +0.000 HD
ATOM     14  H   UNL     1      44.200   1.409   9.701  0.00  0.00    +0.000 HD
ENDBRANCH   6  10
BRANCH   1  15
ATOM     15  C   UNL     1      47.380   8.087  13.620  0.00  0.00    +0.000 C 
BRANCH  15  18
ATOM     16  C   UNL     1      49.965   7.832  12.063  0.00  0.00    +0.000 C 
ATOM     17  C   UNL     1      48.873   8.800  11.641  0.00  0.00    +0.000 C 
ATOM     18  C   UNL     1      48.271   9.173  12.987  0.00  0.00    +0.000 C 
ATOM     19  C   UNL     1      49.550   9.325  13.809  0.00  0.00    +0.000 C 
ATOM     20  O   UNL     1      50.508   8.382  13.282  0.00  0.00    +0.000 OA
BRANCH  16  21
ATOM     21  C   UNL     1      51.049   7.536  11.020  0.00  0.00    +0.000 C 
BRANCH  21  22
ATOM     22  N   UNL     1      52.413   7.698  11.519  0.00  0.00    +0.000 NA
ATOM     23  H   UNL     1      53.066   7.430  10.785  0.00  0.00    +0.000 HD
ATOM     24  H   UNL     1      52.548   7.027  12.278  0.00  0.00    +0.000 HD
ENDBRANCH  21  22
ENDBRANCH  16  21
ENDBRANCH  15  18
ENDBRANCH   1  15
TORSDOF 5
ENDMDL
MODEL 9
REMARK VINA RESULT:    -5.771      3.223      5.073
REMARK INTER + INTRA:          -7.424
REMARK INTER:                  -6.851
REMARK INTRA:                  -0.573
REMARK UNBOUND:                -0.135
REMARK  Name = 
REMARK  5 active torsions:
REMARK  status: ('A' for Active; 'I' for Inactive)
REMARK    1  A    between atoms: N_1  and  C_2
REMARK    2  A    between atoms: C_2  and  C_3
REMARK    3  A    between atoms: C_5  and  C_6
REMARK    4  A    between atoms: C_6  and  N_7
REMARK    5  A    between atoms: C_12  and  C_13
REMARK                            x       y       z     vdW  Elec       q    Type
REMARK                         _______ _______ _______ _____ _____    ______ ____
ROOT
ATOM      1  N   UNL     1      47.493   6.931  13.203  0.00  0.00    +0.000 N 
ATOM      2  C   UNL     1      47.870   6.339  14.384  0.00  0.00    +0.000 A 
ATOM      3  C   UNL     1      47.298   5.091  14.438  0.00  0.00    +0.000 A 
ATOM      4  C   UNL     1      46.518   4.924  13.263  0.00  0.00    +0.000 A 
ATOM      5  C   UNL     1      45.667   3.894  12.805  0.00  0.00    +0.000 A 
ATOM      6  C   UNL     1      45.006   4.037  11.577  0.00  0.00    +0.000 A 
ATOM      7  C   UNL     1      45.228   5.181  10.800  0.00  0.00    +0.000 A 
ATOM      8  C   UNL     1      46.071   6.211  11.231  0.00  0.00    +0.000 A 
ATOM      9  C   UNL     1      46.688   6.072  12.483  0.00  0.00    +0.000 A 
ENDROOT
BRANCH   6  10
ATOM     10  C   UNL     1      44.035   3.025  11.058  0.00  0.00    +0.000 C 
ATOM     11  N   UNL     1      43.385   2.219  11.948  0.00  0.00    +0.000 N 
ATOM     12  O   UNL     1      43.803   2.917   9.858  0.00  0.00    +0.000 OA
ATOM     13  H   UNL     1      43.485   2.253  12.949  0.00  0.00    +0.000 HD
ATOM     14  H   UNL     1      42.711   1.570  11.562  0.00  0.00    +0.000 HD
ENDBRANCH   6  10
BRANCH   1  15
ATOM     15  C   UNL     1      47.765   8.322  12.874  0.00  0.00    +0.000 C 
BRANCH  15  18
ATOM     16  C   UNL     1      50.769   8.708  12.838  0.00  0.00    +0.000 C 
ATOM     17  C   UNL     1      50.065   7.833  11.814  0.00  0.00    +0.000 C 
ATOM     18  C   UNL     1      48.725   8.541  11.689  0.00  0.00    +0.000 C 
ATOM     19  C   UNL     1      49.200   9.994  11.681  0.00  0.00    +0.000 C 
ATOM     20  O   UNL     1      50.380  10.060  12.511  0.00  0.00    +0.000 OA
BRANCH  16  21
ATOM     21  C   UNL     1      52.290   8.544  12.938  0.00  0.00    +0.000 C 
BRANCH  21  22
ATOM     22  N   UNL     1      52.874   7.753  11.856  0.00  0.00    +0.000 NA
ATOM     23  H   UNL     1      52.338   6.893  11.751  0.00  0.00    +0.000 HD
ATOM     24  H   UNL     1      53.812   7.470  12.150  0.00  0.00    +0.000 HD
ENDBRANCH  21  22
ENDBRANCH  16  21
ENDBRANCH  15  18
ENDBRANCH   1  15
TORSDOF 5
ENDMDL
