MODEL 1
REMARK VINA RESULT:    -7.297      0.000      0.000
REMARK INTER + INTRA:         -10.125
REMARK INTER:                  -9.430
REMARK INTRA:                  -0.695
REMARK UNBOUND:                -0.695
REMARK  Name = 
REMARK  7 active torsions:
REMARK  status: ('A' for Active; 'I' for Inactive)
REMARK    1  A    between atoms: C_1  and  C_2
REMARK    2  A    between atoms: C_2  and  C_3
REMARK    3  A    between atoms: C_2  and  N_4
REMARK    4  A    between atoms: C_2  and  C_18
REMARK    5  A    between atoms: N_4  and  C_5
REMARK    6  A    between atoms: C_8  and  C_9
REMARK    7  A    between atoms: C_9  and  N_10
REMARK                            x       y       z     vdW  Elec       q    Type
REMARK                         _______ _______ _______ _____ _____    ______ ____
ROOT
ATOM      1  N   UNL     1      46.496   6.727  13.644  0.00  0.00    +0.000 N 
ATOM      2  H   UNL     1      45.735   7.135  14.178  0.00  0.00    +0.000 HD
ENDROOT
BRANCH   1   3
ATOM      3  C   UNL     1      46.096   5.786  12.711  0.00  0.00    +0.000 A 
ATOM      4  C   UNL     1      45.793   6.211  11.417  0.00  0.00    +0.000 A 
ATOM      5  C   UNL     1      45.187   5.345  10.507  0.00  0.00    +0.000 A 
ATOM      6  C   UNL     1      44.954   4.027  10.886  0.00  0.00    +0.000 A 
ATOM      7  N   UNL     1      45.290   3.559  12.114  0.00  0.00    +0.000 NA
ATOM      8  C   UNL     1      45.825   4.447  12.984  0.00  0.00    +0.000 A 
BRANCH   6   9
ATOM      9  C   UNL     1      44.244   3.067   9.954  0.00  0.00    +0.000 C 
BRANCH   9  10
ATOM     10  N   UNL     1      44.661   3.266   8.585  0.00  0.00    +0.000 N 
ATOM     11  C   UNL     1      45.655   2.521   8.024  0.00  0.00    +0.000 C 
ATOM     12  N   UNL     1      46.360   2.944   6.971  0.00  0.00    +0.000 NA
ATOM     13  C   UNL     1      47.184   1.930   6.670  0.00  0.00    +0.000 C 
ATOM     14  N   UNL     1      47.093   0.939   7.572  0.00  0.00    +0.000 NA
ATOM     15  N   UNL     1      46.107   1.321   8.439  0.00  0.00    +0.000 NA
ATOM     16  H   UNL     1      44.606   4.223   8.269  0.00  0.00    +0.000 HD
ENDBRANCH   9  10
ENDBRANCH   6   9
ENDBRANCH   1   3
BRANCH   1  18
ATOM     17  C   UNL     1      48.731   6.641  12.735  0.00  0.00    +0.000 C 
ATOM     18  C   UNL     1      47.750   7.496  13.588  0.00  0.00    +0.000 C 
ATOM     19  C   UNL     1      47.470   8.776  12.759  0.00  0.00    +0.000 C 
BRANCH  18  20
ATOM     20  C   UNL     1      48.357   7.950  14.942  0.00  0.00    +0.000 A 
ATOM     21  C   UNL     1      48.589   9.277  15.282  0.00  0.00    +0.000 A 
ATOM     22  S   UNL     1      49.359   9.489  16.788  0.00  0.00    +0.000 S 
ATOM     23  C   UNL     1      49.393   7.815  17.075  0.00  0.00    +0.000 A 
ATOM     24  N   UNL     1      50.001   7.319  18.183  0.00  0.00    +0.000 NA
ATOM     25  C   UNL     1      50.083   6.027  18.204  0.00  0.00    +0.000 A 
ATOM     26  N   UNL     1      49.545   5.197  17.256  0.00  0.00    +0.000 N 
ATOM     27  C   UNL     1      48.713   5.658  16.256  0.00  0.00    +0.000 A 
ATOM     28  O   UNL     1      47.914   4.917  15.692  0.00  0.00    +0.000 OA
ATOM     29  C   UNL     1      48.780   7.102  16.054  0.00  0.00    +0.000 A 
ATOM     30  H   UNL     1      49.622   4.194  17.367  0.00  0.00    +0.000 HD
ENDBRANCH  18  20
ENDBRANCH   1  18
TORSDOF 5
ENDMDL
MODEL 2
REMARK VINA RESULT:    -6.978      1.158      1.386
REMARK INTER + INTRA:          -9.713
REMARK INTER:                  -9.293
REMARK INTRA:                  -0.419
REMARK UNBOUND:                -0.695
REMARK  Name = 
REMARK  7 active torsions:
REMARK  status: ('A' for Active; 'I' for Inactive)
REMARK    1  A    between atoms: C_1  and  C_2
REMARK    2  A    between atoms: C_2  and  C_3
REMARK    3  A    between atoms: C_2  and  N_4
REMARK    4  A    between atoms: C_2  and  C_18
REMARK    5  A    between atoms: N_4  and  C_5
REMARK    6  A    between atoms: C_8  and  C_9
REMARK    7  A    between atoms: C_9  and  N_10
REMARK                            x       y       z     vdW  Elec       q    Type
REMARK                         _______ _______ _______ _____ _____    ______ ____
ROOT
ATOM      1  N   UNL     1      47.595   6.182  14.068  0.00  0.00    +0.000 N 
ATOM      2  H   UNL     1      47.628   5.512  14.830  0.00  0.00    +0.000 HD
ENDROOT
BRANCH   1   3
ATOM      3  C   UNL     1      46.608   5.931  13.131  0.00  0.00    +0.000 A 
ATOM      4  C   UNL     1      45.513   5.151  13.505  0.00  0.00    +0.000 A 
ATOM      5  C   UNL     1      44.605   4.695  12.548  0.00  0.00    +0.000 A 
ATOM      6  C   UNL     1      44.768   5.090  11.224  0.00  0.00    +0.000 A 
ATOM      7  N   UNL     1      45.786   5.897  10.832  0.00  0.00    +0.000 NA
ATOM      8  C   UNL     1      46.674   6.272  11.782  0.00  0.00    +0.000 A 
BRANCH   6   9
ATOM      9  C   UNL     1      43.844   4.571  10.142  0.00  0.00    +0.000 C 
BRANCH   9  10
ATOM     10  N   UNL     1      44.534   4.464   8.876  0.00  0.00    +0.000 N 
ATOM     11  C   UNL     1      45.256   3.355   8.546  0.00  0.00    +0.000 C 
ATOM     12  N   UNL     1      46.237   3.383   7.641  0.00  0.00    +0.000 NA
ATOM     13  C   UNL     1      46.658   2.115   7.540  0.00  0.00    +0.000 C 
ATOM     14  N   UNL     1      46.048   1.322   8.437  0.00  0.00    +0.000 NA
ATOM     15  N   UNL     1      45.145   2.123   9.080  0.00  0.00    +0.000 NA
ATOM     16  H   UNL     1      44.897   5.338   8.527  0.00  0.00    +0.000 HD
ENDBRANCH   9  10
ENDBRANCH   6   9
ENDBRANCH   1   3
BRANCH   1  18
ATOM     17  C   UNL     1      49.522   7.509  13.473  0.00  0.00    +0.000 C 
ATOM     18  C   UNL     1      48.214   7.494  14.317  0.00  0.00    +0.000 C 
ATOM     19  C   UNL     1      47.290   8.569  13.687  0.00  0.00    +0.000 C 
BRANCH  18  20
ATOM     20  C   UNL     1      48.441   7.896  15.799  0.00  0.00    +0.000 A 
ATOM     21  C   UNL     1      48.164   9.158  16.311  0.00  0.00    +0.000 A 
ATOM     22  S   UNL     1      48.602   9.359  17.946  0.00  0.00    +0.000 S 
ATOM     23  C   UNL     1      49.156   7.758  18.060  0.00  0.00    +0.000 A 
ATOM     24  N   UNL     1      49.735   7.309  19.202  0.00  0.00    +0.000 NA
ATOM     25  C   UNL     1      50.243   6.122  19.103  0.00  0.00    +0.000 A 
ATOM     26  N   UNL     1      50.152   5.326  17.992  0.00  0.00    +0.000 N 
ATOM     27  C   UNL     1      49.360   5.654  16.910  0.00  0.00    +0.000 A 
ATOM     28  O   UNL     1      48.943   4.799  16.136  0.00  0.00    +0.000 OA
ATOM     29  C   UNL     1      48.966   7.059  16.875  0.00  0.00    +0.000 A 
ATOM     30  H   UNL     1      50.545   4.394  18.010  0.00  0.00    +0.000 HD
ENDBRANCH  18  20
ENDBRANCH   1  18
TORSDOF 5
ENDMDL
MODEL 3
REMARK VINA RESULT:    -6.697      1.647      2.056
REMARK INTER + INTRA:          -9.349
REMARK INTER:                  -9.216
REMARK INTRA:                  -0.134
REMARK UNBOUND:                -0.695
REMARK  Name = 
REMARK  7 active torsions:
REMARK  status: ('A' for Active; 'I' for Inactive)
REMARK    1  A    between atoms: C_1  and  C_2
REMARK    2  A    between atoms: C_2  and  C_3
REMARK    3  A    between atoms: C_2  and  N_4
REMARK    4  A    between atoms: C_2  and  C_18
REMARK    5  A    between atoms: N_4  and  C_5
REMARK    6  A    between atoms: C_8  and  C_9
REMARK    7  A    between atoms: C_9  and  N_10
REMARK                            x       y       z     vdW  Elec       q    Type
REMARK                         _______ _______ _______ _____ _____    ______ ____
ROOT
ATOM      1  N   UNL     1      47.521   6.140  14.854  0.00  0.00    +0.000 N 
ATOM      2  H   UNL     1      47.008   6.296  15.717  0.00  0.00    +0.000 HD
ENDROOT
BRANCH   1   3
ATOM      3  C   UNL     1      46.819   5.430  13.896  0.00  0.00    +0.000 A 
ATOM      4  C   UNL     1      45.899   6.112  13.097  0.00  0.00    +0.000 A 
ATOM      5  C   UNL     1      45.021   5.413  12.269  0.00  0.00    +0.000 A 
ATOM      6  C   UNL     1      45.122   4.027  12.197  0.00  0.00    +0.000 A 
ATOM      7  N   UNL     1      46.044   3.334  12.912  0.00  0.00    +0.000 NA
ATOM      8  C   UNL     1      46.840   4.046  13.743  0.00  0.00    +0.000 A 
BRANCH   6   9
ATOM      9  C   UNL     1      44.152   3.221  11.360  0.00  0.00    +0.000 C 
BRANCH   9  10
ATOM     10  N   UNL     1      44.849   2.423  10.378  0.00  0.00    +0.000 N 
ATOM     11  C   UNL     1      45.281   2.955   9.199  0.00  0.00    +0.000 C 
ATOM     12  N   UNL     1      45.508   2.207   8.116  0.00  0.00    +0.000 NA
ATOM     13  C   UNL     1      45.977   3.057   7.193  0.00  0.00    +0.000 C 
ATOM     14  N   UNL     1      45.939   4.327   7.631  0.00  0.00    +0.000 NA
ATOM     15  N   UNL     1      45.494   4.257   8.922  0.00  0.00    +0.000 NA
ATOM     16  H   UNL     1      44.546   1.462  10.334  0.00  0.00    +0.000 HD
ENDBRANCH   9  10
ENDBRANCH   6   9
ENDBRANCH   1   3
BRANCH   1  18
ATOM     17  C   UNL     1      48.938   6.913  13.059  0.00  0.00    +0.000 C 
ATOM     18  C   UNL     1      48.646   7.048  14.582  0.00  0.00    +0.000 C 
ATOM     19  C   UNL     1      48.132   8.497  14.790  0.00  0.00    +0.000 C 
BRANCH  18  20
ATOM     20  C   UNL     1      49.914   6.882  15.462  0.00  0.00    +0.000 A 
ATOM     21  C   UNL     1      51.116   7.535  15.221  0.00  0.00    +0.000 A 
ATOM     22  S   UNL     1      52.376   7.093  16.282  0.00  0.00    +0.000 S 
ATOM     23  C   UNL     1      51.367   6.027  17.136  0.00  0.00    +0.000 A 
ATOM     24  N   UNL     1      51.866   5.263  18.141  0.00  0.00    +0.000 NA
ATOM     25  C   UNL     1      51.027   4.392  18.605  0.00  0.00    +0.000 A 
ATOM     26  N   UNL     1      49.722   4.277  18.206  0.00  0.00    +0.000 N 
ATOM     27  C   UNL     1      49.121   5.197  17.370  0.00  0.00    +0.000 A 
ATOM     28  O   UNL     1      47.903   5.348  17.350  0.00  0.00    +0.000 OA
ATOM     29  C   UNL     1      50.067   6.042  16.648  0.00  0.00    +0.000 A 
ATOM     30  H   UNL     1      49.121   3.593  18.647  0.00  0.00    +0.000 HD
ENDBRANCH  18  20
ENDBRANCH   1  18
TORSDOF 5
ENDMDL
MODEL 4
REMARK VINA RESULT:    -6.471      1.803      2.923
REMARK INTER + INTRA:          -9.058
REMARK INTER:                  -8.099
REMARK INTRA:                  -0.959
REMARK UNBOUND:                -0.695
REMARK  Name = 
REMARK  7 active torsions:
REMARK  status: ('A' for Active; 'I' for Inactive)
REMARK    1  A    between atoms: C_1  and  C_2
REMARK    2  A    between atoms: C_2  and  C_3
REMARK    3  A    between atoms: C_2  and  N_4
REMARK    4  A    between atoms: C_2  and  C_18
REMARK    5  A    between atoms: N_4  and  C_5
REMARK    6  A    between atoms: C_8  and  C_9
REMARK    7  A    between atoms: C_9  and  N_10
REMARK                            x       y       z     vdW  Elec       q    Type
REMARK                         _______ _______ _______ _____ _____    ______ ____
ROOT
ATOM      1  N   UNL     1      49.142   6.429  14.630  0.00  0.00    +0.000 N 
ATOM      2  H   UNL     1      49.714   5.591  14.576  0.00  0.00    +0.000 HD
ENDROOT
BRANCH   1   3
ATOM      3  C   UNL     1      47.881   6.294  14.077  0.00  0.00    +0.000 A 
ATOM      4  C   UNL     1      47.137   5.151  14.376  0.00  0.00    +0.000 A 
ATOM      5  C   UNL     1      45.959   4.868  13.684  0.00  0.00    +0.000 A 
ATOM      6  C   UNL     1      45.498   5.779  12.739  0.00  0.00    +0.000 A 
ATOM      7  N   UNL     1      46.161   6.931  12.465  0.00  0.00    +0.000 NA
ATOM      8  C   UNL     1      47.327   7.140  13.119  0.00  0.00    +0.000 A 
BRANCH   6   9
ATOM      9  C   UNL     1      44.259   5.486  11.921  0.00  0.00    +0.000 C 
BRANCH   9  10
ATOM     10  N   UNL     1      44.379   4.224  11.227  0.00  0.00    +0.000 N 
ATOM     11  C   UNL     1      44.854   4.150   9.951  0.00  0.00    +0.000 C 
ATOM     12  N   UNL     1      44.571   3.128   9.139  0.00  0.00    +0.000 NA
ATOM     13  C   UNL     1      45.258   3.372   8.015  0.00  0.00    +0.000 C 
ATOM     14  N   UNL     1      45.866   4.570   8.060  0.00  0.00    +0.000 NA
ATOM     15  N   UNL     1      45.606   5.066   9.308  0.00  0.00    +0.000 NA
ATOM     16  H   UNL     1      43.664   3.552  11.462  0.00  0.00    +0.000 HD
ENDBRANCH   9  10
ENDBRANCH   6   9
ENDBRANCH   1   3
BRANCH   1  18
ATOM     17  C   UNL     1      51.073   7.365  15.737  0.00  0.00    +0.000 C 
ATOM     18  C   UNL     1      49.519   7.420  15.651  0.00  0.00    +0.000 C 
ATOM     19  C   UNL     1      49.174   8.822  15.084  0.00  0.00    +0.000 C 
BRANCH  18  20
ATOM     20  C   UNL     1      48.828   7.302  17.035  0.00  0.00    +0.000 A 
ATOM     21  C   UNL     1      48.125   8.336  17.641  0.00  0.00    +0.000 A 
ATOM     22  S   UNL     1      47.554   7.970  19.205  0.00  0.00    +0.000 S 
ATOM     23  C   UNL     1      48.192   6.398  19.137  0.00  0.00    +0.000 A 
ATOM     24  N   UNL     1      48.108   5.573  20.213  0.00  0.00    +0.000 NA
ATOM     25  C   UNL     1      48.762   4.464  20.077  0.00  0.00    +0.000 A 
ATOM     26  N   UNL     1      49.420   4.082  18.939  0.00  0.00    +0.000 N 
ATOM     27  C   UNL     1      49.316   4.782  17.754  0.00  0.00    +0.000 A 
ATOM     28  O   UNL     1      49.531   4.247  16.670  0.00  0.00    +0.000 OA
ATOM     29  C   UNL     1      48.795   6.136  17.915  0.00  0.00    +0.000 A 
ATOM     30  H   UNL     1      49.877   3.179  18.903  0.00  0.00    +0.000 HD
ENDBRANCH  18  20
ENDBRANCH   1  18
TORSDOF 5
ENDMDL
MODEL 5
REMARK VINA RESULT:    -6.372      1.956      2.198
REMARK INTER + INTRA:          -8.929
REMARK INTER:                  -8.960
REMARK INTRA:                   0.031
REMARK UNBOUND:                -0.695
REMARK  Name = 
REMARK  7 active torsions:
REMARK  status: ('A' for Active; 'I' for Inactive)
REMARK    1  A    between atoms: C_1  and  C_2
REMARK    2  A    between atoms: C_2  and  C_3
REMARK    3  A    between atoms: C_2  and  N_4
REMARK    4  A    between atoms: C_2  and  C_18
REMARK    5  A    between atoms: N_4  and  C_5
REMARK    6  A    between atoms: C_8  and  C_9
REMARK    7  A    between atoms: C_9  and  N_10
REMARK                            x       y       z     vdW  Elec       q    Type
REMARK                         _______ _______ _______ _____ _____    ______ ____
ROOT
ATOM      1  N   UNL     1      46.748   7.059  13.687  0.00  0.00    +0.000 N 
ATOM      2  H   UNL     1      46.041   7.702  14.031  0.00  0.00    +0.000 HD
ENDROOT
BRANCH   1   3
ATOM      3  C   UNL     1      46.262   6.079  12.840  0.00  0.00    +0.000 A 
ATOM      4  C   UNL     1      45.841   6.448  11.561  0.00  0.00    +0.000 A 
ATOM      5  C   UNL     1      45.151   5.544  10.751  0.00  0.00    +0.000 A 
ATOM      6  C   UNL     1      44.953   4.246  11.210  0.00  0.00    +0.000 A 
ATOM      7  N   UNL     1      45.402   3.832  12.422  0.00  0.00    +0.000 NA
ATOM      8  C   UNL     1      46.017   4.755  13.197  0.00  0.00    +0.000 A 
BRANCH   6   9
ATOM      9  C   UNL     1      44.159   3.249  10.393  0.00  0.00    +0.000 C 
BRANCH   9  10
ATOM     10  N   UNL     1      44.271   3.526   8.979  0.00  0.00    +0.000 N 
ATOM     11  C   UNL     1      45.278   3.002   8.224  0.00  0.00    +0.000 C 
ATOM     12  N   UNL     1      45.679   3.559   7.079  0.00  0.00    +0.000 NA
ATOM     13  C   UNL     1      46.624   2.738   6.600  0.00  0.00    +0.000 C 
ATOM     14  N   UNL     1      46.902   1.751   7.468  0.00  0.00    +0.000 NA
ATOM     15  N   UNL     1      46.033   1.922   8.510  0.00  0.00    +0.000 NA
ATOM     16  H   UNL     1      43.966   4.450   8.712  0.00  0.00    +0.000 HD
ENDBRANCH   9  10
ENDBRANCH   6   9
ENDBRANCH   1   3
BRANCH   1  18
ATOM     17  C   UNL     1      48.739   7.202  12.329  0.00  0.00    +0.000 C 
ATOM     18  C   UNL     1      48.143   7.528  13.729  0.00  0.00    +0.000 C 
ATOM     19  C   UNL     1      48.107   9.076  13.827  0.00  0.00    +0.000 C 
BRANCH  18  20
ATOM     20  C   UNL     1      49.023   7.015  14.901  0.00  0.00    +0.000 A 
ATOM     21  C   UNL     1      48.579   6.127  15.873  0.00  0.00    +0.000 A 
ATOM     22  S   UNL     1      49.718   5.810  17.101  0.00  0.00    +0.000 S 
ATOM     23  C   UNL     1      50.874   6.822  16.376  0.00  0.00    +0.000 A 
ATOM     24  N   UNL     1      52.068   7.047  16.982  0.00  0.00    +0.000 NA
ATOM     25  C   UNL     1      52.791   7.949  16.399  0.00  0.00    +0.000 A 
ATOM     26  N   UNL     1      52.456   8.580  15.230  0.00  0.00    +0.000 N 
ATOM     27  C   UNL     1      51.374   8.195  14.465  0.00  0.00    +0.000 A 
ATOM     28  O   UNL     1      51.314   8.443  13.265  0.00  0.00    +0.000 OA
ATOM     29  C   UNL     1      50.414   7.361  15.183  0.00  0.00    +0.000 A 
ATOM     30  H   UNL     1      53.097   9.248  14.819  0.00  0.00    +0.000 HD
ENDBRANCH  18  20
ENDBRANCH   1  18
TORSDOF 5
ENDMDL
MODEL 6
REMARK VINA RESULT:    -6.329      3.153      8.142
REMARK INTER + INTRA:          -8.874
REMARK INTER:                  -8.950
REMARK INTRA:                   0.075
REMARK UNBOUND:                -0.695
REMARK  Name = 
REMARK  7 active torsions:
REMARK  status: ('A' for Active; 'I' for Inactive)
REMARK    1  A    between atoms: C_1  and  C_2
REMARK    2  A    between atoms: C_2  and  C_3
REMARK    3  A    between atoms: C_2  and  N_4
REMARK    4  A    between atoms: C_2  and  C_18
REMARK    5  A    between atoms: N_4  and  C_5
REMARK    6  A    between atoms: C_8  and  C_9
REMARK    7  A    between atoms: C_9  and  N_10
REMARK                            x       y       z     vdW  Elec       q    Type
REMARK                         _______ _______ _______ _____ _____    ______ ____
ROOT
ATOM      1  N   UNL     1      46.832   6.116  12.131  0.00  0.00    +0.000 N 
ATOM      2  H   UNL     1      47.430   6.699  11.554  0.00  0.00    +0.000 HD
ENDROOT
BRANCH   1   3
ATOM      3  C   UNL     1      47.391   5.753  13.344  0.00  0.00    +0.000 A 
ATOM      4  C   UNL     1      46.972   4.566  13.947  0.00  0.00    +0.000 A 
ATOM      5  C   UNL     1      47.344   4.264  15.257  0.00  0.00    +0.000 A 
ATOM      6  C   UNL     1      48.199   5.130  15.931  0.00  0.00    +0.000 A 
ATOM      7  N   UNL     1      48.677   6.263  15.357  0.00  0.00    +0.000 NA
ATOM      8  C   UNL     1      48.248   6.545  14.105  0.00  0.00    +0.000 A 
BRANCH   6   9
ATOM      9  C   UNL     1      48.580   4.876  17.374  0.00  0.00    +0.000 C 
BRANCH   9  10
ATOM     10  N   UNL     1      50.003   4.658  17.506  0.00  0.00    +0.000 N 
ATOM     11  C   UNL     1      50.549   3.412  17.407  0.00  0.00    +0.000 C 
ATOM     12  N   UNL     1      51.730   3.103  17.948  0.00  0.00    +0.000 NA
ATOM     13  C   UNL     1      51.959   1.833  17.589  0.00  0.00    +0.000 C 
ATOM     14  N   UNL     1      50.905   1.307  16.942  0.00  0.00    +0.000 NA
ATOM     15  N   UNL     1      50.002   2.327  16.823  0.00  0.00    +0.000 NA
ATOM     16  H   UNL     1      50.459   5.280  18.156  0.00  0.00    +0.000 HD
ENDBRANCH   9  10
ENDBRANCH   6   9
ENDBRANCH   1   3
BRANCH   1  18
ATOM     17  C   UNL     1      44.729   6.824  13.082  0.00  0.00    +0.000 C 
ATOM     18  C   UNL     1      45.390   6.158  11.840  0.00  0.00    +0.000 C 
ATOM     19  C   UNL     1      45.184   7.150  10.666  0.00  0.00    +0.000 C 
BRANCH  18  20
ATOM     20  C   UNL     1      44.714   4.820  11.435  0.00  0.00    +0.000 A 
ATOM     21  C   UNL     1      43.765   4.165  12.209  0.00  0.00    +0.000 A 
ATOM     22  S   UNL     1      43.263   2.664  11.576  0.00  0.00    +0.000 S 
ATOM     23  C   UNL     1      44.268   2.830  10.217  0.00  0.00    +0.000 A 
ATOM     24  N   UNL     1      44.362   1.831   9.303  0.00  0.00    +0.000 NA
ATOM     25  C   UNL     1      45.270   2.027   8.401  0.00  0.00    +0.000 A 
ATOM     26  N   UNL     1      46.030   3.161   8.294  0.00  0.00    +0.000 N 
ATOM     27  C   UNL     1      45.786   4.289   9.052  0.00  0.00    +0.000 A 
ATOM     28  O   UNL     1      46.152   5.401   8.685  0.00  0.00    +0.000 OA
ATOM     29  C   UNL     1      44.947   4.042  10.220  0.00  0.00    +0.000 A 
ATOM     30  H   UNL     1      46.694   3.250   7.535  0.00  0.00    +0.000 HD
ENDBRANCH  18  20
ENDBRANCH   1  18
TORSDOF 5
ENDMDL
MODEL 7
REMARK VINA RESULT:    -6.076      2.964      3.840
REMARK INTER + INTRA:          -8.547
REMARK INTER:                  -8.352
REMARK INTRA:                  -0.195
REMARK UNBOUND:                -0.695
REMARK  Name = 
REMARK  7 active torsions:
REMARK  status: ('A' for Active; 'I' for Inactive)
REMARK    1  A    between atoms: C_1  and  C_2
REMARK    2  A    between atoms: C_2  and  C_3
REMARK    3  A    between atoms: C_2  and  N_4
REMARK    4  A    between atoms: C_2  and  C_18
REMARK    5  A    between atoms: N_4  and  C_5
REMARK    6  A    between atoms: C_8  and  C_9
REMARK    7  A    between atoms: C_9  and  N_10
REMARK                            x       y       z     vdW  Elec       q    Type
REMARK                         _______ _______ _______ _____ _____    ______ ____
ROOT
ATOM      1  N   UNL     1      46.706   7.744  13.695  0.00  0.00    +0.000 N 
ATOM      2  H   UNL     1      46.068   8.463  14.023  0.00  0.00    +0.000 HD
ENDROOT
BRANCH   1   3
ATOM      3  C   UNL     1      46.122   6.796  12.873  0.00  0.00    +0.000 A 
ATOM      4  C   UNL     1      45.828   7.144  11.553  0.00  0.00    +0.000 A 
ATOM      5  C   UNL     1      45.054   6.304  10.753  0.00  0.00    +0.000 A 
ATOM      6  C   UNL     1      44.637   5.080  11.267  0.00  0.00    +0.000 A 
ATOM      7  N   UNL     1      44.954   4.681  12.524  0.00  0.00    +0.000 NA
ATOM      8  C   UNL     1      45.661   5.548  13.285  0.00  0.00    +0.000 A 
BRANCH   6   9
ATOM      9  C   UNL     1      43.744   4.163  10.457  0.00  0.00    +0.000 C 
BRANCH   9  10
ATOM     10  N   UNL     1      44.058   4.242   9.049  0.00  0.00    +0.000 N 
ATOM     11  C   UNL     1      45.011   3.449   8.482  0.00  0.00    +0.000 C 
ATOM     12  N   UNL     1      45.634   3.777   7.348  0.00  0.00    +0.000 NA
ATOM     13  C   UNL     1      46.437   2.740   7.075  0.00  0.00    +0.000 C 
ATOM     14  N   UNL     1      46.418   1.830   8.063  0.00  0.00    +0.000 NA
ATOM     15  N   UNL     1      45.497   2.288   8.965  0.00  0.00    +0.000 NA
ATOM     16  H   UNL     1      43.976   5.168   8.657  0.00  0.00    +0.000 HD
ENDBRANCH   9  10
ENDBRANCH   6   9
ENDBRANCH   1   3
BRANCH   1  18
ATOM     17  C   UNL     1      48.479   8.342  15.221  0.00  0.00    +0.000 C 
ATOM     18  C   UNL     1      48.141   8.072  13.726  0.00  0.00    +0.000 C 
ATOM     19  C   UNL     1      48.917   6.785  13.340  0.00  0.00    +0.000 C 
BRANCH  18  20
ATOM     20  C   UNL     1      48.625   9.201  12.778  0.00  0.00    +0.000 A 
ATOM     21  C   UNL     1      47.772  10.042  12.075  0.00  0.00    +0.000 A 
ATOM     22  S   UNL     1      48.568  11.127  11.028  0.00  0.00    +0.000 S 
ATOM     23  C   UNL     1      50.096  10.546  11.487  0.00  0.00    +0.000 A 
ATOM     24  N   UNL     1      51.220  11.018  10.889  0.00  0.00    +0.000 NA
ATOM     25  C   UNL     1      52.299  10.387  11.226  0.00  0.00    +0.000 A 
ATOM     26  N   UNL     1      52.357   9.387  12.160  0.00  0.00    +0.000 N 
ATOM     27  C   UNL     1      51.281   9.058  12.959  0.00  0.00    +0.000 A 
ATOM     28  O   UNL     1      51.431   8.497  14.040  0.00  0.00    +0.000 OA
ATOM     29  C   UNL     1      50.005   9.566  12.465  0.00  0.00    +0.000 A 
ATOM     30  H   UNL     1      53.250   8.970  12.393  0.00  0.00    +0.000 HD
ENDBRANCH  18  20
ENDBRANCH   1  18
TORSDOF 5
ENDMDL
MODEL 8
REMARK VINA RESULT:    -5.968      2.722      4.033
REMARK INTER + INTRA:          -8.407
REMARK INTER:                  -8.704
REMARK INTRA:                   0.297
REMARK UNBOUND:                -0.695
REMARK  Name = 
REMARK  7 active torsions:
REMARK  status: ('A' for Active; 'I' for Inactive)
REMARK    1  A    between atoms: C_1  and  C_2
REMARK    2  A    between atoms: C_2  and  C_3
REMARK    3  A    between atoms: C_2  and  N_4
REMARK    4  A    between atoms: C_2  and  C_18
REMARK    5  A    between atoms: N_4  and  C_5
REMARK    6  A    between atoms: C_8  and  C_9
REMARK    7  A    between atoms: C_9  and  N_10
REMARK                            x       y       z     vdW  Elec       q    Type
REMARK                         _______ _______ _______ _____ _____    ______ ____
ROOT
ATOM      1  N   UNL     1      48.322   5.692  15.851  0.00  0.00    +0.000 N 
ATOM      2  H   UNL     1      49.151   6.251  15.674  0.00  0.00    +0.000 HD
ENDROOT
BRANCH   1   3
ATOM      3  C   UNL     1      47.513   5.508  14.744  0.00  0.00    +0.000 A 
ATOM      4  C   UNL     1      47.267   6.596  13.905  0.00  0.00    +0.000 A 
ATOM      5  C   UNL     1      46.297   6.518  12.905  0.00  0.00    +0.000 A 
ATOM      6  C   UNL     1      45.629   5.314  12.708  0.00  0.00    +0.000 A 
ATOM      7  N   UNL     1      45.884   4.215  13.463  0.00  0.00    +0.000 NA
ATOM      8  C   UNL     1      46.792   4.350  14.457  0.00  0.00    +0.000 A 
BRANCH   6   9
ATOM      9  C   UNL     1      44.527   5.199  11.676  0.00  0.00    +0.000 C 
BRANCH   9  10
ATOM     10  N   UNL     1      45.013   5.535  10.356  0.00  0.00    +0.000 N 
ATOM     11  C   UNL     1      45.211   4.581   9.402  0.00  0.00    +0.000 C 
ATOM     12  N   UNL     1      46.046   4.758   8.376  0.00  0.00    +0.000 NA
ATOM     13  C   UNL     1      45.925   3.652   7.629  0.00  0.00    +0.000 C 
ATOM     14  N   UNL     1      45.128   2.746   8.220  0.00  0.00    +0.000 NA
ATOM     15  N   UNL     1      44.668   3.348   9.358  0.00  0.00    +0.000 NA
ATOM     16  H   UNL     1      45.661   6.308  10.337  0.00  0.00    +0.000 HD
ENDBRANCH   9  10
ENDBRANCH   6   9
ENDBRANCH   1   3
BRANCH   1  18
ATOM     17  C   UNL     1      48.118   5.740  18.256  0.00  0.00    +0.000 C 
ATOM     18  C   UNL     1      48.359   4.812  17.030  0.00  0.00    +0.000 C 
ATOM     19  C   UNL     1      47.121   3.881  16.952  0.00  0.00    +0.000 C 
BRANCH  18  20
ATOM     20  C   UNL     1      49.607   3.902  17.191  0.00  0.00    +0.000 A 
ATOM     21  C   UNL     1      49.565   2.514  17.149  0.00  0.00    +0.000 A 
ATOM     22  S   UNL     1      51.064   1.761  17.455  0.00  0.00    +0.000 S 
ATOM     23  C   UNL     1      51.850   3.256  17.630  0.00  0.00    +0.000 A 
ATOM     24  N   UNL     1      53.161   3.309  17.979  0.00  0.00    +0.000 NA
ATOM     25  C   UNL     1      53.593   4.505  18.221  0.00  0.00    +0.000 A 
ATOM     26  N   UNL     1      52.853   5.647  18.068  0.00  0.00    +0.000 N 
ATOM     27  C   UNL     1      51.604   5.645  17.480  0.00  0.00    +0.000 A 
ATOM     28  O   UNL     1      51.135   6.655  16.963  0.00  0.00    +0.000 OA
ATOM     29  C   UNL     1      50.989   4.323  17.409  0.00  0.00    +0.000 A 
ATOM     30  H   UNL     1      53.279   6.548  18.243  0.00  0.00    +0.000 HD
ENDBRANCH  18  20
ENDBRANCH   1  18
TORSDOF 5
ENDMDL
MODEL 9
REMARK VINA RESULT:    -5.884      4.690      8.827
REMARK INTER + INTRA:          -8.300
REMARK INTER:                  -7.302
REMARK INTRA:                  -0.997
REMARK UNBOUND:                -0.695
REMARK  Name = 
REMARK  7 active torsions:
REMARK  status: ('A' for Active; 'I' for Inactive)
REMARK    1  A    between atoms: C_1  and  C_2
REMARK    2  A    between atoms: C_2  and  C_3
REMARK    3  A    between atoms: C_2  and  N_4
REMARK    4  A    between atoms: C_2  and  C_18
REMARK    5  A    between atoms: N_4  and  C_5
REMARK    6  A    between atoms: C_8  and  C_9
REMARK    7  A    between atoms: C_9  and  N_10
REMARK                            x       y       z     vdW  Elec       q    Type
REMARK                         _______ _______ _______ _____ _____    ______ ____
ROOT
ATOM      1  N   UNL     1      48.966   4.341  18.687  0.00  0.00    +0.000 N 
ATOM      2  H   UNL     1      48.230   3.691  18.948  0.00  0.00    +0.000 HD
ENDROOT
BRANCH   1   3
ATOM      3  C   UNL     1      50.147   3.735  18.297  0.00  0.00    +0.000 A 
ATOM      4  C   UNL     1      50.081   2.557  17.550  0.00  0.00    +0.000 A 
ATOM      5  C   UNL     1      51.228   1.799  17.315  0.00  0.00    +0.000 A 
ATOM      6  C   UNL     1      52.453   2.272  17.774  0.00  0.00    +0.000 A 
ATOM      7  N   UNL     1      52.566   3.444  18.450  0.00  0.00    +0.000 NA
ATOM      8  C   UNL     1      51.422   4.120  18.704  0.00  0.00    +0.000 A 
BRANCH   6   9
ATOM      9  C   UNL     1      53.716   1.456  17.596  0.00  0.00    +0.000 C 
BRANCH   9  10
ATOM     10  N   UNL     1      53.927   0.570  18.719  0.00  0.00    +0.000 N 
ATOM     11  C   UNL     1      54.189  -0.756  18.545  0.00  0.00    +0.000 C 
ATOM     12  N   UNL     1      53.949  -1.664  19.495  0.00  0.00    +0.000 NA
ATOM     13  C   UNL     1      54.390  -2.825  18.991  0.00  0.00    +0.000 C 
ATOM     14  N   UNL     1      54.789  -2.686  17.715  0.00  0.00    +0.000 NA
ATOM     15  N   UNL     1      54.661  -1.355  17.434  0.00  0.00    +0.000 NA
ATOM     16  H   UNL     1      53.382   0.801  19.536  0.00  0.00    +0.000 HD
ENDBRANCH   9  10
ENDBRANCH   6   9
ENDBRANCH   1   3
BRANCH   1  18
ATOM     17  C   UNL     1      47.087   5.850  18.839  0.00  0.00    +0.000 C 
ATOM     18  C   UNL     1      48.543   5.699  18.309  0.00  0.00    +0.000 C 
ATOM     19  C   UNL     1      49.401   6.696  19.132  0.00  0.00    +0.000 C 
BRANCH  18  20
ATOM     20  C   UNL     1      48.691   6.092  16.815  0.00  0.00    +0.000 A 
ATOM     21  C   UNL     1      49.500   7.126  16.362  0.00  0.00    +0.000 A 
ATOM     22  S   UNL     1      49.398   7.408  14.683  0.00  0.00    +0.000 S 
ATOM     23  C   UNL     1      48.289   6.140  14.474  0.00  0.00    +0.000 A 
ATOM     24  N   UNL     1      47.740   5.898  13.257  0.00  0.00    +0.000 NA
ATOM     25  C   UNL     1      46.805   5.003  13.269  0.00  0.00    +0.000 A 
ATOM     26  N   UNL     1      46.431   4.283  14.372  0.00  0.00    +0.000 N 
ATOM     27  C   UNL     1      47.135   4.329  15.559  0.00  0.00    +0.000 A 
ATOM     28  O   UNL     1      47.081   3.413  16.375  0.00  0.00    +0.000 OA
ATOM     29  C   UNL     1      48.033   5.474  15.666  0.00  0.00    +0.000 A 
ATOM     30  H   UNL     1      45.714   3.573  14.289  0.00  0.00    +0.000 HD
ENDBRANCH  18  20
ENDBRANCH   1  18
TORSDOF 5
ENDMDL
