MODEL 1
REMARK VINA RESULT:    -8.624      0.000      0.000
REMARK INTER + INTRA:         -13.482
REMARK INTER:                 -12.657
REMARK INTRA:                  -0.825
REMARK UNBOUND:                -0.825
REMARK  Name = 
REMARK  9 active torsions:
REMARK  status: ('A' for Active; 'I' for Inactive)
REMARK    1  A    between atoms: C_1  and  C_2
REMARK    2  A    between atoms: C_2  and  C_3
REMARK    3  A    between atoms: C_3  and  N_4
REMARK    4  A    between atoms: C_3  and  C_17
REMARK    5  A    between atoms: C_5  and  C_7
REMARK    6  A    between atoms: C_20  and  C_21
REMARK    7  A    between atoms: C_21  and  N_22
REMARK    8  A    between atoms: N_22  and  C_23
REMARK    9  A    between atoms: C_23  and  C_24
REMARK                            x       y       z     vdW  Elec       q    Type
REMARK                         _______ _______ _______ _____ _____    ______ ____
ROOT
ATOM      1  C   UNL     1      46.725   7.961  12.662  0.00  0.00    +0.000 C 
ENDROOT
BRANCH   1   2
ATOM      2  C   UNL     1      45.818   6.855  12.130  0.00  0.00    +0.000 A 
ATOM      3  C   UNL     1      46.006   6.382  10.822  0.00  0.00    +0.000 A 
ATOM      4  C   UNL     1      45.331   5.246  10.360  0.00  0.00    +0.000 A 
ATOM      5  C   UNL     1      44.445   4.551  11.195  0.00  0.00    +0.000 A 
ATOM      6  C   UNL     1      44.161   5.094  12.454  0.00  0.00    +0.000 A 
ATOM      7  C   UNL     1      44.828   6.241  12.909  0.00  0.00    +0.000 A 
BRANCH   5   8
ATOM      8  C   UNL     1      43.854   3.227  10.761  0.00  0.00    +0.000 C 
BRANCH   8   9
ATOM      9  N   UNL     1      44.133   2.984   9.341  0.00  0.00    +0.000 NA
ATOM     10  H   UNL     1      44.519   3.838   8.937  0.00  0.00    +0.000 HD
BRANCH   9  11
ATOM     11  C   UNL     1      45.068   1.881   9.138  0.00  0.00    +0.000 C 
BRANCH  11  12
ATOM     12  C   UNL     1      45.977   2.145   7.975  0.00  0.00    +0.000 A 
ATOM     13  C   UNL     1      46.931   1.241   7.550  0.00  0.00    +0.000 A 
ATOM     14  N   UNL     1      47.759   1.449   6.506  0.00  0.00    +0.000 NA
ATOM     15  C   UNL     1      47.606   2.620   5.870  0.00  0.00    +0.000 A 
ATOM     16  N   UNL     1      46.714   3.573   6.176  0.00  0.00    +0.000 NA
ATOM     17  C   UNL     1      45.916   3.308   7.231  0.00  0.00    +0.000 A 
ENDBRANCH  11  12
ENDBRANCH   9  11
ENDBRANCH   8   9
ENDBRANCH   5   8
ENDBRANCH   1   2
BRANCH   1  18
ATOM     18  N   UNL     1      47.251   7.619  13.978  0.00  0.00    +0.000 N 
ATOM     19  C   UNL     1      48.264   6.697  14.116  0.00  0.00    +0.000 C 
ATOM     20  O   UNL     1      48.850   6.245  13.134  0.00  0.00    +0.000 OA
ATOM     21  H   UNL     1      46.733   7.943  14.791  0.00  0.00    +0.000 HD
BRANCH  19  22
ATOM     22  C   UNL     1      48.629   6.250  15.470  0.00  0.00    +0.000 A 
ATOM     23  C   UNL     1      49.588   6.971  16.176  0.00  0.00    +0.000 A 
ATOM     24  S   UNL     1      49.923   6.353  17.726  0.00  0.00    +0.000 S 
ATOM     25  C   UNL     1      48.820   5.079  17.510  0.00  0.00    +0.000 A 
ATOM     26  N   UNL     1      48.637   4.150  18.489  0.00  0.00    +0.000 NA
ATOM     27  C   UNL     1      47.790   3.225  18.193  0.00  0.00    +0.000 A 
ATOM     28  N   UNL     1      47.103   3.145  17.009  0.00  0.00    +0.000 N 
ATOM     29  C   UNL     1      47.254   4.060  15.992  0.00  0.00    +0.000 A 
ATOM     30  O   UNL     1      46.632   3.953  14.942  0.00  0.00    +0.000 OA
ATOM     31  C   UNL     1      48.198   5.126  16.273  0.00  0.00    +0.000 A 
ATOM     32  H   UNL     1      46.453   2.393  16.845  0.00  0.00    +0.000 HD
ENDBRANCH  19  22
ENDBRANCH   1  18
BRANCH   1  34
ATOM     33  C   UNL     1      48.264   9.847  11.781  0.00  0.00    +0.000 C 
ATOM     34  C   UNL     1      47.885   8.372  11.717  0.00  0.00    +0.000 C 
ENDBRANCH   1  34
TORSDOF 8
ENDMDL
MODEL 2
REMARK VINA RESULT:    -8.150      1.076      1.120
REMARK INTER + INTRA:         -12.787
REMARK INTER:                 -11.295
REMARK INTRA:                  -1.492
REMARK UNBOUND:                -0.825
REMARK  Name = 
REMARK  9 active torsions:
REMARK  status: ('A' for Active; 'I' for Inactive)
REMARK    1  A    between atoms: C_1  and  C_2
REMARK    2  A    between atoms: C_2  and  C_3
REMARK    3  A    between atoms: C_3  and  N_4
REMARK    4  A    between atoms: C_3  and  C_17
REMARK    5  A    between atoms: C_5  and  C_7
REMARK    6  A    between atoms: C_20  and  C_21
REMARK    7  A    between atoms: C_21  and  N_22
REMARK    8  A    between atoms: N_22  and  C_23
REMARK    9  A    between atoms: C_23  and  C_24
REMARK                            x       y       z     vdW  Elec       q    Type
REMARK                         _______ _______ _______ _____ _____    ______ ____
ROOT
ATOM      1  C   UNL     1      47.660   7.220  12.997  0.00  0.00    +0.000 C 
ENDROOT
BRANCH   1   2
ATOM      2  C   UNL     1      46.496   6.425  12.414  0.00  0.00    +0.000 A 
ATOM      3  C   UNL     1      46.364   6.323  11.019  0.00  0.00    +0.000 A 
ATOM      4  C   UNL     1      45.432   5.452  10.444  0.00  0.00    +0.000 A 
ATOM      5  C   UNL     1      44.603   4.658  11.247  0.00  0.00    +0.000 A 
ATOM      6  C   UNL     1      44.644   4.851  12.634  0.00  0.00    +0.000 A 
ATOM      7  C   UNL     1      45.568   5.736  13.208  0.00  0.00    +0.000 A 
BRANCH   5   8
ATOM      8  C   UNL     1      43.724   3.590  10.631  0.00  0.00    +0.000 C 
BRANCH   8   9
ATOM      9  N   UNL     1      44.124   3.339   9.242  0.00  0.00    +0.000 NA
ATOM     10  H   UNL     1      44.751   4.088   8.945  0.00  0.00    +0.000 HD
BRANCH   9  11
ATOM     11  C   UNL     1      44.790   2.050   9.079  0.00  0.00    +0.000 C 
BRANCH  11  12
ATOM     12  C   UNL     1      45.893   2.132   8.065  0.00  0.00    +0.000 A 
ATOM     13  C   UNL     1      46.755   1.083   7.811  0.00  0.00    +0.000 A 
ATOM     14  N   UNL     1      47.751   1.126   6.903  0.00  0.00    +0.000 NA
ATOM     15  C   UNL     1      47.872   2.279   6.228  0.00  0.00    +0.000 A 
ATOM     16  N   UNL     1      47.094   3.362   6.374  0.00  0.00    +0.000 NA
ATOM     17  C   UNL     1      46.117   3.259   7.298  0.00  0.00    +0.000 A 
ENDBRANCH  11  12
ENDBRANCH   9  11
ENDBRANCH   8   9
ENDBRANCH   5   8
ENDBRANCH   1   2
BRANCH   1  18
ATOM     18  N   UNL     1      48.091   6.658  14.271  0.00  0.00    +0.000 N 
ATOM     19  C   UNL     1      48.404   7.475  15.335  0.00  0.00    +0.000 C 
ATOM     20  O   UNL     1      48.191   8.686  15.290  0.00  0.00    +0.000 OA
ATOM     21  H   UNL     1      48.325   5.669  14.295  0.00  0.00    +0.000 HD
BRANCH  19  22
ATOM     22  C   UNL     1      49.011   6.871  16.532  0.00  0.00    +0.000 A 
ATOM     23  C   UNL     1      50.029   7.560  17.185  0.00  0.00    +0.000 A 
ATOM     24  S   UNL     1      50.648   6.757  18.552  0.00  0.00    +0.000 S 
ATOM     25  C   UNL     1      49.602   5.440  18.313  0.00  0.00    +0.000 A 
ATOM     26  N   UNL     1      49.636   4.369  19.153  0.00  0.00    +0.000 NA
ATOM     27  C   UNL     1      48.808   3.429  18.850  0.00  0.00    +0.000 A 
ATOM     28  N   UNL     1      47.943   3.463  17.788  0.00  0.00    +0.000 N 
ATOM     29  C   UNL     1      47.871   4.523  16.913  0.00  0.00    +0.000 A 
ATOM     30  O   UNL     1      47.093   4.516  15.966  0.00  0.00    +0.000 OA
ATOM     31  C   UNL     1      48.784   5.612  17.208  0.00  0.00    +0.000 A 
ATOM     32  H   UNL     1      47.320   2.690  17.611  0.00  0.00    +0.000 HD
ENDBRANCH  19  22
ENDBRANCH   1  18
BRANCH   1  34
ATOM     33  C   UNL     1      49.246   8.840  11.748  0.00  0.00    +0.000 C 
ATOM     34  C   UNL     1      48.878   7.393  12.053  0.00  0.00    +0.000 C 
ENDBRANCH   1  34
TORSDOF 8
ENDMDL
MODEL 3
REMARK VINA RESULT:    -7.885      2.418      2.942
REMARK INTER + INTRA:         -12.398
REMARK INTER:                 -11.276
REMARK INTRA:                  -1.122
REMARK UNBOUND:                -0.825
REMARK  Name = 
REMARK  9 active torsions:
REMARK  status: ('A' for Active; 'I' for Inactive)
REMARK    1  A    between atoms: C_1  and  C_2
REMARK    2  A    between atoms: C_2  and  C_3
REMARK    3  A    between atoms: C_3  and  N_4
REMARK    4  A    between atoms: C_3  and  C_17
REMARK    5  A    between atoms: C_5  and  C_7
REMARK    6  A    between atoms: C_20  and  C_21
REMARK    7  A    between atoms: C_21  and  N_22
REMARK    8  A    between atoms: N_22  and  C_23
REMARK    9  A    between atoms: C_23  and  C_24
REMARK                            x       y       z     vdW  Elec       q    Type
REMARK                         _______ _______ _______ _____ _____    ______ ____
ROOT
ATOM      1  C   UNL     1      48.274   6.757  14.989  0.00  0.00    +0.000 C 
ENDROOT
BRANCH   1   2
ATOM      2  C   UNL     1      47.493   5.987  13.929  0.00  0.00    +0.000 A 
ATOM      3  C   UNL     1      47.051   4.684  14.213  0.00  0.00    +0.000 A 
ATOM      4  C   UNL     1      46.172   4.016  13.352  0.00  0.00    +0.000 A 
ATOM      5  C   UNL     1      45.711   4.631  12.181  0.00  0.00    +0.000 A 
ATOM      6  C   UNL     1      46.248   5.877  11.833  0.00  0.00    +0.000 A 
ATOM      7  C   UNL     1      47.141   6.538  12.690  0.00  0.00    +0.000 A 
BRANCH   5   8
ATOM      8  C   UNL     1      44.627   3.985  11.345  0.00  0.00    +0.000 C 
BRANCH   8   9
ATOM      9  N   UNL     1      45.103   2.717  10.782  0.00  0.00    +0.000 NA
ATOM     10  H   UNL     1      44.827   1.960  11.410  0.00  0.00    +0.000 HD
BRANCH   9  11
ATOM     11  C   UNL     1      44.568   2.464   9.448  0.00  0.00    +0.000 C 
BRANCH  11  12
ATOM     12  C   UNL     1      45.662   2.420   8.422  0.00  0.00    +0.000 A 
ATOM     13  C   UNL     1      46.349   1.263   8.110  0.00  0.00    +0.000 A 
ATOM     14  N   UNL     1      47.333   1.192   7.190  0.00  0.00    +0.000 NA
ATOM     15  C   UNL     1      47.625   2.342   6.564  0.00  0.00    +0.000 A 
ATOM     16  N   UNL     1      47.025   3.524   6.767  0.00  0.00    +0.000 NA
ATOM     17  C   UNL     1      46.052   3.532   7.701  0.00  0.00    +0.000 A 
ENDBRANCH  11  12
ENDBRANCH   9  11
ENDBRANCH   8   9
ENDBRANCH   5   8
ENDBRANCH   1   2
BRANCH   1  18
ATOM     18  N   UNL     1      49.330   5.932  15.564  0.00  0.00    +0.000 N 
ATOM     19  C   UNL     1      49.218   5.428  16.840  0.00  0.00    +0.000 C 
ATOM     20  O   UNL     1      48.170   5.536  17.476  0.00  0.00    +0.000 OA
ATOM     21  H   UNL     1      50.217   5.890  15.069  0.00  0.00    +0.000 HD
BRANCH  19  22
ATOM     22  C   UNL     1      50.385   4.762  17.439  0.00  0.00    +0.000 A 
ATOM     23  C   UNL     1      51.305   5.531  18.146  0.00  0.00    +0.000 A 
ATOM     24  S   UNL     1      52.609   4.646  18.787  0.00  0.00    +0.000 S 
ATOM     25  C   UNL     1      52.015   3.198  18.124  0.00  0.00    +0.000 A 
ATOM     26  N   UNL     1      52.693   2.031  18.296  0.00  0.00    +0.000 NA
ATOM     27  C   UNL     1      52.149   1.010  17.726  0.00  0.00    +0.000 A 
ATOM     28  N   UNL     1      50.984   1.048  17.006  0.00  0.00    +0.000 N 
ATOM     29  C   UNL     1      50.263   2.204  16.807  0.00  0.00    +0.000 A 
ATOM     30  O   UNL     1      49.230   2.205  16.147  0.00  0.00    +0.000 OA
ATOM     31  C   UNL     1      50.832   3.386  17.428  0.00  0.00    +0.000 A 
ATOM     32  H   UNL     1      50.613   0.209  16.588  0.00  0.00    +0.000 HD
ENDBRANCH  19  22
ENDBRANCH   1  18
BRANCH   1  34
ATOM     33  C   UNL     1      48.230   9.339  15.176  0.00  0.00    +0.000 C 
ATOM     34  C   UNL     1      48.859   8.115  14.520  0.00  0.00    +0.000 C 
ENDBRANCH   1  34
TORSDOF 8
ENDMDL
MODEL 4
REMARK VINA RESULT:    -7.520      1.947      2.515
REMARK INTER + INTRA:         -11.862
REMARK INTER:                 -10.462
REMARK INTRA:                  -1.400
REMARK UNBOUND:                -0.825
REMARK  Name = 
REMARK  9 active torsions:
REMARK  status: ('A' for Active; 'I' for Inactive)
REMARK    1  A    between atoms: C_1  and  C_2
REMARK    2  A    between atoms: C_2  and  C_3
REMARK    3  A    between atoms: C_3  and  N_4
REMARK    4  A    between atoms: C_3  and  C_17
REMARK    5  A    between atoms: C_5  and  C_7
REMARK    6  A    between atoms: C_20  and  C_21
REMARK    7  A    between atoms: C_21  and  N_22
REMARK    8  A    between atoms: N_22  and  C_23
REMARK    9  A    between atoms: C_23  and  C_24
REMARK                            x       y       z     vdW  Elec       q    Type
REMARK                         _______ _______ _______ _____ _____    ______ ____
ROOT
ATOM      1  C   UNL     1      48.356   7.632  13.199  0.00  0.00    +0.000 C 
ENDROOT
BRANCH   1   2
ATOM      2  C   UNL     1      47.431   6.545  12.661  0.00  0.00    +0.000 A 
ATOM      3  C   UNL     1      47.220   5.384  13.422  0.00  0.00    +0.000 A 
ATOM      4  C   UNL     1      46.238   4.453  13.063  0.00  0.00    +0.000 A 
ATOM      5  C   UNL     1      45.440   4.656  11.929  0.00  0.00    +0.000 A 
ATOM      6  C   UNL     1      45.734   5.745  11.100  0.00  0.00    +0.000 A 
ATOM      7  C   UNL     1      46.729   6.669  11.454  0.00  0.00    +0.000 A 
BRANCH   5   8
ATOM      8  C   UNL     1      44.264   3.747  11.641  0.00  0.00    +0.000 C 
BRANCH   8   9
ATOM      9  N   UNL     1      44.714   2.529  10.959  0.00  0.00    +0.000 NA
ATOM     10  H   UNL     1      44.384   1.721  11.490  0.00  0.00    +0.000 HD
BRANCH   9  11
ATOM     11  C   UNL     1      44.224   2.445   9.587  0.00  0.00    +0.000 C 
BRANCH  11  12
ATOM     12  C   UNL     1      45.341   2.612   8.599  0.00  0.00    +0.000 A 
ATOM     13  C   UNL     1      45.629   3.819   7.993  0.00  0.00    +0.000 A 
ATOM     14  N   UNL     1      46.628   4.000   7.105  0.00  0.00    +0.000 NA
ATOM     15  C   UNL     1      47.362   2.912   6.829  0.00  0.00    +0.000 A 
ATOM     16  N   UNL     1      47.192   1.691   7.357  0.00  0.00    +0.000 NA
ATOM     17  C   UNL     1      46.175   1.572   8.236  0.00  0.00    +0.000 A 
ENDBRANCH  11  12
ENDBRANCH   9  11
ENDBRANCH   8   9
ENDBRANCH   5   8
ENDBRANCH   1   2
BRANCH   1  18
ATOM     18  N   UNL     1      49.337   7.074  14.122  0.00  0.00    +0.000 N 
ATOM     19  C   UNL     1      49.499   7.601  15.384  0.00  0.00    +0.000 C 
ATOM     20  O   UNL     1      48.729   8.455  15.819  0.00  0.00    +0.000 OA
ATOM     21  H   UNL     1      50.012   6.412  13.749  0.00  0.00    +0.000 HD
BRANCH  19  22
ATOM     22  C   UNL     1      50.625   7.127  16.205  0.00  0.00    +0.000 A 
ATOM     23  C   UNL     1      51.748   7.940  16.333  0.00  0.00    +0.000 A 
ATOM     24  S   UNL     1      52.979   7.279  17.305  0.00  0.00    +0.000 S 
ATOM     25  C   UNL     1      52.076   5.866  17.574  0.00  0.00    +0.000 A 
ATOM     26  N   UNL     1      52.582   4.857  18.335  0.00  0.00    +0.000 NA
ATOM     27  C   UNL     1      51.808   3.832  18.444  0.00  0.00    +0.000 A 
ATOM     28  N   UNL     1      50.569   3.726  17.868  0.00  0.00    +0.000 N 
ATOM     29  C   UNL     1      50.015   4.719  17.093  0.00  0.00    +0.000 A 
ATOM     30  O   UNL     1      48.908   4.587  16.583  0.00  0.00    +0.000 OA
ATOM     31  C   UNL     1      50.846   5.899  16.936  0.00  0.00    +0.000 A 
ATOM     32  H   UNL     1      50.014   2.894  17.997  0.00  0.00    +0.000 HD
ENDBRANCH  19  22
ENDBRANCH   1  18
BRANCH   1  34
ATOM     33  C   UNL     1      48.490   9.880  11.923  0.00  0.00    +0.000 C 
ATOM     34  C   UNL     1      49.070   8.484  12.118  0.00  0.00    +0.000 C 
ENDBRANCH   1  34
TORSDOF 8
ENDMDL
MODEL 5
REMARK VINA RESULT:    -7.257      2.039      2.875
REMARK INTER + INTRA:         -11.476
REMARK INTER:                 -10.272
REMARK INTRA:                  -1.204
REMARK UNBOUND:                -0.825
REMARK  Name = 
REMARK  9 active torsions:
REMARK  status: ('A' for Active; 'I' for Inactive)
REMARK    1  A    between atoms: C_1  and  C_2
REMARK    2  A    between atoms: C_2  and  C_3
REMARK    3  A    between atoms: C_3  and  N_4
REMARK    4  A    between atoms: C_3  and  C_17
REMARK    5  A    between atoms: C_5  and  C_7
REMARK    6  A    between atoms: C_20  and  C_21
REMARK    7  A    between atoms: C_21  and  N_22
REMARK    8  A    between atoms: N_22  and  C_23
REMARK    9  A    between atoms: C_23  and  C_24
REMARK                            x       y       z     vdW  Elec       q    Type
REMARK                         _______ _______ _______ _____ _____    ______ ____
ROOT
ATOM      1  C   UNL     1      47.000   7.911  13.087  0.00  0.00    +0.000 C 
ENDROOT
BRANCH   1   2
ATOM      2  C   UNL     1      46.053   6.904  12.441  0.00  0.00    +0.000 A 
ATOM      3  C   UNL     1      46.220   6.577  11.085  0.00  0.00    +0.000 A 
ATOM      4  C   UNL     1      45.505   5.524  10.502  0.00  0.00    +0.000 A 
ATOM      5  C   UNL     1      44.600   4.768  11.260  0.00  0.00    +0.000 A 
ATOM      6  C   UNL     1      44.339   5.173  12.575  0.00  0.00    +0.000 A 
ATOM      7  C   UNL     1      45.046   6.238  13.152  0.00  0.00    +0.000 A 
BRANCH   5   8
ATOM      8  C   UNL     1      43.962   3.522  10.682  0.00  0.00    +0.000 C 
BRANCH   8   9
ATOM      9  N   UNL     1      44.359   3.348   9.281  0.00  0.00    +0.000 NA
ATOM     10  H   UNL     1      44.988   4.111   9.026  0.00  0.00    +0.000 HD
BRANCH   9  11
ATOM     11  C   UNL     1      45.021   2.069   9.044  0.00  0.00    +0.000 C 
BRANCH  11  12
ATOM     12  C   UNL     1      45.975   2.155   7.890  0.00  0.00    +0.000 A 
ATOM     13  C   UNL     1      46.904   1.171   7.612  0.00  0.00    +0.000 A 
ATOM     14  N   UNL     1      47.770   1.218   6.579  0.00  0.00    +0.000 NA
ATOM     15  C   UNL     1      47.684   2.307   5.800  0.00  0.00    +0.000 A 
ATOM     16  N   UNL     1      46.821   3.321   5.956  0.00  0.00    +0.000 NA
ATOM     17  C   UNL     1      45.982   3.218   7.008  0.00  0.00    +0.000 A 
ENDBRANCH  11  12
ENDBRANCH   9  11
ENDBRANCH   8   9
ENDBRANCH   5   8
ENDBRANCH   1   2
BRANCH   1  18
ATOM     18  N   UNL     1      47.930   7.248  13.993  0.00  0.00    +0.000 N 
ATOM     19  C   UNL     1      48.357   7.869  15.146  0.00  0.00    +0.000 C 
ATOM     20  O   UNL     1      47.860   8.931  15.516  0.00  0.00    +0.000 OA
ATOM     21  H   UNL     1      48.386   6.401  13.664  0.00  0.00    +0.000 HD
BRANCH  19  22
ATOM     22  C   UNL     1      49.434   7.239  15.927  0.00  0.00    +0.000 A 
ATOM     23  C   UNL     1      49.107   6.595  17.116  0.00  0.00    +0.000 A 
ATOM     24  S   UNL     1      50.438   5.910  17.926  0.00  0.00    +0.000 S 
ATOM     25  C   UNL     1      51.513   6.469  16.735  0.00  0.00    +0.000 A 
ATOM     26  N   UNL     1      52.849   6.228  16.841  0.00  0.00    +0.000 NA
ATOM     27  C   UNL     1      53.557   6.723  15.885  0.00  0.00    +0.000 A 
ATOM     28  N   UNL     1      53.052   7.432  14.827  0.00  0.00    +0.000 N 
ATOM     29  C   UNL     1      51.710   7.700  14.676  0.00  0.00    +0.000 A 
ATOM     30  O   UNL     1      51.292   8.347  13.723  0.00  0.00    +0.000 OA
ATOM     31  C   UNL     1      50.865   7.164  15.727  0.00  0.00    +0.000 A 
ATOM     32  H   UNL     1      53.665   7.790  14.111  0.00  0.00    +0.000 HD
ENDBRANCH  19  22
ENDBRANCH   1  18
BRANCH   1  34
ATOM     33  C   UNL     1      47.525  10.307  12.261  0.00  0.00    +0.000 C 
ATOM     34  C   UNL     1      47.779   8.814  12.095  0.00  0.00    +0.000 C 
ENDBRANCH   1  34
TORSDOF 8
ENDMDL
MODEL 6
REMARK VINA RESULT:    -7.152      3.446      7.612
REMARK INTER + INTRA:         -11.322
REMARK INTER:                 -10.184
REMARK INTRA:                  -1.138
REMARK UNBOUND:                -0.825
REMARK  Name = 
REMARK  9 active torsions:
REMARK  status: ('A' for Active; 'I' for Inactive)
REMARK    1  A    between atoms: C_1  and  C_2
REMARK    2  A    between atoms: C_2  and  C_3
REMARK    3  A    between atoms: C_3  and  N_4
REMARK    4  A    between atoms: C_3  and  C_17
REMARK    5  A    between atoms: C_5  and  C_7
REMARK    6  A    between atoms: C_20  and  C_21
REMARK    7  A    between atoms: C_21  and  N_22
REMARK    8  A    between atoms: N_22  and  C_23
REMARK    9  A    between atoms: C_23  and  C_24
REMARK                            x       y       z     vdW  Elec       q    Type
REMARK                         _______ _______ _______ _____ _____    ______ ____
ROOT
ATOM      1  C   UNL     1      49.250   7.878  12.988  0.00  0.00    +0.000 C 
ENDROOT
BRANCH   1   2
ATOM      2  C   UNL     1      49.422   8.035  14.495  0.00  0.00    +0.000 A 
ATOM      3  C   UNL     1      48.542   8.871  15.203  0.00  0.00    +0.000 A 
ATOM      4  C   UNL     1      48.539   8.896  16.603  0.00  0.00    +0.000 A 
ATOM      5  C   UNL     1      49.418   8.088  17.335  0.00  0.00    +0.000 A 
ATOM      6  C   UNL     1      50.379   7.351  16.633  0.00  0.00    +0.000 A 
ATOM      7  C   UNL     1      50.391   7.339  15.230  0.00  0.00    +0.000 A 
BRANCH   5   8
ATOM      8  C   UNL     1      49.294   7.980  18.840  0.00  0.00    +0.000 C 
BRANCH   8   9
ATOM      9  N   UNL     1      48.230   7.037  19.200  0.00  0.00    +0.000 NA
ATOM     10  H   UNL     1      47.583   6.964  18.413  0.00  0.00    +0.000 HD
BRANCH   9  11
ATOM     11  C   UNL     1      48.747   5.713  19.532  0.00  0.00    +0.000 C 
BRANCH  11  12
ATOM     12  C   UNL     1      48.471   4.730  18.434  0.00  0.00    +0.000 A 
ATOM     13  C   UNL     1      49.454   3.937  17.874  0.00  0.00    +0.000 A 
ATOM     14  N   UNL     1      49.235   3.041  16.890  0.00  0.00    +0.000 NA
ATOM     15  C   UNL     1      47.967   2.948  16.464  0.00  0.00    +0.000 A 
ATOM     16  N   UNL     1      46.924   3.650  16.931  0.00  0.00    +0.000 NA
ATOM     17  C   UNL     1      47.207   4.531  17.913  0.00  0.00    +0.000 A 
ENDBRANCH  11  12
ENDBRANCH   9  11
ENDBRANCH   8   9
ENDBRANCH   5   8
ENDBRANCH   1   2
BRANCH   1  18
ATOM     18  N   UNL     1      47.863   7.586  12.647  0.00  0.00    +0.000 N 
ATOM     19  C   UNL     1      47.341   6.325  12.829  0.00  0.00    +0.000 C 
ATOM     20  O   UNL     1      47.979   5.452  13.416  0.00  0.00    +0.000 OA
ATOM     21  H   UNL     1      47.353   8.282  12.109  0.00  0.00    +0.000 HD
BRANCH  19  22
ATOM     22  C   UNL     1      45.999   6.035  12.297  0.00  0.00    +0.000 A 
ATOM     23  C   UNL     1      45.253   7.079  11.759  0.00  0.00    +0.000 A 
ATOM     24  S   UNL     1      43.721   6.616  11.181  0.00  0.00    +0.000 S 
ATOM     25  C   UNL     1      43.978   5.003  11.651  0.00  0.00    +0.000 A 
ATOM     26  N   UNL     1      43.014   4.063  11.449  0.00  0.00    +0.000 NA
ATOM     27  C   UNL     1      43.323   2.885  11.869  0.00  0.00    +0.000 A 
ATOM     28  N   UNL     1      44.512   2.557  12.467  0.00  0.00    +0.000 N 
ATOM     29  C   UNL     1      45.516   3.471  12.690  0.00  0.00    +0.000 A 
ATOM     30  O   UNL     1      46.563   3.147  13.238  0.00  0.00    +0.000 OA
ATOM     31  C   UNL     1      45.220   4.818  12.236  0.00  0.00    +0.000 A 
ATOM     32  H   UNL     1      44.688   1.612  12.770  0.00  0.00    +0.000 HD
ENDBRANCH  19  22
ENDBRANCH   1  18
BRANCH   1  34
ATOM     33  C   UNL     1      48.671   9.914  11.498  0.00  0.00    +0.000 C 
ATOM     34  C   UNL     1      49.766   9.068  12.138  0.00  0.00    +0.000 C 
ENDBRANCH   1  34
TORSDOF 8
ENDMDL
MODEL 7
REMARK VINA RESULT:    -7.109      2.551      7.769
REMARK INTER + INTRA:         -11.258
REMARK INTER:                 -10.132
REMARK INTRA:                  -1.126
REMARK UNBOUND:                -0.825
REMARK  Name = 
REMARK  9 active torsions:
REMARK  status: ('A' for Active; 'I' for Inactive)
REMARK    1  A    between atoms: C_1  and  C_2
REMARK    2  A    between atoms: C_2  and  C_3
REMARK    3  A    between atoms: C_3  and  N_4
REMARK    4  A    between atoms: C_3  and  C_17
REMARK    5  A    between atoms: C_5  and  C_7
REMARK    6  A    between atoms: C_20  and  C_21
REMARK    7  A    between atoms: C_21  and  N_22
REMARK    8  A    between atoms: N_22  and  C_23
REMARK    9  A    between atoms: C_23  and  C_24
REMARK                            x       y       z     vdW  Elec       q    Type
REMARK                         _______ _______ _______ _____ _____    ______ ____
ROOT
ATOM      1  C   UNL     1      47.977   8.166  12.268  0.00  0.00    +0.000 C 
ENDROOT
BRANCH   1   2
ATOM      2  C   UNL     1      48.379   8.075  13.737  0.00  0.00    +0.000 A 
ATOM      3  C   UNL     1      48.063   9.135  14.603  0.00  0.00    +0.000 A 
ATOM      4  C   UNL     1      48.238   9.014  15.987  0.00  0.00    +0.000 A 
ATOM      5  C   UNL     1      48.737   7.830  16.544  0.00  0.00    +0.000 A 
ATOM      6  C   UNL     1      49.171   6.821  15.675  0.00  0.00    +0.000 A 
ATOM      7  C   UNL     1      49.008   6.950  14.288  0.00  0.00    +0.000 A 
BRANCH   5   8
ATOM      8  C   UNL     1      48.758   7.633  18.045  0.00  0.00    +0.000 C 
BRANCH   8   9
ATOM      9  N   UNL     1      47.486   7.066  18.505  0.00  0.00    +0.000 NA
ATOM     10  H   UNL     1      46.898   6.889  17.689  0.00  0.00    +0.000 HD
BRANCH   9  11
ATOM     11  C   UNL     1      47.667   5.827  19.255  0.00  0.00    +0.000 C 
BRANCH  11  12
ATOM     12  C   UNL     1      47.961   4.675  18.341  0.00  0.00    +0.000 A 
ATOM     13  C   UNL     1      49.104   3.906  18.450  0.00  0.00    +0.000 A 
ATOM     14  N   UNL     1      49.392   2.862  17.646  0.00  0.00    +0.000 NA
ATOM     15  C   UNL     1      48.481   2.590  16.700  0.00  0.00    +0.000 A 
ATOM     16  N   UNL     1      47.332   3.251  16.499  0.00  0.00    +0.000 NA
ATOM     17  C   UNL     1      47.101   4.287  17.333  0.00  0.00    +0.000 A 
ENDBRANCH  11  12
ENDBRANCH   9  11
ENDBRANCH   8   9
ENDBRANCH   5   8
ENDBRANCH   1   2
BRANCH   1  18
ATOM     18  N   UNL     1      47.179   7.012  11.872  0.00  0.00    +0.000 N 
ATOM     19  C   UNL     1      45.868   6.887  12.275  0.00  0.00    +0.000 C 
ATOM     20  O   UNL     1      45.291   7.806  12.855  0.00  0.00    +0.000 OA
ATOM     21  H   UNL     1      47.665   6.227  11.446  0.00  0.00    +0.000 HD
BRANCH  19  22
ATOM     22  C   UNL     1      45.167   5.621  12.007  0.00  0.00    +0.000 A 
ATOM     23  C   UNL     1      44.494   4.995  13.053  0.00  0.00    +0.000 A 
ATOM     24  S   UNL     1      43.727   3.540  12.616  0.00  0.00    +0.000 S 
ATOM     25  C   UNL     1      44.283   3.670  11.016  0.00  0.00    +0.000 A 
ATOM     26  N   UNL     1      43.984   2.708  10.100  0.00  0.00    +0.000 NA
ATOM     27  C   UNL     1      44.483   2.914   8.930  0.00  0.00    +0.000 A 
ATOM     28  N   UNL     1      45.251   3.997   8.588  0.00  0.00    +0.000 N 
ATOM     29  C   UNL     1      45.578   4.994   9.478  0.00  0.00    +0.000 A 
ATOM     30  O   UNL     1      46.276   5.944   9.143  0.00  0.00    +0.000 OA
ATOM     31  C   UNL     1      45.041   4.812  10.814  0.00  0.00    +0.000 A 
ATOM     32  H   UNL     1      45.608   4.095   7.650  0.00  0.00    +0.000 HD
ENDBRANCH  19  22
ENDBRANCH   1  18
BRANCH   1  34
ATOM     33  C   UNL     1      48.169  10.570  11.327  0.00  0.00    +0.000 C 
ATOM     34  C   UNL     1      47.253   9.476  11.864  0.00  0.00    +0.000 C 
ENDBRANCH   1  34
TORSDOF 8
ENDMDL
MODEL 8
REMARK VINA RESULT:    -7.026      3.613      7.903
REMARK INTER + INTRA:         -11.137
REMARK INTER:                  -9.102
REMARK INTRA:                  -2.035
REMARK UNBOUND:                -0.825
REMARK  Name = 
REMARK  9 active torsions:
REMARK  status: ('A' for Active; 'I' for Inactive)
REMARK    1  A    between atoms: C_1  and  C_2
REMARK    2  A    between atoms: C_2  and  C_3
REMARK    3  A    between atoms: C_3  and  N_4
REMARK    4  A    between atoms: C_3  and  C_17
REMARK    5  A    between atoms: C_5  and  C_7
REMARK    6  A    between atoms: C_20  and  C_21
REMARK    7  A    between atoms: C_21  and  N_22
REMARK    8  A    between atoms: N_22  and  C_23
REMARK    9  A    between atoms: C_23  and  C_24
REMARK                            x       y       z     vdW  Elec       q    Type
REMARK                         _______ _______ _______ _____ _____    ______ ____
ROOT
ATOM      1  C   UNL     1      48.668   8.259  14.328  0.00  0.00    +0.000 C 
ENDROOT
BRANCH   1   2
ATOM      2  C   UNL     1      49.209   8.037  15.737  0.00  0.00    +0.000 A 
ATOM      3  C   UNL     1      48.456   8.476  16.839  0.00  0.00    +0.000 A 
ATOM      4  C   UNL     1      48.817   8.126  18.146  0.00  0.00    +0.000 A 
ATOM      5  C   UNL     1      49.943   7.328  18.388  0.00  0.00    +0.000 A 
ATOM      6  C   UNL     1      50.765   6.997  17.303  0.00  0.00    +0.000 A 
ATOM      7  C   UNL     1      50.410   7.362  15.996  0.00  0.00    +0.000 A 
BRANCH   5   8
ATOM      8  C   UNL     1      50.231   6.802  19.779  0.00  0.00    +0.000 C 
BRANCH   8   9
ATOM      9  N   UNL     1      50.258   5.336  19.775  0.00  0.00    +0.000 NA
ATOM     10  H   UNL     1      50.781   5.020  20.594  0.00  0.00    +0.000 HD
BRANCH   9  11
ATOM     11  C   UNL     1      48.919   4.755  19.796  0.00  0.00    +0.000 C 
BRANCH  11  12
ATOM     12  C   UNL     1      48.581   4.117  18.482  0.00  0.00    +0.000 A 
ATOM     13  C   UNL     1      49.434   3.245  17.832  0.00  0.00    +0.000 A 
ATOM     14  N   UNL     1      49.156   2.653  16.652  0.00  0.00    +0.000 NA
ATOM     15  C   UNL     1      47.964   2.958  16.117  0.00  0.00    +0.000 A 
ATOM     16  N   UNL     1      47.047   3.777  16.652  0.00  0.00    +0.000 NA
ATOM     17  C   UNL     1      47.384   4.341  17.831  0.00  0.00    +0.000 A 
ENDBRANCH  11  12
ENDBRANCH   9  11
ENDBRANCH   8   9
ENDBRANCH   5   8
ENDBRANCH   1   2
BRANCH   1  18
ATOM     18  N   UNL     1      47.528   7.390  14.063  0.00  0.00    +0.000 N 
ATOM     19  C   UNL     1      47.672   6.244  13.314  0.00  0.00    +0.000 C 
ATOM     20  O   UNL     1      48.784   5.845  12.971  0.00  0.00    +0.000 OA
ATOM     21  H   UNL     1      46.603   7.744  14.292  0.00  0.00    +0.000 HD
BRANCH  19  22
ATOM     22  C   UNL     1      46.462   5.504  12.919  0.00  0.00    +0.000 A 
ATOM     23  C   UNL     1      46.435   4.124  13.097  0.00  0.00    +0.000 A 
ATOM     24  S   UNL     1      44.984   3.386  12.601  0.00  0.00    +0.000 S 
ATOM     25  C   UNL     1      44.340   4.876  12.100  0.00  0.00    +0.000 A 
ATOM     26  N   UNL     1      43.097   4.941  11.548  0.00  0.00    +0.000 NA
ATOM     27  C   UNL     1      42.735   6.126  11.191  0.00  0.00    +0.000 A 
ATOM     28  N   UNL     1      43.498   7.254  11.341  0.00  0.00    +0.000 N 
ATOM     29  C   UNL     1      44.759   7.238  11.894  0.00  0.00    +0.000 A 
ATOM     30  O   UNL     1      45.420   8.264  12.003  0.00  0.00    +0.000 OA
ATOM     31  C   UNL     1      45.218   5.926  12.314  0.00  0.00    +0.000 A 
ATOM     32  H   UNL     1      43.150   8.151  11.040  0.00  0.00    +0.000 HD
ENDBRANCH  19  22
ENDBRANCH   1  18
BRANCH   1  34
ATOM     33  C   UNL     1      49.460  10.715  14.121  0.00  0.00    +0.000 C 
ATOM     34  C   UNL     1      48.307   9.727  13.985  0.00  0.00    +0.000 C 
ENDBRANCH   1  34
TORSDOF 8
ENDMDL
MODEL 9
REMARK VINA RESULT:    -6.927      3.167      4.112
REMARK INTER + INTRA:         -10.992
REMARK INTER:                  -9.502
REMARK INTRA:                  -1.489
REMARK UNBOUND:                -0.825
REMARK  Name = 
REMARK  9 active torsions:
REMARK  status: ('A' for Active; 'I' for Inactive)
REMARK    1  A    between atoms: C_1  and  C_2
REMARK    2  A    between atoms: C_2  and  C_3
REMARK    3  A    between atoms: C_3  and  N_4
REMARK    4  A    between atoms: C_3  and  C_17
REMARK    5  A    between atoms: C_5  and  C_7
REMARK    6  A    between atoms: C_20  and  C_21
REMARK    7  A    between atoms: C_21  and  N_22
REMARK    8  A    between atoms: N_22  and  C_23
REMARK    9  A    between atoms: C_23  and  C_24
REMARK                            x       y       z     vdW  Elec       q    Type
REMARK                         _______ _______ _______ _____ _____    ______ ____
ROOT
ATOM      1  C   UNL     1      46.425   8.735  12.816  0.00  0.00    +0.000 C 
ENDROOT
BRANCH   1   2
ATOM      2  C   UNL     1      45.828   7.442  12.270  0.00  0.00    +0.000 A 
ATOM      3  C   UNL     1      46.362   6.211  12.683  0.00  0.00    +0.000 A 
ATOM      4  C   UNL     1      45.729   5.004  12.362  0.00  0.00    +0.000 A 
ATOM      5  C   UNL     1      44.542   4.995  11.617  0.00  0.00    +0.000 A 
ATOM      6  C   UNL     1      44.078   6.211  11.098  0.00  0.00    +0.000 A 
ATOM      7  C   UNL     1      44.723   7.417  11.408  0.00  0.00    +0.000 A 
BRANCH   5   8
ATOM      8  C   UNL     1      43.763   3.712  11.423  0.00  0.00    +0.000 C 
BRANCH   8   9
ATOM      9  N   UNL     1      43.706   3.358  10.001  0.00  0.00    +0.000 NA
ATOM     10  H   UNL     1      44.045   4.153   9.457  0.00  0.00    +0.000 HD
BRANCH   9  11
ATOM     11  C   UNL     1      44.505   2.176   9.689  0.00  0.00    +0.000 C 
BRANCH  11  12
ATOM     12  C   UNL     1      45.486   2.457   8.590  0.00  0.00    +0.000 A 
ATOM     13  C   UNL     1      46.334   1.493   8.080  0.00  0.00    +0.000 A 
ATOM     14  N   UNL     1      47.223   1.715   7.089  0.00  0.00    +0.000 NA
ATOM     15  C   UNL     1      47.246   2.963   6.600  0.00  0.00    +0.000 A 
ATOM     16  N   UNL     1      46.469   3.981   7.000  0.00  0.00    +0.000 NA
ATOM     17  C   UNL     1      45.603   3.698   7.995  0.00  0.00    +0.000 A 
ENDBRANCH  11  12
ENDBRANCH   9  11
ENDBRANCH   8   9
ENDBRANCH   5   8
ENDBRANCH   1   2
BRANCH   1  18
ATOM     18  N   UNL     1      47.882   8.704  12.758  0.00  0.00    +0.000 N 
ATOM     19  C   UNL     1      48.636   8.722  13.910  0.00  0.00    +0.000 C 
ATOM     20  O   UNL     1      48.108   8.619  15.017  0.00  0.00    +0.000 OA
ATOM     21  H   UNL     1      48.320   8.849  11.853  0.00  0.00    +0.000 HD
BRANCH  19  22
ATOM     22  C   UNL     1      50.095   8.878  13.795  0.00  0.00    +0.000 A 
ATOM     23  C   UNL     1      50.776   9.560  14.799  0.00  0.00    +0.000 A 
ATOM     24  S   UNL     1      52.455   9.674  14.549  0.00  0.00    +0.000 S 
ATOM     25  C   UNL     1      52.341   8.841  13.073  0.00  0.00    +0.000 A 
ATOM     26  N   UNL     1      53.453   8.612  12.320  0.00  0.00    +0.000 NA
ATOM     27  C   UNL     1      53.228   7.990  11.214  0.00  0.00    +0.000 A 
ATOM     28  N   UNL     1      51.994   7.568  10.793  0.00  0.00    +0.000 N 
ATOM     29  C   UNL     1      50.843   7.775  11.519  0.00  0.00    +0.000 A 
ATOM     30  O   UNL     1      49.753   7.394  11.107  0.00  0.00    +0.000 OA
ATOM     31  C   UNL     1      51.039   8.473  12.776  0.00  0.00    +0.000 A 
ATOM     32  H   UNL     1      51.892   7.084   9.914  0.00  0.00    +0.000 HD
ENDBRANCH  19  22
ENDBRANCH   1  18
BRANCH   1  34
ATOM     33  C   UNL     1      46.967  10.893  11.492  0.00  0.00    +0.000 C 
ATOM     34  C   UNL     1      45.896  10.036  12.157  0.00  0.00    +0.000 C 
ENDBRANCH   1  34
TORSDOF 8
ENDMDL
