MODEL 1
REMARK VINA RESULT:    -8.320      0.000      0.000
REMARK INTER + INTRA:         -13.082
REMARK INTER:                 -11.968
REMARK INTRA:                  -1.115
REMARK UNBOUND:                -1.115
REMARK  Name = 
REMARK  8 active torsions:
REMARK  status: ('A' for Active; 'I' for Inactive)
REMARK    1  A    between atoms: C_2  and  C_21
REMARK    2  A    between atoms: N_3  and  C_4
REMARK    3  A    between atoms: C_4  and  C_5
REMARK    4  A    between atoms: C_8  and  C_9
REMARK    5  A    between atoms: C_9  and  C_10
REMARK    6  A    between atoms: C_10  and  C_11
REMARK    7  A    between atoms: C_11  and  O_12
REMARK    8  A    between atoms: C_11  and  C_13
REMARK                            x       y       z     vdW  Elec       q    Type
REMARK                         _______ _______ _______ _____ _____    ______ ____
ROOT
ATOM      1  C   UNL     1      46.636   6.431  12.890  0.00  0.00    +0.000 A 
ATOM      2  C   UNL     1      46.713   5.081  13.251  0.00  0.00    +0.000 A 
ATOM      3  C   UNL     1      45.796   4.153  12.747  0.00  0.00    +0.000 A 
ATOM      4  C   UNL     1      44.778   4.555  11.875  0.00  0.00    +0.000 A 
ATOM      5  C   UNL     1      44.739   5.900  11.474  0.00  0.00    +0.000 A 
ATOM      6  C   UNL     1      45.660   6.826  11.971  0.00  0.00    +0.000 A 
ENDROOT
BRANCH   1   7
ATOM      7  C   UNL     1      47.586   7.432  13.489  0.00  0.00    +0.000 C 
BRANCH   7  10
ATOM      8  O   UNL     1      50.098   7.053  14.549  0.00  0.00    +0.000 OA
ATOM      9  C   UNL     1      49.143   7.060  15.323  0.00  0.00    +0.000 C 
ATOM     10  N   UNL     1      47.847   7.176  14.880  0.00  0.00    +0.000 N 
ATOM     11  H   UNL     1      47.114   7.414  15.541  0.00  0.00    +0.000 HD
BRANCH   9  12
ATOM     12  C   UNL     1      49.332   6.907  16.766  0.00  0.00    +0.000 A 
ATOM     13  C   UNL     1      49.873   7.942  17.511  0.00  0.00    +0.000 A 
ATOM     14  S   UNL     1      50.002   7.587  19.175  0.00  0.00    +0.000 S 
ATOM     15  C   UNL     1      49.298   6.054  18.957  0.00  0.00    +0.000 A 
ATOM     16  N   UNL     1      49.071   5.229  20.016  0.00  0.00    +0.000 NA
ATOM     17  C   UNL     1      48.491   4.117  19.707  0.00  0.00    +0.000 A 
ATOM     18  N   UNL     1      48.133   3.745  18.437  0.00  0.00    +0.000 N 
ATOM     19  C   UNL     1      48.387   4.522  17.332  0.00  0.00    +0.000 A 
ATOM     20  O   UNL     1      48.124   4.126  16.205  0.00  0.00    +0.000 OA
ATOM     21  C   UNL     1      49.001   5.802  17.631  0.00  0.00    +0.000 A 
ATOM     22  H   UNL     1      47.706   2.849  18.261  0.00  0.00    +0.000 HD
ENDBRANCH   9  12
ENDBRANCH   7  10
ENDBRANCH   1   7
BRANCH   4  23
ATOM     23  C   UNL     1      43.778   3.588  11.287  0.00  0.00    +0.000 C 
BRANCH  23  24
ATOM     24  C   UNL     1      44.189   2.826  10.019  0.00  0.00    +0.000 C 
BRANCH  24  25
ATOM     25  C   UNL     1      45.019   3.638   9.008  0.00  0.00    +0.000 C 
BRANCH  25  26
ATOM     26  C   UNL     1      45.939   2.795   8.157  0.00  0.00    +0.000 A 
ATOM     27  C   UNL     1      46.782   3.413   7.226  0.00  0.00    +0.000 A 
ATOM     28  C   UNL     1      47.693   2.636   6.530  0.00  0.00    +0.000 A 
ATOM     29  N   UNL     1      47.812   1.301   6.679  0.00  0.00    +0.000 NA
ATOM     30  C   UNL     1      46.966   0.716   7.553  0.00  0.00    +0.000 A 
ATOM     31  C   UNL     1      46.025   1.407   8.301  0.00  0.00    +0.000 A 
ENDBRANCH  25  26
BRANCH  25  32
ATOM     32  O   UNL     1      44.139   4.374   8.156  0.00  0.00    +0.000 OA
ATOM     33  H   UNL     1      44.674   4.976   7.616  0.00  0.00    +0.000 HD
ENDBRANCH  25  32
ENDBRANCH  24  25
ENDBRANCH  23  24
ENDBRANCH   4  23
TORSDOF 8
ENDMDL
MODEL 2
REMARK VINA RESULT:    -8.241      1.789      2.498
REMARK INTER + INTRA:         -12.969
REMARK INTER:                 -11.872
REMARK INTRA:                  -1.097
REMARK UNBOUND:                -1.115
REMARK  Name = 
REMARK  8 active torsions:
REMARK  status: ('A' for Active; 'I' for Inactive)
REMARK    1  A    between atoms: C_2  and  C_21
REMARK    2  A    between atoms: N_3  and  C_4
REMARK    3  A    between atoms: C_4  and  C_5
REMARK    4  A    between atoms: C_8  and  C_9
REMARK    5  A    between atoms: C_9  and  C_10
REMARK    6  A    between atoms: C_10  and  C_11
REMARK    7  A    between atoms: C_11  and  O_12
REMARK    8  A    between atoms: C_11  and  C_13
REMARK                            x       y       z     vdW  Elec       q    Type
REMARK                         _______ _______ _______ _____ _____    ______ ____
ROOT
ATOM      1  C   UNL     1      47.133   6.182  13.168  0.00  0.00    +0.000 A 
ATOM      2  C   UNL     1      46.967   6.719  11.885  0.00  0.00    +0.000 A 
ATOM      3  C   UNL     1      45.955   6.253  11.041  0.00  0.00    +0.000 A 
ATOM      4  C   UNL     1      45.090   5.234  11.456  0.00  0.00    +0.000 A 
ATOM      5  C   UNL     1      45.227   4.736  12.762  0.00  0.00    +0.000 A 
ATOM      6  C   UNL     1      46.233   5.209  13.610  0.00  0.00    +0.000 A 
ENDROOT
BRANCH   1   7
ATOM      7  C   UNL     1      48.264   6.645  14.043  0.00  0.00    +0.000 C 
BRANCH   7  10
ATOM      8  O   UNL     1      50.296   6.317  15.872  0.00  0.00    +0.000 OA
ATOM      9  C   UNL     1      49.139   6.224  16.275  0.00  0.00    +0.000 C 
ATOM     10  N   UNL     1      48.062   6.307  15.427  0.00  0.00    +0.000 N 
ATOM     11  H   UNL     1      47.135   6.464  15.812  0.00  0.00    +0.000 HD
BRANCH   9  12
ATOM     12  C   UNL     1      48.844   5.981  17.688  0.00  0.00    +0.000 A 
ATOM     13  C   UNL     1      49.130   4.750  18.257  0.00  0.00    +0.000 A 
ATOM     14  S   UNL     1      48.732   4.658  19.914  0.00  0.00    +0.000 S 
ATOM     15  C   UNL     1      48.205   6.276  19.932  0.00  0.00    +0.000 A 
ATOM     16  N   UNL     1      47.768   6.860  21.082  0.00  0.00    +0.000 NA
ATOM     17  C   UNL     1      47.442   8.102  20.956  0.00  0.00    +0.000 A 
ATOM     18  N   UNL     1      47.496   8.812  19.783  0.00  0.00    +0.000 N 
ATOM     19  C   UNL     1      47.882   8.253  18.589  0.00  0.00    +0.000 A 
ATOM     20  O   UNL     1      47.844   8.894  17.548  0.00  0.00    +0.000 OA
ATOM     21  C   UNL     1      48.298   6.867  18.686  0.00  0.00    +0.000 A 
ATOM     22  H   UNL     1      47.201   9.775  19.749  0.00  0.00    +0.000 HD
ENDBRANCH   9  12
ENDBRANCH   7  10
ENDBRANCH   1   7
BRANCH   4  23
ATOM     23  C   UNL     1      43.970   4.710  10.588  0.00  0.00    +0.000 C 
BRANCH  23  24
ATOM     24  C   UNL     1      44.331   4.246   9.169  0.00  0.00    +0.000 C 
BRANCH  24  25
ATOM     25  C   UNL     1      44.537   2.729   9.010  0.00  0.00    +0.000 C 
BRANCH  25  26
ATOM     26  C   UNL     1      45.781   2.359   8.238  0.00  0.00    +0.000 A 
ATOM     27  C   UNL     1      46.164   1.016   8.142  0.00  0.00    +0.000 A 
ATOM     28  C   UNL     1      47.246   0.685   7.343  0.00  0.00    +0.000 A 
ATOM     29  N   UNL     1      47.976   1.586   6.654  0.00  0.00    +0.000 NA
ATOM     30  C   UNL     1      47.617   2.880   6.787  0.00  0.00    +0.000 A 
ATOM     31  C   UNL     1      46.546   3.311   7.557  0.00  0.00    +0.000 A 
ENDBRANCH  25  26
BRANCH  25  32
ATOM     32  O   UNL     1      44.592   2.120  10.301  0.00  0.00    +0.000 OA
ATOM     33  H   UNL     1      44.245   1.218  10.226  0.00  0.00    +0.000 HD
ENDBRANCH  25  32
ENDBRANCH  24  25
ENDBRANCH  23  24
ENDBRANCH   4  23
TORSDOF 8
ENDMDL
MODEL 3
REMARK VINA RESULT:    -7.947      1.905      3.064
REMARK INTER + INTRA:         -12.546
REMARK INTER:                 -11.412
REMARK INTRA:                  -1.134
REMARK UNBOUND:                -1.115
REMARK  Name = 
REMARK  8 active torsions:
REMARK  status: ('A' for Active; 'I' for Inactive)
REMARK    1  A    between atoms: C_2  and  C_21
REMARK    2  A    between atoms: N_3  and  C_4
REMARK    3  A    between atoms: C_4  and  C_5
REMARK    4  A    between atoms: C_8  and  C_9
REMARK    5  A    between atoms: C_9  and  C_10
REMARK    6  A    between atoms: C_10  and  C_11
REMARK    7  A    between atoms: C_11  and  O_12
REMARK    8  A    between atoms: C_11  and  C_13
REMARK                            x       y       z     vdW  Elec       q    Type
REMARK                         _______ _______ _______ _____ _____    ______ ____
ROOT
ATOM      1  C   UNL     1      46.878   4.374  14.275  0.00  0.00    +0.000 A 
ATOM      2  C   UNL     1      46.758   5.711  13.878  0.00  0.00    +0.000 A 
ATOM      3  C   UNL     1      46.118   6.045  12.680  0.00  0.00    +0.000 A 
ATOM      4  C   UNL     1      45.589   5.051  11.850  0.00  0.00    +0.000 A 
ATOM      5  C   UNL     1      45.664   3.716  12.279  0.00  0.00    +0.000 A 
ATOM      6  C   UNL     1      46.296   3.382  13.480  0.00  0.00    +0.000 A 
ENDROOT
BRANCH   1   7
ATOM      7  C   UNL     1      47.625   4.020  15.532  0.00  0.00    +0.000 C 
BRANCH   7  10
ATOM      8  O   UNL     1      49.716   5.523  16.505  0.00  0.00    +0.000 OA
ATOM      9  C   UNL     1      48.587   5.766  16.928  0.00  0.00    +0.000 C 
ATOM     10  N   UNL     1      47.493   5.026  16.551  0.00  0.00    +0.000 N 
ATOM     11  H   UNL     1      46.561   5.391  16.724  0.00  0.00    +0.000 HD
BRANCH   9  12
ATOM     12  C   UNL     1      48.352   6.841  17.892  0.00  0.00    +0.000 A 
ATOM     13  C   UNL     1      48.284   6.559  19.247  0.00  0.00    +0.000 A 
ATOM     14  S   UNL     1      48.020   7.938  20.217  0.00  0.00    +0.000 S 
ATOM     15  C   UNL     1      48.031   8.962  18.858  0.00  0.00    +0.000 A 
ATOM     16  N   UNL     1      47.899  10.310  18.993  0.00  0.00    +0.000 NA
ATOM     17  C   UNL     1      47.970  10.964  17.882  0.00  0.00    +0.000 A 
ATOM     18  N   UNL     1      48.144  10.395  16.647  0.00  0.00    +0.000 N 
ATOM     19  C   UNL     1      48.232   9.038  16.455  0.00  0.00    +0.000 A 
ATOM     20  O   UNL     1      48.309   8.559  15.332  0.00  0.00    +0.000 OA
ATOM     21  C   UNL     1      48.198   8.259  17.679  0.00  0.00    +0.000 A 
ATOM     22  H   UNL     1      48.164  10.963  15.815  0.00  0.00    +0.000 HD
ENDBRANCH   9  12
ENDBRANCH   7  10
ENDBRANCH   1   7
BRANCH   4  23
ATOM     23  C   UNL     1      44.871   5.363  10.558  0.00  0.00    +0.000 C 
BRANCH  23  24
ATOM     24  C   UNL     1      45.592   5.019   9.246  0.00  0.00    +0.000 C 
BRANCH  24  25
ATOM     25  C   UNL     1      44.923   3.922   8.399  0.00  0.00    +0.000 C 
BRANCH  25  26
ATOM     26  C   UNL     1      45.897   2.948   7.781  0.00  0.00    +0.000 A 
ATOM     27  C   UNL     1      46.791   3.390   6.799  0.00  0.00    +0.000 A 
ATOM     28  C   UNL     1      47.747   2.509   6.320  0.00  0.00    +0.000 A 
ATOM     29  N   UNL     1      47.865   1.230   6.732  0.00  0.00    +0.000 NA
ATOM     30  C   UNL     1      46.972   0.809   7.652  0.00  0.00    +0.000 A 
ATOM     31  C   UNL     1      45.983   1.615   8.197  0.00  0.00    +0.000 A 
ENDBRANCH  25  26
BRANCH  25  32
ATOM     32  O   UNL     1      43.992   3.200   9.209  0.00  0.00    +0.000 OA
ATOM     33  H   UNL     1      43.963   3.618  10.083  0.00  0.00    +0.000 HD
ENDBRANCH  25  32
ENDBRANCH  24  25
ENDBRANCH  23  24
ENDBRANCH   4  23
TORSDOF 8
ENDMDL
MODEL 4
REMARK VINA RESULT:    -7.651      2.795      3.469
REMARK INTER + INTRA:         -12.120
REMARK INTER:                 -10.924
REMARK INTRA:                  -1.196
REMARK UNBOUND:                -1.115
REMARK  Name = 
REMARK  8 active torsions:
REMARK  status: ('A' for Active; 'I' for Inactive)
REMARK    1  A    between atoms: C_2  and  C_21
REMARK    2  A    between atoms: N_3  and  C_4
REMARK    3  A    between atoms: C_4  and  C_5
REMARK    4  A    between atoms: C_8  and  C_9
REMARK    5  A    between atoms: C_9  and  C_10
REMARK    6  A    between atoms: C_10  and  C_11
REMARK    7  A    between atoms: C_11  and  O_12
REMARK    8  A    between atoms: C_11  and  C_13
REMARK                            x       y       z     vdW  Elec       q    Type
REMARK                         _______ _______ _______ _____ _____    ______ ____
ROOT
ATOM      1  C   UNL     1      48.249   6.096  15.242  0.00  0.00    +0.000 A 
ATOM      2  C   UNL     1      48.063   6.561  13.934  0.00  0.00    +0.000 A 
ATOM      3  C   UNL     1      47.230   5.877  13.044  0.00  0.00    +0.000 A 
ATOM      4  C   UNL     1      46.568   4.709  13.438  0.00  0.00    +0.000 A 
ATOM      5  C   UNL     1      46.715   4.277  14.766  0.00  0.00    +0.000 A 
ATOM      6  C   UNL     1      47.541   4.965  15.659  0.00  0.00    +0.000 A 
ENDROOT
BRANCH   1   7
ATOM      7  C   UNL     1      49.197   6.803  16.171  0.00  0.00    +0.000 C 
BRANCH   7  10
ATOM      8  O   UNL     1      49.707   6.074  18.777  0.00  0.00    +0.000 OA
ATOM      9  C   UNL     1      50.429   5.608  17.897  0.00  0.00    +0.000 C 
ATOM     10  N   UNL     1      50.293   5.965  16.578  0.00  0.00    +0.000 N 
ATOM     11  H   UNL     1      50.734   5.396  15.860  0.00  0.00    +0.000 HD
BRANCH   9  12
ATOM     12  C   UNL     1      51.505   4.669  18.216  0.00  0.00    +0.000 A 
ATOM     13  C   UNL     1      52.609   5.094  18.937  0.00  0.00    +0.000 A 
ATOM     14  S   UNL     1      53.750   3.858  19.226  0.00  0.00    +0.000 S 
ATOM     15  C   UNL     1      52.781   2.706  18.434  0.00  0.00    +0.000 A 
ATOM     16  N   UNL     1      53.161   1.401  18.359  0.00  0.00    +0.000 NA
ATOM     17  C   UNL     1      52.309   0.632  17.768  0.00  0.00    +0.000 A 
ATOM     18  N   UNL     1      51.119   1.050  17.229  0.00  0.00    +0.000 N 
ATOM     19  C   UNL     1      50.716   2.363  17.236  0.00  0.00    +0.000 A 
ATOM     20  O   UNL     1      49.685   2.713  16.678  0.00  0.00    +0.000 OA
ATOM     21  C   UNL     1      51.622   3.262  17.925  0.00  0.00    +0.000 A 
ATOM     22  H   UNL     1      50.509   0.400  16.756  0.00  0.00    +0.000 HD
ENDBRANCH   9  12
ENDBRANCH   7  10
ENDBRANCH   1   7
BRANCH   4  23
ATOM     23  C   UNL     1      45.643   3.946  12.520  0.00  0.00    +0.000 C 
BRANCH  23  24
ATOM     24  C   UNL     1      44.488   4.725  11.872  0.00  0.00    +0.000 C 
BRANCH  24  25
ATOM     25  C   UNL     1      43.724   3.967  10.772  0.00  0.00    +0.000 C 
BRANCH  25  26
ATOM     26  C   UNL     1      44.603   3.473   9.648  0.00  0.00    +0.000 A 
ATOM     27  C   UNL     1      45.280   4.395   8.840  0.00  0.00    +0.000 A 
ATOM     28  C   UNL     1      46.163   3.923   7.883  0.00  0.00    +0.000 A 
ATOM     29  N   UNL     1      46.406   2.614   7.663  0.00  0.00    +0.000 NA
ATOM     30  C   UNL     1      45.718   1.739   8.425  0.00  0.00    +0.000 A 
ATOM     31  C   UNL     1      44.818   2.111   9.412  0.00  0.00    +0.000 A 
ENDBRANCH  25  26
BRANCH  25  32
ATOM     32  O   UNL     1      43.039   2.854  11.351  0.00  0.00    +0.000 OA
ATOM     33  H   UNL     1      42.909   3.036  12.294  0.00  0.00    +0.000 HD
ENDBRANCH  25  32
ENDBRANCH  24  25
ENDBRANCH  23  24
ENDBRANCH   4  23
TORSDOF 8
ENDMDL
MODEL 5
REMARK VINA RESULT:    -7.561      3.793      8.433
REMARK INTER + INTRA:         -11.991
REMARK INTER:                 -10.128
REMARK INTRA:                  -1.863
REMARK UNBOUND:                -1.115
REMARK  Name = 
REMARK  8 active torsions:
REMARK  status: ('A' for Active; 'I' for Inactive)
REMARK    1  A    between atoms: C_2  and  C_21
REMARK    2  A    between atoms: N_3  and  C_4
REMARK    3  A    between atoms: C_4  and  C_5
REMARK    4  A    between atoms: C_8  and  C_9
REMARK    5  A    between atoms: C_9  and  C_10
REMARK    6  A    between atoms: C_10  and  C_11
REMARK    7  A    between atoms: C_11  and  O_12
REMARK    8  A    between atoms: C_11  and  C_13
REMARK                            x       y       z     vdW  Elec       q    Type
REMARK                         _______ _______ _______ _____ _____    ______ ____
ROOT
ATOM      1  C   UNL     1      48.895   7.959  15.884  0.00  0.00    +0.000 A 
ATOM      2  C   UNL     1      48.313   8.455  17.057  0.00  0.00    +0.000 A 
ATOM      3  C   UNL     1      48.742   8.011  18.311  0.00  0.00    +0.000 A 
ATOM      4  C   UNL     1      49.759   7.055  18.421  0.00  0.00    +0.000 A 
ATOM      5  C   UNL     1      50.376   6.601  17.245  0.00  0.00    +0.000 A 
ATOM      6  C   UNL     1      49.953   7.052  15.991  0.00  0.00    +0.000 A 
ENDROOT
BRANCH   1   7
ATOM      7  C   UNL     1      48.381   8.394  14.539  0.00  0.00    +0.000 C 
BRANCH   7  10
ATOM      8  O   UNL     1      48.806   6.283  12.824  0.00  0.00    +0.000 OA
ATOM      9  C   UNL     1      47.663   6.468  13.237  0.00  0.00    +0.000 C 
ATOM     10  N   UNL     1      47.342   7.533  14.043  0.00  0.00    +0.000 N 
ATOM     11  H   UNL     1      46.463   7.525  14.552  0.00  0.00    +0.000 HD
BRANCH   9  12
ATOM     12  C   UNL     1      46.565   5.576  12.860  0.00  0.00    +0.000 A 
ATOM     13  C   UNL     1      46.644   4.220  13.134  0.00  0.00    +0.000 A 
ATOM     14  S   UNL     1      45.267   3.344  12.637  0.00  0.00    +0.000 S 
ATOM     15  C   UNL     1      44.503   4.758  12.078  0.00  0.00    +0.000 A 
ATOM     16  N   UNL     1      43.245   4.720  11.560  0.00  0.00    +0.000 NA
ATOM     17  C   UNL     1      42.776   5.873  11.218  0.00  0.00    +0.000 A 
ATOM     18  N   UNL     1      43.454   7.060  11.330  0.00  0.00    +0.000 N 
ATOM     19  C   UNL     1      44.742   7.143  11.800  0.00  0.00    +0.000 A 
ATOM     20  O   UNL     1      45.345   8.207  11.814  0.00  0.00    +0.000 OA
ATOM     21  C   UNL     1      45.301   5.877  12.236  0.00  0.00    +0.000 A 
ATOM     22  H   UNL     1      43.038   7.924  11.019  0.00  0.00    +0.000 HD
ENDBRANCH   9  12
ENDBRANCH   7  10
ENDBRANCH   1   7
BRANCH   4  23
ATOM     23  C   UNL     1      50.271   6.559  19.753  0.00  0.00    +0.000 C 
BRANCH  23  24
ATOM     24  C   UNL     1      50.152   5.055  20.042  0.00  0.00    +0.000 C 
BRANCH  24  25
ATOM     25  C   UNL     1      48.816   4.413  19.629  0.00  0.00    +0.000 C 
BRANCH  25  26
ATOM     26  C   UNL     1      48.912   3.540  18.401  0.00  0.00    +0.000 A 
ATOM     27  C   UNL     1      47.844   3.496  17.496  0.00  0.00    +0.000 A 
ATOM     28  C   UNL     1      47.991   2.773  16.323  0.00  0.00    +0.000 A 
ATOM     29  N   UNL     1      49.105   2.085  15.998  0.00  0.00    +0.000 NA
ATOM     30  C   UNL     1      50.110   2.108  16.898  0.00  0.00    +0.000 A 
ATOM     31  C   UNL     1      50.062   2.807  18.095  0.00  0.00    +0.000 A 
ENDBRANCH  25  26
BRANCH  25  32
ATOM     32  O   UNL     1      48.309   3.635  20.715  0.00  0.00    +0.000 OA
ATOM     33  H   UNL     1      47.741   2.939  20.350  0.00  0.00    +0.000 HD
ENDBRANCH  25  32
ENDBRANCH  24  25
ENDBRANCH  23  24
ENDBRANCH   4  23
TORSDOF 8
ENDMDL
MODEL 6
REMARK VINA RESULT:    -7.477      3.608      8.188
REMARK INTER + INTRA:         -11.870
REMARK INTER:                 -10.404
REMARK INTRA:                  -1.466
REMARK UNBOUND:                -1.115
REMARK  Name = 
REMARK  8 active torsions:
REMARK  status: ('A' for Active; 'I' for Inactive)
REMARK    1  A    between atoms: C_2  and  C_21
REMARK    2  A    between atoms: N_3  and  C_4
REMARK    3  A    between atoms: C_4  and  C_5
REMARK    4  A    between atoms: C_8  and  C_9
REMARK    5  A    between atoms: C_9  and  C_10
REMARK    6  A    between atoms: C_10  and  C_11
REMARK    7  A    between atoms: C_11  and  O_12
REMARK    8  A    between atoms: C_11  and  C_13
REMARK                            x       y       z     vdW  Elec       q    Type
REMARK                         _______ _______ _______ _____ _____    ______ ____
ROOT
ATOM      1  C   UNL     1      48.493   8.069  13.670  0.00  0.00    +0.000 A 
ATOM      2  C   UNL     1      47.883   8.871  14.643  0.00  0.00    +0.000 A 
ATOM      3  C   UNL     1      48.170   8.690  15.999  0.00  0.00    +0.000 A 
ATOM      4  C   UNL     1      49.068   7.700  16.415  0.00  0.00    +0.000 A 
ATOM      5  C   UNL     1      49.716   6.935  15.432  0.00  0.00    +0.000 A 
ATOM      6  C   UNL     1      49.437   7.121  14.075  0.00  0.00    +0.000 A 
ENDROOT
BRANCH   1   7
ATOM      7  C   UNL     1      48.129   8.228  12.219  0.00  0.00    +0.000 C 
BRANCH   7  10
ATOM      8  O   UNL     1      45.415   7.960  11.843  0.00  0.00    +0.000 OA
ATOM      9  C   UNL     1      46.140   7.038  11.475  0.00  0.00    +0.000 C 
ATOM     10  N   UNL     1      47.498   7.053  11.680  0.00  0.00    +0.000 N 
ATOM     11  H   UNL     1      48.087   6.406  11.164  0.00  0.00    +0.000 HD
BRANCH   9  12
ATOM     12  C   UNL     1      45.587   5.849  10.825  0.00  0.00    +0.000 A 
ATOM     13  C   UNL     1      45.858   5.597   9.489  0.00  0.00    +0.000 A 
ATOM     14  S   UNL     1      45.143   4.159   8.910  0.00  0.00    +0.000 S 
ATOM     15  C   UNL     1      44.485   3.808  10.440  0.00  0.00    +0.000 A 
ATOM     16  N   UNL     1      43.776   2.665  10.654  0.00  0.00    +0.000 NA
ATOM     17  C   UNL     1      43.376   2.509  11.871  0.00  0.00    +0.000 A 
ATOM     18  N   UNL     1      43.604   3.396  12.892  0.00  0.00    +0.000 N 
ATOM     19  C   UNL     1      44.271   4.584  12.714  0.00  0.00    +0.000 A 
ATOM     20  O   UNL     1      44.390   5.388  13.628  0.00  0.00    +0.000 OA
ATOM     21  C   UNL     1      44.777   4.789  11.369  0.00  0.00    +0.000 A 
ATOM     22  H   UNL     1      43.240   3.225  13.816  0.00  0.00    +0.000 HD
ENDBRANCH   9  12
ENDBRANCH   7  10
ENDBRANCH   1   7
BRANCH   4  23
ATOM     23  C   UNL     1      49.425   7.479  17.866  0.00  0.00    +0.000 C 
BRANCH  23  24
ATOM     24  C   UNL     1      48.596   6.452  18.652  0.00  0.00    +0.000 C 
BRANCH  24  25
ATOM     25  C   UNL     1      47.793   5.463  17.789  0.00  0.00    +0.000 C 
BRANCH  25  26
ATOM     26  C   UNL     1      48.538   4.189  17.467  0.00  0.00    +0.000 A 
ATOM     27  C   UNL     1      47.927   3.211  16.674  0.00  0.00    +0.000 A 
ATOM     28  C   UNL     1      48.663   2.098  16.300  0.00  0.00    +0.000 A 
ATOM     29  N   UNL     1      49.943   1.884  16.669  0.00  0.00    +0.000 NA
ATOM     30  C   UNL     1      50.504   2.818  17.464  0.00  0.00    +0.000 A 
ATOM     31  C   UNL     1      49.853   3.969  17.885  0.00  0.00    +0.000 A 
ENDBRANCH  25  26
BRANCH  25  32
ATOM     32  O   UNL     1      46.574   5.132  18.459  0.00  0.00    +0.000 OA
ATOM     33  H   UNL     1      45.950   5.863  18.331  0.00  0.00    +0.000 HD
ENDBRANCH  25  32
ENDBRANCH  24  25
ENDBRANCH  23  24
ENDBRANCH   4  23
TORSDOF 8
ENDMDL
MODEL 7
REMARK VINA RESULT:    -7.416      3.833      8.187
REMARK INTER + INTRA:         -11.782
REMARK INTER:                  -9.994
REMARK INTRA:                  -1.788
REMARK UNBOUND:                -1.115
REMARK  Name = 
REMARK  8 active torsions:
REMARK  status: ('A' for Active; 'I' for Inactive)
REMARK    1  A    between atoms: C_2  and  C_21
REMARK    2  A    between atoms: N_3  and  C_4
REMARK    3  A    between atoms: C_4  and  C_5
REMARK    4  A    between atoms: C_8  and  C_9
REMARK    5  A    between atoms: C_9  and  C_10
REMARK    6  A    between atoms: C_10  and  C_11
REMARK    7  A    between atoms: C_11  and  O_12
REMARK    8  A    between atoms: C_11  and  C_13
REMARK                            x       y       z     vdW  Elec       q    Type
REMARK                         _______ _______ _______ _____ _____    ______ ____
ROOT
ATOM      1  C   UNL     1      49.031   7.754  15.598  0.00  0.00    +0.000 A 
ATOM      2  C   UNL     1      50.177   6.972  15.788  0.00  0.00    +0.000 A 
ATOM      3  C   UNL     1      50.578   6.593  17.073  0.00  0.00    +0.000 A 
ATOM      4  C   UNL     1      49.846   6.993  18.198  0.00  0.00    +0.000 A 
ATOM      5  C   UNL     1      48.669   7.731  17.997  0.00  0.00    +0.000 A 
ATOM      6  C   UNL     1      48.263   8.103  16.713  0.00  0.00    +0.000 A 
ENDROOT
BRANCH   1   7
ATOM      7  C   UNL     1      48.645   8.211  14.218  0.00  0.00    +0.000 C 
BRANCH   7  10
ATOM      8  O   UNL     1      48.090   7.178  11.727  0.00  0.00    +0.000 OA
ATOM      9  C   UNL     1      47.194   7.163  12.569  0.00  0.00    +0.000 C 
ATOM     10  N   UNL     1      47.356   7.715  13.816  0.00  0.00    +0.000 N 
ATOM     11  H   UNL     1      46.698   7.480  14.554  0.00  0.00    +0.000 HD
BRANCH   9  12
ATOM     12  C   UNL     1      45.883   6.584  12.272  0.00  0.00    +0.000 A 
ATOM     13  C   UNL     1      44.883   7.371  11.723  0.00  0.00    +0.000 A 
ATOM     14  S   UNL     1      43.432   6.521  11.432  0.00  0.00    +0.000 S 
ATOM     15  C   UNL     1      44.110   5.065  11.992  0.00  0.00    +0.000 A 
ATOM     16  N   UNL     1      43.398   3.905  11.971  0.00  0.00    +0.000 NA
ATOM     17  C   UNL     1      44.053   2.872  12.385  0.00  0.00    +0.000 A 
ATOM     18  N   UNL     1      45.349   2.893  12.832  0.00  0.00    +0.000 N 
ATOM     19  C   UNL     1      46.091   4.046  12.918  0.00  0.00    +0.000 A 
ATOM     20  O   UNL     1      47.218   4.042  13.395  0.00  0.00    +0.000 OA
ATOM     21  C   UNL     1      45.412   5.231  12.427  0.00  0.00    +0.000 A 
ATOM     22  H   UNL     1      45.794   2.053  13.167  0.00  0.00    +0.000 HD
ENDBRANCH   9  12
ENDBRANCH   7  10
ENDBRANCH   1   7
BRANCH   4  23
ATOM     23  C   UNL     1      50.227   6.593  19.603  0.00  0.00    +0.000 C 
BRANCH  23  24
ATOM     24  C   UNL     1      50.144   5.101  19.962  0.00  0.00    +0.000 C 
BRANCH  24  25
ATOM     25  C   UNL     1      48.859   4.389  19.503  0.00  0.00    +0.000 C 
BRANCH  25  26
ATOM     26  C   UNL     1      49.040   3.543  18.266  0.00  0.00    +0.000 A 
ATOM     27  C   UNL     1      50.288   2.973  17.991  0.00  0.00    +0.000 A 
ATOM     28  C   UNL     1      50.409   2.115  16.910  0.00  0.00    +0.000 A 
ATOM     29  N   UNL     1      49.391   1.799  16.083  0.00  0.00    +0.000 NA
ATOM     30  C   UNL     1      48.203   2.386  16.340  0.00  0.00    +0.000 A 
ATOM     31  C   UNL     1      47.981   3.252  17.400  0.00  0.00    +0.000 A 
ENDBRANCH  25  26
BRANCH  25  32
ATOM     32  O   UNL     1      48.370   3.565  20.563  0.00  0.00    +0.000 OA
ATOM     33  H   UNL     1      49.117   3.068  20.930  0.00  0.00    +0.000 HD
ENDBRANCH  25  32
ENDBRANCH  24  25
ENDBRANCH  23  24
ENDBRANCH   4  23
TORSDOF 8
ENDMDL
MODEL 8
REMARK VINA RESULT:    -7.355      2.758      4.530
REMARK INTER + INTRA:         -11.695
REMARK INTER:                 -10.481
REMARK INTRA:                  -1.215
REMARK UNBOUND:                -1.115
REMARK  Name = 
REMARK  8 active torsions:
REMARK  status: ('A' for Active; 'I' for Inactive)
REMARK    1  A    between atoms: C_2  and  C_21
REMARK    2  A    between atoms: N_3  and  C_4
REMARK    3  A    between atoms: C_4  and  C_5
REMARK    4  A    between atoms: C_8  and  C_9
REMARK    5  A    between atoms: C_9  and  C_10
REMARK    6  A    between atoms: C_10  and  C_11
REMARK    7  A    between atoms: C_11  and  O_12
REMARK    8  A    between atoms: C_11  and  C_13
REMARK                            x       y       z     vdW  Elec       q    Type
REMARK                         _______ _______ _______ _____ _____    ______ ____
ROOT
ATOM      1  C   UNL     1      46.886   5.606  13.559  0.00  0.00    +0.000 A 
ATOM      2  C   UNL     1      46.770   6.436  12.437  0.00  0.00    +0.000 A 
ATOM      3  C   UNL     1      45.861   6.137  11.418  0.00  0.00    +0.000 A 
ATOM      4  C   UNL     1      45.051   4.997  11.494  0.00  0.00    +0.000 A 
ATOM      5  C   UNL     1      45.133   4.198  12.646  0.00  0.00    +0.000 A 
ATOM      6  C   UNL     1      46.036   4.502  13.669  0.00  0.00    +0.000 A 
ENDROOT
BRANCH   1   7
ATOM      7  C   UNL     1      47.912   5.901  14.618  0.00  0.00    +0.000 C 
BRANCH   7  10
ATOM      8  O   UNL     1      50.380   6.501  15.680  0.00  0.00    +0.000 OA
ATOM      9  C   UNL     1      49.881   7.305  14.895  0.00  0.00    +0.000 C 
ATOM     10  N   UNL     1      48.627   7.123  14.365  0.00  0.00    +0.000 N 
ATOM     11  H   UNL     1      48.345   7.666  13.554  0.00  0.00    +0.000 HD
BRANCH   9  12
ATOM     12  C   UNL     1      50.586   8.527  14.506  0.00  0.00    +0.000 A 
ATOM     13  C   UNL     1      51.030   9.412  15.475  0.00  0.00    +0.000 A 
ATOM     14  S   UNL     1      51.844  10.769  14.836  0.00  0.00    +0.000 S 
ATOM     15  C   UNL     1      51.666  10.193  13.245  0.00  0.00    +0.000 A 
ATOM     16  N   UNL     1      52.190  10.872  12.189  0.00  0.00    +0.000 NA
ATOM     17  C   UNL     1      52.016  10.295  11.047  0.00  0.00    +0.000 A 
ATOM     18  N   UNL     1      51.352   9.110  10.860  0.00  0.00    +0.000 N 
ATOM     19  C   UNL     1      50.764   8.414  11.888  0.00  0.00    +0.000 A 
ATOM     20  O   UNL     1      50.113   7.400  11.676  0.00  0.00    +0.000 OA
ATOM     21  C   UNL     1      50.966   9.001  13.199  0.00  0.00    +0.000 A 
ATOM     22  H   UNL     1      51.229   8.727   9.936  0.00  0.00    +0.000 HD
ENDBRANCH   9  12
ENDBRANCH   7  10
ENDBRANCH   1   7
BRANCH   4  23
ATOM     23  C   UNL     1      44.040   4.643  10.429  0.00  0.00    +0.000 C 
BRANCH  23  24
ATOM     24  C   UNL     1      44.568   4.379   9.011  0.00  0.00    +0.000 C 
BRANCH  24  25
ATOM     25  C   UNL     1      44.568   2.902   8.577  0.00  0.00    +0.000 C 
BRANCH  25  26
ATOM     26  C   UNL     1      45.796   2.495   7.797  0.00  0.00    +0.000 A 
ATOM     27  C   UNL     1      46.410   1.266   8.064  0.00  0.00    +0.000 A 
ATOM     28  C   UNL     1      47.470   0.862   7.269  0.00  0.00    +0.000 A 
ATOM     29  N   UNL     1      47.967   1.592   6.249  0.00  0.00    +0.000 NA
ATOM     30  C   UNL     1      47.387   2.790   6.029  0.00  0.00    +0.000 A 
ATOM     31  C   UNL     1      46.318   3.280   6.765  0.00  0.00    +0.000 A 
ENDBRANCH  25  26
BRANCH  25  32
ATOM     32  O   UNL     1      44.453   2.069   9.732  0.00  0.00    +0.000 OA
ATOM     33  H   UNL     1      44.369   2.640  10.511  0.00  0.00    +0.000 HD
ENDBRANCH  25  32
ENDBRANCH  24  25
ENDBRANCH  23  24
ENDBRANCH   4  23
TORSDOF 8
ENDMDL
MODEL 9
REMARK VINA RESULT:    -7.291      2.227      3.113
REMARK INTER + INTRA:         -11.602
REMARK INTER:                 -10.512
REMARK INTRA:                  -1.091
REMARK UNBOUND:                -1.115
REMARK  Name = 
REMARK  8 active torsions:
REMARK  status: ('A' for Active; 'I' for Inactive)
REMARK    1  A    between atoms: C_2  and  C_21
REMARK    2  A    between atoms: N_3  and  C_4
REMARK    3  A    between atoms: C_4  and  C_5
REMARK    4  A    between atoms: C_8  and  C_9
REMARK    5  A    between atoms: C_9  and  C_10
REMARK    6  A    between atoms: C_10  and  C_11
REMARK    7  A    between atoms: C_11  and  O_12
REMARK    8  A    between atoms: C_11  and  C_13
REMARK                            x       y       z     vdW  Elec       q    Type
REMARK                         _______ _______ _______ _____ _____    ______ ____
ROOT
ATOM      1  C   UNL     1      46.726   7.444  12.963  0.00  0.00    +0.000 A 
ATOM      2  C   UNL     1      46.957   6.065  13.050  0.00  0.00    +0.000 A 
ATOM      3  C   UNL     1      46.153   5.160  12.350  0.00  0.00    +0.000 A 
ATOM      4  C   UNL     1      45.096   5.612  11.551  0.00  0.00    +0.000 A 
ATOM      5  C   UNL     1      44.903   6.997  11.425  0.00  0.00    +0.000 A 
ATOM      6  C   UNL     1      45.711   7.902  12.117  0.00  0.00    +0.000 A 
ENDROOT
BRANCH   1   7
ATOM      7  C   UNL     1      47.554   8.404  13.771  0.00  0.00    +0.000 C 
BRANCH   7  10
ATOM      8  O   UNL     1      48.175   8.674  16.439  0.00  0.00    +0.000 OA
ATOM      9  C   UNL     1      48.863   7.912  15.763  0.00  0.00    +0.000 C 
ATOM     10  N   UNL     1      48.671   7.763  14.411  0.00  0.00    +0.000 N 
ATOM     11  H   UNL     1      49.085   6.967  13.934  0.00  0.00    +0.000 HD
BRANCH   9  12
ATOM     12  C   UNL     1      49.957   7.144  16.359  0.00  0.00    +0.000 A 
ATOM     13  C   UNL     1      49.713   6.308  17.437  0.00  0.00    +0.000 A 
ATOM     14  S   UNL     1      51.103   5.484  17.986  0.00  0.00    +0.000 S 
ATOM     15  C   UNL     1      52.065   6.187  16.771  0.00  0.00    +0.000 A 
ATOM     16  N   UNL     1      53.381   5.866  16.643  0.00  0.00    +0.000 NA
ATOM     17  C   UNL     1      53.975   6.441  15.652  0.00  0.00    +0.000 A 
ATOM     18  N   UNL     1      53.379   7.322  14.785  0.00  0.00    +0.000 N 
ATOM     19  C   UNL     1      52.069   7.714  14.904  0.00  0.00    +0.000 A 
ATOM     20  O   UNL     1      51.590   8.560  14.161  0.00  0.00    +0.000 OA
ATOM     21  C   UNL     1      51.345   7.064  15.981  0.00  0.00    +0.000 A 
ATOM     22  H   UNL     1      53.909   7.757  14.046  0.00  0.00    +0.000 HD
ENDBRANCH   9  12
ENDBRANCH   7  10
ENDBRANCH   1   7
BRANCH   4  23
ATOM     23  C   UNL     1      44.214   4.675  10.760  0.00  0.00    +0.000 C 
BRANCH  23  24
ATOM     24  C   UNL     1      44.599   4.404   9.298  0.00  0.00    +0.000 C 
BRANCH  24  25
ATOM     25  C   UNL     1      44.552   2.927   8.872  0.00  0.00    +0.000 C 
BRANCH  25  26
ATOM     26  C   UNL     1      45.795   2.457   8.156  0.00  0.00    +0.000 A 
ATOM     27  C   UNL     1      46.132   1.099   8.169  0.00  0.00    +0.000 A 
ATOM     28  C   UNL     1      47.216   0.671   7.420  0.00  0.00    +0.000 A 
ATOM     29  N   UNL     1      47.990   1.492   6.680  0.00  0.00    +0.000 NA
ATOM     30  C   UNL     1      47.674   2.803   6.708  0.00  0.00    +0.000 A 
ATOM     31  C   UNL     1      46.606   3.328   7.420  0.00  0.00    +0.000 A 
ENDBRANCH  25  26
BRANCH  25  32
ATOM     32  O   UNL     1      44.341   2.108  10.024  0.00  0.00    +0.000 OA
ATOM     33  H   UNL     1      43.405   2.166  10.270  0.00  0.00    +0.000 HD
ENDBRANCH  25  32
ENDBRANCH  24  25
ENDBRANCH  23  24
ENDBRANCH   4  23
TORSDOF 8
ENDMDL
