MODEL 1
REMARK VINA RESULT:    -6.998      0.000      0.000
REMARK INTER + INTRA:          -9.219
REMARK INTER:                  -8.839
REMARK INTRA:                  -0.380
REMARK UNBOUND:                -0.380
REMARK  Name = 
REMARK  5 active torsions:
REMARK  status: ('A' for Active; 'I' for Inactive)
REMARK    1  A    between atoms: N_1  and  C_2
REMARK    2  A    between atoms: C_2  and  C_3
REMARK    3  A    between atoms: C_6  and  C_7
REMARK    4  A    between atoms: C_7  and  N_8
REMARK    5  A    between atoms: N_8  and  C_9
REMARK                            x       y       z     vdW  Elec       q    Type
REMARK                         _______ _______ _______ _____ _____    ______ ____
ROOT
ATOM      1  C   UNL     1      46.622   2.302   7.564  0.00  0.00    +0.000 A 
ATOM      2  C   UNL     1      46.435   3.668   7.389  0.00  0.00    +0.000 A 
ATOM      3  N   UNL     1      45.532   4.385   8.096  0.00  0.00    +0.000 NA
ATOM      4  C   UNL     1      44.819   3.692   9.022  0.00  0.00    +0.000 A 
ATOM      5  C   UNL     1      44.997   2.324   9.190  0.00  0.00    +0.000 A 
ATOM      6  N   UNL     1      45.896   1.601   8.477  0.00  0.00    +0.000 NA
ENDROOT
BRANCH   1   7
ATOM      7  C   UNL     1      47.695   1.571   6.798  0.00  0.00    +0.000 C 
BRANCH   7   8
ATOM      8  N   UNL     1      48.684   2.490   6.232  0.00  0.00    +0.000 NA
ATOM      9  H   UNL     1      49.333   1.961   5.651  0.00  0.00    +0.000 HD
ATOM     10  H   UNL     1      49.241   2.861   7.006  0.00  0.00    +0.000 HD
ENDBRANCH   7   8
ENDBRANCH   1   7
BRANCH   4  11
ATOM     11  C   UNL     1      43.832   4.446   9.879  0.00  0.00    +0.000 C 
BRANCH  11  12
ATOM     12  N   UNL     1      44.460   5.565  10.570  0.00  0.00    +0.000 N 
ATOM     13  H   UNL     1      44.030   6.475  10.448  0.00  0.00    +0.000 HD
BRANCH  12  14
ATOM     14  C   UNL     1      45.198   5.373  11.730  0.00  0.00    +0.000 A 
ATOM     15  C   UNL     1      46.344   6.141  11.952  0.00  0.00    +0.000 A 
ATOM     16  C   UNL     1      47.145   5.918  13.074  0.00  0.00    +0.000 A 
ATOM     17  C   UNL     1      46.785   4.908  13.950  0.00  0.00    +0.000 A 
ATOM     18  N   UNL     1      45.706   4.123  13.774  0.00  0.00    +0.000 NA
ATOM     19  C   UNL     1      44.959   4.364  12.669  0.00  0.00    +0.000 A 
ENDBRANCH  12  14
ENDBRANCH  11  12
ENDBRANCH   4  11
TORSDOF 5
ENDMDL
MODEL 2
REMARK VINA RESULT:    -6.881      1.310      5.622
REMARK INTER + INTRA:          -9.071
REMARK INTER:                  -8.767
REMARK INTRA:                  -0.304
REMARK UNBOUND:                -0.380
REMARK  Name = 
REMARK  5 active torsions:
REMARK  status: ('A' for Active; 'I' for Inactive)
REMARK    1  A    between atoms: N_1  and  C_2
REMARK    2  A    between atoms: C_2  and  C_3
REMARK    3  A    between atoms: C_6  and  C_7
REMARK    4  A    between atoms: C_7  and  N_8
REMARK    5  A    between atoms: N_8  and  C_9
REMARK                            x       y       z     vdW  Elec       q    Type
REMARK                         _______ _______ _______ _____ _____    ______ ____
ROOT
ATOM      1  C   UNL     1      46.213   4.386  13.235  0.00  0.00    +0.000 A 
ATOM      2  C   UNL     1      46.203   5.499  12.403  0.00  0.00    +0.000 A 
ATOM      3  N   UNL     1      45.590   5.514  11.197  0.00  0.00    +0.000 NA
ATOM      4  C   UNL     1      44.951   4.369  10.844  0.00  0.00    +0.000 A 
ATOM      5  C   UNL     1      44.970   3.250  11.669  0.00  0.00    +0.000 A 
ATOM      6  N   UNL     1      45.590   3.231  12.874  0.00  0.00    +0.000 NA
ENDROOT
BRANCH   1   7
ATOM      7  C   UNL     1      46.850   4.454  14.599  0.00  0.00    +0.000 C 
BRANCH   7   8
ATOM      8  N   UNL     1      47.626   3.249  14.900  0.00  0.00    +0.000 NA
ATOM      9  H   UNL     1      47.086   2.657  15.530  0.00  0.00    +0.000 HD
ATOM     10  H   UNL     1      48.453   3.537  15.428  0.00  0.00    +0.000 HD
ENDBRANCH   7   8
ENDBRANCH   1   7
BRANCH   4  11
ATOM     11  C   UNL     1      44.204   4.339   9.532  0.00  0.00    +0.000 C 
BRANCH  11  12
ATOM     12  N   UNL     1      44.295   3.035   8.887  0.00  0.00    +0.000 N 
ATOM     13  H   UNL     1      43.423   2.617   8.582  0.00  0.00    +0.000 HD
BRANCH  12  14
ATOM     14  C   UNL     1      45.445   2.640   8.219  0.00  0.00    +0.000 A 
ATOM     15  C   UNL     1      46.029   3.501   7.286  0.00  0.00    +0.000 A 
ATOM     16  C   UNL     1      47.144   3.100   6.547  0.00  0.00    +0.000 A 
ATOM     17  C   UNL     1      47.644   1.825   6.748  0.00  0.00    +0.000 A 
ATOM     18  N   UNL     1      47.108   0.946   7.615  0.00  0.00    +0.000 NA
ATOM     19  C   UNL     1      46.022   1.369   8.308  0.00  0.00    +0.000 A 
ENDBRANCH  12  14
ENDBRANCH  11  12
ENDBRANCH   4  11
TORSDOF 5
ENDMDL
MODEL 3
REMARK VINA RESULT:    -6.603      1.277      2.013
REMARK INTER + INTRA:          -8.720
REMARK INTER:                  -8.437
REMARK INTRA:                  -0.283
REMARK UNBOUND:                -0.380
REMARK  Name = 
REMARK  5 active torsions:
REMARK  status: ('A' for Active; 'I' for Inactive)
REMARK    1  A    between atoms: N_1  and  C_2
REMARK    2  A    between atoms: C_2  and  C_3
REMARK    3  A    between atoms: C_6  and  C_7
REMARK    4  A    between atoms: C_7  and  N_8
REMARK    5  A    between atoms: N_8  and  C_9
REMARK                            x       y       z     vdW  Elec       q    Type
REMARK                         _______ _______ _______ _____ _____    ______ ____
ROOT
ATOM      1  C   UNL     1      46.591   2.685   6.886  0.00  0.00    +0.000 A 
ATOM      2  C   UNL     1      46.462   1.540   7.663  0.00  0.00    +0.000 A 
ATOM      3  N   UNL     1      45.719   1.495   8.792  0.00  0.00    +0.000 NA
ATOM      4  C   UNL     1      45.073   2.644   9.122  0.00  0.00    +0.000 A 
ATOM      5  C   UNL     1      45.211   3.794   8.353  0.00  0.00    +0.000 A 
ATOM      6  N   UNL     1      45.961   3.843   7.225  0.00  0.00    +0.000 NA
ENDROOT
BRANCH   1   7
ATOM      7  C   UNL     1      47.374   2.653   5.598  0.00  0.00    +0.000 C 
BRANCH   7   8
ATOM      8  N   UNL     1      48.611   1.879   5.730  0.00  0.00    +0.000 NA
ATOM      9  H   UNL     1      49.181   2.292   6.467  0.00  0.00    +0.000 HD
ATOM     10  H   UNL     1      49.143   1.999   4.866  0.00  0.00    +0.000 HD
ENDBRANCH   7   8
ENDBRANCH   1   7
BRANCH   4  11
ATOM     11  C   UNL     1      44.186   2.643  10.344  0.00  0.00    +0.000 C 
BRANCH  11  12
ATOM     12  N   UNL     1      44.936   2.947  11.556  0.00  0.00    +0.000 N 
ATOM     13  H   UNL     1      45.619   2.258  11.853  0.00  0.00    +0.000 HD
BRANCH  12  14
ATOM     14  C   UNL     1      45.152   4.257  11.961  0.00  0.00    +0.000 A 
ATOM     15  C   UNL     1      46.154   4.532  12.895  0.00  0.00    +0.000 A 
ATOM     16  C   UNL     1      46.345   5.830  13.374  0.00  0.00    +0.000 A 
ATOM     17  C   UNL     1      45.507   6.831  12.915  0.00  0.00    +0.000 A 
ATOM     18  N   UNL     1      44.511   6.619  12.034  0.00  0.00    +0.000 NA
ATOM     19  C   UNL     1      44.352   5.345  11.599  0.00  0.00    +0.000 A 
ENDBRANCH  12  14
ENDBRANCH  11  12
ENDBRANCH   4  11
TORSDOF 5
ENDMDL
MODEL 4
REMARK VINA RESULT:    -6.173      1.790      6.015
REMARK INTER + INTRA:          -8.177
REMARK INTER:                  -7.912
REMARK INTRA:                  -0.265
REMARK UNBOUND:                -0.380
REMARK  Name = 
REMARK  5 active torsions:
REMARK  status: ('A' for Active; 'I' for Inactive)
REMARK    1  A    between atoms: N_1  and  C_2
REMARK    2  A    between atoms: C_2  and  C_3
REMARK    3  A    between atoms: C_6  and  C_7
REMARK    4  A    between atoms: C_7  and  N_8
REMARK    5  A    between atoms: N_8  and  C_9
REMARK                            x       y       z     vdW  Elec       q    Type
REMARK                         _______ _______ _______ _____ _____    ______ ____
ROOT
ATOM      1  C   UNL     1      45.265   7.421  12.022  0.00  0.00    +0.000 A 
ATOM      2  C   UNL     1      46.166   6.538  11.440  0.00  0.00    +0.000 A 
ATOM      3  N   UNL     1      45.788   5.381  10.849  0.00  0.00    +0.000 NA
ATOM      4  C   UNL     1      44.452   5.134  10.831  0.00  0.00    +0.000 A 
ATOM      5  C   UNL     1      43.550   6.010  11.424  0.00  0.00    +0.000 A 
ATOM      6  N   UNL     1      43.928   7.167  12.023  0.00  0.00    +0.000 NA
ENDROOT
BRANCH   1   7
ATOM      7  C   UNL     1      45.739   8.730  12.601  0.00  0.00    +0.000 C 
BRANCH   7   8
ATOM      8  N   UNL     1      44.677   9.737  12.617  0.00  0.00    +0.000 NA
ATOM      9  H   UNL     1      44.086   9.607  11.797  0.00  0.00    +0.000 HD
ATOM     10  H   UNL     1      45.118  10.653  12.500  0.00  0.00    +0.000 HD
ENDBRANCH   7   8
ENDBRANCH   1   7
BRANCH   4  11
ATOM     11  C   UNL     1      43.963   3.884  10.141  0.00  0.00    +0.000 C 
BRANCH  11  12
ATOM     12  N   UNL     1      44.342   3.861   8.733  0.00  0.00    +0.000 N 
ATOM     13  H   UNL     1      44.144   4.698   8.195  0.00  0.00    +0.000 HD
BRANCH  12  14
ATOM     14  C   UNL     1      45.377   3.055   8.279  0.00  0.00    +0.000 A 
ATOM     15  C   UNL     1      46.313   3.578   7.383  0.00  0.00    +0.000 A 
ATOM     16  C   UNL     1      47.321   2.769   6.853  0.00  0.00    +0.000 A 
ATOM     17  C   UNL     1      47.358   1.437   7.223  0.00  0.00    +0.000 A 
ATOM     18  N   UNL     1      46.469   0.875   8.063  0.00  0.00    +0.000 NA
ATOM     19  C   UNL     1      45.501   1.689   8.550  0.00  0.00    +0.000 A 
ENDBRANCH  12  14
ENDBRANCH  11  12
ENDBRANCH   4  11
TORSDOF 5
ENDMDL
MODEL 5
REMARK VINA RESULT:    -5.935      1.969      5.985
REMARK INTER + INTRA:          -7.877
REMARK INTER:                  -7.588
REMARK INTRA:                  -0.288
REMARK UNBOUND:                -0.380
REMARK  Name = 
REMARK  5 active torsions:
REMARK  status: ('A' for Active; 'I' for Inactive)
REMARK    1  A    between atoms: N_1  and  C_2
REMARK    2  A    between atoms: C_2  and  C_3
REMARK    3  A    between atoms: C_6  and  C_7
REMARK    4  A    between atoms: C_7  and  N_8
REMARK    5  A    between atoms: N_8  and  C_9
REMARK                            x       y       z     vdW  Elec       q    Type
REMARK                         _______ _______ _______ _____ _____    ______ ____
ROOT
ATOM      1  C   UNL     1      46.205   7.905  12.353  0.00  0.00    +0.000 A 
ATOM      2  C   UNL     1      44.955   8.142  11.794  0.00  0.00    +0.000 A 
ATOM      3  N   UNL     1      44.202   7.169  11.231  0.00  0.00    +0.000 NA
ATOM      4  C   UNL     1      44.732   5.918  11.262  0.00  0.00    +0.000 A 
ATOM      5  C   UNL     1      45.987   5.681  11.809  0.00  0.00    +0.000 A 
ATOM      6  N   UNL     1      46.747   6.657  12.367  0.00  0.00    +0.000 NA
ENDROOT
BRANCH   1   7
ATOM      7  C   UNL     1      46.965   9.017  13.031  0.00  0.00    +0.000 C 
BRANCH   7   8
ATOM      8  N   UNL     1      47.031   8.827  14.481  0.00  0.00    +0.000 NA
ATOM      9  H   UNL     1      46.470   9.548  14.934  0.00  0.00    +0.000 HD
ATOM     10  H   UNL     1      47.996   9.001  14.772  0.00  0.00    +0.000 HD
ENDBRANCH   7   8
ENDBRANCH   1   7
BRANCH   4  11
ATOM     11  C   UNL     1      43.917   4.780  10.696  0.00  0.00    +0.000 C 
BRANCH  11  12
ATOM     12  N   UNL     1      44.140   4.616   9.265  0.00  0.00    +0.000 N 
ATOM     13  H   UNL     1      43.996   5.435   8.685  0.00  0.00    +0.000 HD
BRANCH  12  14
ATOM     14  C   UNL     1      45.009   3.650   8.777  0.00  0.00    +0.000 A 
ATOM     15  C   UNL     1      45.938   3.994   7.792  0.00  0.00    +0.000 A 
ATOM     16  C   UNL     1      46.774   3.026   7.232  0.00  0.00    +0.000 A 
ATOM     17  C   UNL     1      46.648   1.717   7.663  0.00  0.00    +0.000 A 
ATOM     18  N   UNL     1      45.756   1.325   8.591  0.00  0.00    +0.000 NA
ATOM     19  C   UNL     1      44.956   2.291   9.105  0.00  0.00    +0.000 A 
ENDBRANCH  12  14
ENDBRANCH  11  12
ENDBRANCH   4  11
TORSDOF 5
ENDMDL
MODEL 6
REMARK VINA RESULT:    -5.456      1.645      2.440
REMARK INTER + INTRA:          -7.270
REMARK INTER:                  -7.434
REMARK INTRA:                   0.163
REMARK UNBOUND:                -0.380
REMARK  Name = 
REMARK  5 active torsions:
REMARK  status: ('A' for Active; 'I' for Inactive)
REMARK    1  A    between atoms: N_1  and  C_2
REMARK    2  A    between atoms: C_2  and  C_3
REMARK    3  A    between atoms: C_6  and  C_7
REMARK    4  A    between atoms: C_7  and  N_8
REMARK    5  A    between atoms: N_8  and  C_9
REMARK                            x       y       z     vdW  Elec       q    Type
REMARK                         _______ _______ _______ _____ _____    ______ ____
ROOT
ATOM      1  C   UNL     1      45.304   3.414   8.588  0.00  0.00    +0.000 A 
ATOM      2  C   UNL     1      44.661   2.495   9.409  0.00  0.00    +0.000 A 
ATOM      3  N   UNL     1      43.898   2.858  10.465  0.00  0.00    +0.000 NA
ATOM      4  C   UNL     1      43.770   4.194  10.673  0.00  0.00    +0.000 A 
ATOM      5  C   UNL     1      44.423   5.114   9.861  0.00  0.00    +0.000 A 
ATOM      6  N   UNL     1      45.194   4.753   8.805  0.00  0.00    +0.000 NA
ENDROOT
BRANCH   1   7
ATOM      7  C   UNL     1      46.081   2.951   7.382  0.00  0.00    +0.000 C 
BRANCH   7   8
ATOM      8  N   UNL     1      46.781   4.058   6.726  0.00  0.00    +0.000 NA
ATOM      9  H   UNL     1      46.202   4.894   6.783  0.00  0.00    +0.000 HD
ATOM     10  H   UNL     1      46.850   3.833   5.731  0.00  0.00    +0.000 HD
ENDBRANCH   7   8
ENDBRANCH   1   7
BRANCH   4  11
ATOM     11  C   UNL     1      42.889   4.663  11.805  0.00  0.00    +0.000 C 
BRANCH  11  12
ATOM     12  N   UNL     1      43.465   5.809  12.499  0.00  0.00    +0.000 N 
ATOM     13  H   UNL     1      42.825   6.383  13.037  0.00  0.00    +0.000 HD
BRANCH  12  14
ATOM     14  C   UNL     1      44.796   5.819  12.893  0.00  0.00    +0.000 A 
ATOM     15  C   UNL     1      45.326   4.709  13.556  0.00  0.00    +0.000 A 
ATOM     16  C   UNL     1      46.641   4.722  14.027  0.00  0.00    +0.000 A 
ATOM     17  C   UNL     1      47.398   5.864  13.837  0.00  0.00    +0.000 A 
ATOM     18  N   UNL     1      46.931   6.970  13.227  0.00  0.00    +0.000 NA
ATOM     19  C   UNL     1      45.649   6.923  12.791  0.00  0.00    +0.000 A 
ENDBRANCH  12  14
ENDBRANCH  11  12
ENDBRANCH   4  11
TORSDOF 5
ENDMDL
MODEL 7
REMARK VINA RESULT:    -5.261      2.218      6.707
REMARK INTER + INTRA:          -7.025
REMARK INTER:                  -6.786
REMARK INTRA:                  -0.239
REMARK UNBOUND:                -0.380
REMARK  Name = 
REMARK  5 active torsions:
REMARK  status: ('A' for Active; 'I' for Inactive)
REMARK    1  A    between atoms: N_1  and  C_2
REMARK    2  A    between atoms: C_2  and  C_3
REMARK    3  A    between atoms: C_6  and  C_7
REMARK    4  A    between atoms: C_7  and  N_8
REMARK    5  A    between atoms: N_8  and  C_9
REMARK                            x       y       z     vdW  Elec       q    Type
REMARK                         _______ _______ _______ _____ _____    ______ ____
ROOT
ATOM      1  C   UNL     1      47.997   4.885  15.924  0.00  0.00    +0.000 A 
ATOM      2  C   UNL     1      46.932   4.128  15.450  0.00  0.00    +0.000 A 
ATOM      3  N   UNL     1      46.307   4.386  14.278  0.00  0.00    +0.000 NA
ATOM      4  C   UNL     1      46.799   5.431  13.562  0.00  0.00    +0.000 A 
ATOM      5  C   UNL     1      47.856   6.196  14.040  0.00  0.00    +0.000 A 
ATOM      6  N   UNL     1      48.479   5.944  15.217  0.00  0.00    +0.000 NA
ENDROOT
BRANCH   1   7
ATOM      7  C   UNL     1      48.700   4.504  17.201  0.00  0.00    +0.000 C 
BRANCH   7   8
ATOM      8  N   UNL     1      50.080   4.078  16.959  0.00  0.00    +0.000 NA
ATOM      9  H   UNL     1      50.643   4.303  17.778  0.00  0.00    +0.000 HD
ATOM     10  H   UNL     1      50.451   4.652  16.199  0.00  0.00    +0.000 HD
ENDBRANCH   7   8
ENDBRANCH   1   7
BRANCH   4  11
ATOM     11  C   UNL     1      46.177   5.737  12.221  0.00  0.00    +0.000 C 
BRANCH  11  12
ATOM     12  N   UNL     1      45.214   4.716  11.826  0.00  0.00    +0.000 N 
ATOM     13  H   UNL     1      44.375   4.641  12.391  0.00  0.00    +0.000 HD
BRANCH  12  14
ATOM     14  C   UNL     1      45.125   4.279  10.512  0.00  0.00    +0.000 A 
ATOM     15  C   UNL     1      44.645   2.994  10.246  0.00  0.00    +0.000 A 
ATOM     16  C   UNL     1      44.614   2.502   8.939  0.00  0.00    +0.000 A 
ATOM     17  C   UNL     1      45.086   3.309   7.920  0.00  0.00    +0.000 A 
ATOM     18  N   UNL     1      45.581   4.545   8.121  0.00  0.00    +0.000 NA
ATOM     19  C   UNL     1      45.603   4.984   9.403  0.00  0.00    +0.000 A 
ENDBRANCH  12  14
ENDBRANCH  11  12
ENDBRANCH   4  11
TORSDOF 5
ENDMDL
MODEL 8
REMARK VINA RESULT:    -5.246      3.275      7.775
REMARK INTER + INTRA:          -7.005
REMARK INTER:                  -6.780
REMARK INTRA:                  -0.225
REMARK UNBOUND:                -0.380
REMARK  Name = 
REMARK  5 active torsions:
REMARK  status: ('A' for Active; 'I' for Inactive)
REMARK    1  A    between atoms: N_1  and  C_2
REMARK    2  A    between atoms: C_2  and  C_3
REMARK    3  A    between atoms: C_6  and  C_7
REMARK    4  A    between atoms: C_7  and  N_8
REMARK    5  A    between atoms: N_8  and  C_9
REMARK                            x       y       z     vdW  Elec       q    Type
REMARK                         _______ _______ _______ _____ _____    ______ ____
ROOT
ATOM      1  C   UNL     1      48.536   4.422  17.943  0.00  0.00    +0.000 A 
ATOM      2  C   UNL     1      47.721   3.442  17.390  0.00  0.00    +0.000 A 
ATOM      3  N   UNL     1      47.170   3.548  16.159  0.00  0.00    +0.000 NA
ATOM      4  C   UNL     1      47.481   4.674  15.466  0.00  0.00    +0.000 A 
ATOM      5  C   UNL     1      48.287   5.661  16.021  0.00  0.00    +0.000 A 
ATOM      6  N   UNL     1      48.834   5.560  17.258  0.00  0.00    +0.000 NA
ENDROOT
BRANCH   1   7
ATOM      7  C   UNL     1      49.180   4.214  19.290  0.00  0.00    +0.000 C 
BRANCH   7   8
ATOM      8  N   UNL     1      48.335   3.418  20.181  0.00  0.00    +0.000 NA
ATOM      9  H   UNL     1      48.154   3.952  21.030  0.00  0.00    +0.000 HD
ATOM     10  H   UNL     1      48.878   2.603  20.475  0.00  0.00    +0.000 HD
ENDBRANCH   7   8
ENDBRANCH   1   7
BRANCH   4  11
ATOM     11  C   UNL     1      46.940   4.827  14.065  0.00  0.00    +0.000 C 
BRANCH  11  12
ATOM     12  N   UNL     1      45.659   4.151  13.905  0.00  0.00    +0.000 N 
ATOM     13  H   UNL     1      45.047   4.138  14.713  0.00  0.00    +0.000 HD
BRANCH  12  14
ATOM     14  C   UNL     1      45.053   4.039  12.660  0.00  0.00    +0.000 A 
ATOM     15  C   UNL     1      45.471   4.867  11.615  0.00  0.00    +0.000 A 
ATOM     16  C   UNL     1      44.830   4.827  10.375  0.00  0.00    +0.000 A 
ATOM     17  C   UNL     1      43.763   3.961  10.213  0.00  0.00    +0.000 A 
ATOM     18  N   UNL     1      43.304   3.158  11.191  0.00  0.00    +0.000 NA
ATOM     19  C   UNL     1      43.945   3.232  12.383  0.00  0.00    +0.000 A 
ENDBRANCH  12  14
ENDBRANCH  11  12
ENDBRANCH   4  11
TORSDOF 5
ENDMDL
MODEL 9
REMARK VINA RESULT:    -5.240      2.364      6.017
REMARK INTER + INTRA:          -6.998
REMARK INTER:                  -6.696
REMARK INTRA:                  -0.302
REMARK UNBOUND:                -0.380
REMARK  Name = 
REMARK  5 active torsions:
REMARK  status: ('A' for Active; 'I' for Inactive)
REMARK    1  A    between atoms: N_1  and  C_2
REMARK    2  A    between atoms: C_2  and  C_3
REMARK    3  A    between atoms: C_6  and  C_7
REMARK    4  A    between atoms: C_7  and  N_8
REMARK    5  A    between atoms: N_8  and  C_9
REMARK                            x       y       z     vdW  Elec       q    Type
REMARK                         _______ _______ _______ _____ _____    ______ ____
ROOT
ATOM      1  C   UNL     1      48.252   6.808  14.177  0.00  0.00    +0.000 A 
ATOM      2  C   UNL     1      47.709   7.916  13.537  0.00  0.00    +0.000 A 
ATOM      3  N   UNL     1      46.628   7.844  12.727  0.00  0.00    +0.000 NA
ATOM      4  C   UNL     1      46.075   6.612  12.586  0.00  0.00    +0.000 A 
ATOM      5  C   UNL     1      46.623   5.500  13.215  0.00  0.00    +0.000 A 
ATOM      6  N   UNL     1      47.711   5.569  14.022  0.00  0.00    +0.000 NA
ENDROOT
BRANCH   1   7
ATOM      7  C   UNL     1      49.412   6.962  15.126  0.00  0.00    +0.000 C 
BRANCH   7   8
ATOM      8  N   UNL     1      50.656   7.279  14.421  0.00  0.00    +0.000 NA
ATOM      9  H   UNL     1      50.671   6.774  13.535  0.00  0.00    +0.000 HD
ATOM     10  H   UNL     1      51.429   6.899  14.971  0.00  0.00    +0.000 HD
ENDBRANCH   7   8
ENDBRANCH   1   7
BRANCH   4  11
ATOM     11  C   UNL     1      44.835   6.476  11.735  0.00  0.00    +0.000 C 
BRANCH  11  12
ATOM     12  N   UNL     1      45.159   6.099  10.364  0.00  0.00    +0.000 N 
ATOM     13  H   UNL     1      45.857   6.662   9.891  0.00  0.00    +0.000 HD
BRANCH  12  14
ATOM     14  C   UNL     1      45.002   4.794   9.919  0.00  0.00    +0.000 A 
ATOM     15  C   UNL     1      45.504   4.428   8.667  0.00  0.00    +0.000 A 
ATOM     16  C   UNL     1      45.296   3.142   8.164  0.00  0.00    +0.000 A 
ATOM     17  C   UNL     1      44.567   2.247   8.926  0.00  0.00    +0.000 A 
ATOM     18  N   UNL     1      44.040   2.551  10.127  0.00  0.00    +0.000 NA
ATOM     19  C   UNL     1      44.256   3.811  10.578  0.00  0.00    +0.000 A 
ENDBRANCH  12  14
ENDBRANCH  11  12
ENDBRANCH   4  11
TORSDOF 5
ENDMDL
