MODEL 1
REMARK VINA RESULT:    -8.656      0.000      0.000
REMARK INTER + INTRA:         -11.314
REMARK INTER:                 -10.680
REMARK INTRA:                  -0.634
REMARK UNBOUND:                -0.634
REMARK  Name = 
REMARK  4 active torsions:
REMARK  status: ('A' for Active; 'I' for Inactive)
REMARK    1  A    between atoms: C_2  and  C_4
REMARK    2  A    between atoms: N_8  and  C_9
REMARK    3  A    between atoms: C_9  and  C_10
REMARK    4  A    between atoms: C_14  and  C_15
REMARK                            x       y       z     vdW  Elec       q    Type
REMARK                         _______ _______ _______ _____ _____    ______ ____
ROOT
ATOM      1  C   UNL     1      43.493   3.667  11.282  0.00  0.00    +0.000 C 
ENDROOT
BRANCH   1   6
ATOM      2  C   UNL     1      46.572   2.505   7.311  0.00  0.00    +0.000 A 
ATOM      3  C   UNL     1      46.013   3.721   7.688  0.00  0.00    +0.000 A 
ATOM      4  C   UNL     1      45.155   3.761   8.786  0.00  0.00    +0.000 A 
ATOM      5  C   UNL     1      44.879   2.594   9.492  0.00  0.00    +0.000 A 
ATOM      6  N   UNL     1      44.074   2.545  10.590  0.00  0.00    +0.000 N 
ATOM      7  N   UNL     1      45.391   1.407   9.111  0.00  0.00    +0.000 NA
ATOM      8  C   UNL     1      46.214   1.378   8.032  0.00  0.00    +0.000 A 
ATOM      9  H   UNL     1      43.969   1.615  10.981  0.00  0.00    +0.000 HD
BRANCH   2  11
ATOM     10  N   UNL     1      47.400   3.295   5.175  0.00  0.00    +0.000 N 
ATOM     11  C   UNL     1      47.517   2.379   6.184  0.00  0.00    +0.000 C 
ATOM     12  O   UNL     1      48.387   1.519   6.169  0.00  0.00    +0.000 OA
ATOM     13  H   UNL     1      48.115   3.268   4.457  0.00  0.00    +0.000 HD
ATOM     14  H   UNL     1      46.870   4.149   5.272  0.00  0.00    +0.000 HD
ENDBRANCH   2  11
ENDBRANCH   1   6
BRANCH   1  15
ATOM     15  C   UNL     1      44.509   4.531  11.982  0.00  0.00    +0.000 A 
ATOM     16  C   UNL     1      45.447   4.048  12.885  0.00  0.00    +0.000 A 
ATOM     17  N   UNL     1      46.367   4.821  13.504  0.00  0.00    +0.000 NA
ATOM     18  C   UNL     1      46.357   6.143  13.205  0.00  0.00    +0.000 A 
ATOM     19  C   UNL     1      45.482   6.759  12.310  0.00  0.00    +0.000 A 
ATOM     20  C   UNL     1      44.547   5.906  11.702  0.00  0.00    +0.000 A 
BRANCH  19  21
ATOM     21  C   UNL     1      45.539   8.206  12.006  0.00  0.00    +0.000 A 
ATOM     22  C   UNL     1      46.645   8.992  12.382  0.00  0.00    +0.000 A 
ATOM     23  C   UNL     1      46.710  10.357  12.082  0.00  0.00    +0.000 A 
ATOM     24  C   UNL     1      45.675  10.967  11.383  0.00  0.00    +0.000 A 
ATOM     25  C   UNL     1      44.574  10.211  10.997  0.00  0.00    +0.000 A 
ATOM     26 CL   UNL     1      43.293  10.953  10.118  0.00  0.00    +0.000 Cl
ATOM     27  C   UNL     1      44.499   8.851  11.310  0.00  0.00    +0.000 A 
ENDBRANCH  19  21
ENDBRANCH   1  15
TORSDOF 4
ENDMDL
MODEL 2
REMARK VINA RESULT:    -8.541      1.924      2.286
REMARK INTER + INTRA:         -11.173
REMARK INTER:                 -10.469
REMARK INTRA:                  -0.703
REMARK UNBOUND:                -0.634
REMARK  Name = 
REMARK  4 active torsions:
REMARK  status: ('A' for Active; 'I' for Inactive)
REMARK    1  A    between atoms: C_2  and  C_4
REMARK    2  A    between atoms: N_8  and  C_9
REMARK    3  A    between atoms: C_9  and  C_10
REMARK    4  A    between atoms: C_14  and  C_15
REMARK                            x       y       z     vdW  Elec       q    Type
REMARK                         _______ _______ _______ _____ _____    ______ ____
ROOT
ATOM      1  C   UNL     1      43.812   4.549  11.221  0.00  0.00    +0.000 C 
ENDROOT
BRANCH   1   6
ATOM      2  C   UNL     1      46.614   2.657   7.326  0.00  0.00    +0.000 A 
ATOM      3  C   UNL     1      46.328   3.973   7.670  0.00  0.00    +0.000 A 
ATOM      4  C   UNL     1      45.486   4.223   8.753  0.00  0.00    +0.000 A 
ATOM      5  C   UNL     1      44.954   3.160   9.475  0.00  0.00    +0.000 A 
ATOM      6  N   UNL     1      44.144   3.312  10.560  0.00  0.00    +0.000 N 
ATOM      7  N   UNL     1      45.199   1.882   9.126  0.00  0.00    +0.000 NA
ATOM      8  C   UNL     1      46.010   1.651   8.061  0.00  0.00    +0.000 A 
ATOM      9  H   UNL     1      43.833   2.436  10.966  0.00  0.00    +0.000 HD
BRANCH   2  11
ATOM     10  N   UNL     1      47.416   3.043   5.072  0.00  0.00    +0.000 N 
ATOM     11  C   UNL     1      47.523   2.304   6.218  0.00  0.00    +0.000 C 
ATOM     12  O   UNL     1      48.358   1.416   6.330  0.00  0.00    +0.000 OA
ATOM     13  H   UNL     1      48.110   2.865   4.355  0.00  0.00    +0.000 HD
ATOM     14  H   UNL     1      46.923   3.923   5.034  0.00  0.00    +0.000 HD
ENDBRANCH   2  11
ENDBRANCH   1   6
BRANCH   1  15
ATOM     15  C   UNL     1      44.913   5.067  12.108  0.00  0.00    +0.000 A 
ATOM     16  C   UNL     1      45.356   4.419  13.253  0.00  0.00    +0.000 A 
ATOM     17  N   UNL     1      46.352   4.878  14.043  0.00  0.00    +0.000 NA
ATOM     18  C   UNL     1      46.942   6.040  13.672  0.00  0.00    +0.000 A 
ATOM     19  C   UNL     1      46.606   6.788  12.543  0.00  0.00    +0.000 A 
ATOM     20  C   UNL     1      45.563   6.264  11.764  0.00  0.00    +0.000 A 
BRANCH  19  21
ATOM     21  C   UNL     1      47.307   8.038  12.176  0.00  0.00    +0.000 A 
ATOM     22  C   UNL     1      46.647   9.283  12.198  0.00  0.00    +0.000 A 
ATOM     23  C   UNL     1      47.311  10.469  11.868  0.00  0.00    +0.000 A 
ATOM     24  C   UNL     1      48.657  10.442  11.521  0.00  0.00    +0.000 A 
ATOM     25  C   UNL     1      49.331   9.226  11.496  0.00  0.00    +0.000 A 
ATOM     26 CL   UNL     1      51.001   9.183  11.082  0.00  0.00    +0.000 Cl
ATOM     27  C   UNL     1      48.667   8.038  11.809  0.00  0.00    +0.000 A 
ENDBRANCH  19  21
ENDBRANCH   1  15
TORSDOF 4
ENDMDL
MODEL 3
REMARK VINA RESULT:    -8.447      3.005      4.209
REMARK INTER + INTRA:         -11.056
REMARK INTER:                 -10.663
REMARK INTRA:                  -0.393
REMARK UNBOUND:                -0.634
REMARK  Name = 
REMARK  4 active torsions:
REMARK  status: ('A' for Active; 'I' for Inactive)
REMARK    1  A    between atoms: C_2  and  C_4
REMARK    2  A    between atoms: N_8  and  C_9
REMARK    3  A    between atoms: C_9  and  C_10
REMARK    4  A    between atoms: C_14  and  C_15
REMARK                            x       y       z     vdW  Elec       q    Type
REMARK                         _______ _______ _______ _____ _____    ______ ____
ROOT
ATOM      1  C   UNL     1      43.653   3.897  11.160  0.00  0.00    +0.000 C 
ENDROOT
BRANCH   1   6
ATOM      2  C   UNL     1      46.611   2.528   7.164  0.00  0.00    +0.000 A 
ATOM      3  C   UNL     1      45.974   3.733   7.438  0.00  0.00    +0.000 A 
ATOM      4  C   UNL     1      45.173   3.832   8.575  0.00  0.00    +0.000 A 
ATOM      5  C   UNL     1      45.029   2.735   9.418  0.00  0.00    +0.000 A 
ATOM      6  N   UNL     1      44.288   2.750  10.562  0.00  0.00    +0.000 N 
ATOM      7  N   UNL     1      45.616   1.555   9.140  0.00  0.00    +0.000 NA
ATOM      8  C   UNL     1      46.384   1.466   8.023  0.00  0.00    +0.000 A 
ATOM      9  H   UNL     1      44.279   1.866  11.056  0.00  0.00    +0.000 HD
BRANCH   2  11
ATOM     10  N   UNL     1      47.422   3.282   5.008  0.00  0.00    +0.000 N 
ATOM     11  C   UNL     1      47.505   2.347   6.003  0.00  0.00    +0.000 C 
ATOM     12  O   UNL     1      48.308   1.425   5.948  0.00  0.00    +0.000 OA
ATOM     13  H   UNL     1      48.108   3.212   4.266  0.00  0.00    +0.000 HD
ATOM     14  H   UNL     1      46.962   4.171   5.133  0.00  0.00    +0.000 HD
ENDBRANCH   2  11
ENDBRANCH   1   6
BRANCH   1  15
ATOM     15  C   UNL     1      44.626   4.953  11.613  0.00  0.00    +0.000 A 
ATOM     16  C   UNL     1      44.789   6.179  10.982  0.00  0.00    +0.000 A 
ATOM     17  N   UNL     1      45.654   7.131  11.396  0.00  0.00    +0.000 NA
ATOM     18  C   UNL     1      46.392   6.852  12.497  0.00  0.00    +0.000 A 
ATOM     19  C   UNL     1      46.322   5.669  13.234  0.00  0.00    +0.000 A 
ATOM     20  C   UNL     1      45.409   4.716  12.754  0.00  0.00    +0.000 A 
BRANCH  19  21
ATOM     21  C   UNL     1      47.137   5.434  14.446  0.00  0.00    +0.000 A 
ATOM     22  C   UNL     1      48.171   6.315  14.817  0.00  0.00    +0.000 A 
ATOM     23  C   UNL     1      48.933   6.106  15.972  0.00  0.00    +0.000 A 
ATOM     24  C   UNL     1      48.669   5.015  16.793  0.00  0.00    +0.000 A 
ATOM     25  C   UNL     1      47.650   4.133  16.450  0.00  0.00    +0.000 A 
ATOM     26 CL   UNL     1      47.306   2.788  17.467  0.00  0.00    +0.000 Cl
ATOM     27  C   UNL     1      46.899   4.332  15.289  0.00  0.00    +0.000 A 
ENDBRANCH  19  21
ENDBRANCH   1  15
TORSDOF 4
ENDMDL
MODEL 4
REMARK VINA RESULT:    -8.216      4.038      7.231
REMARK INTER + INTRA:         -10.771
REMARK INTER:                 -10.015
REMARK INTRA:                  -0.756
REMARK UNBOUND:                -0.634
REMARK  Name = 
REMARK  4 active torsions:
REMARK  status: ('A' for Active; 'I' for Inactive)
REMARK    1  A    between atoms: C_2  and  C_4
REMARK    2  A    between atoms: N_8  and  C_9
REMARK    3  A    between atoms: C_9  and  C_10
REMARK    4  A    between atoms: C_14  and  C_15
REMARK                            x       y       z     vdW  Elec       q    Type
REMARK                         _______ _______ _______ _____ _____    ______ ____
ROOT
ATOM      1  C   UNL     1      44.815   6.590  12.566  0.00  0.00    +0.000 C 
ENDROOT
BRANCH   1   6
ATOM      2  C   UNL     1      49.818   7.841  12.547  0.00  0.00    +0.000 A 
ATOM      3  C   UNL     1      48.874   7.903  11.529  0.00  0.00    +0.000 A 
ATOM      4  C   UNL     1      47.580   7.445  11.777  0.00  0.00    +0.000 A 
ATOM      5  C   UNL     1      47.252   6.944  13.032  0.00  0.00    +0.000 A 
ATOM      6  N   UNL     1      46.008   6.500  13.369  0.00  0.00    +0.000 N 
ATOM      7  N   UNL     1      48.171   6.850  14.012  0.00  0.00    +0.000 NA
ATOM      8  C   UNL     1      49.431   7.287  13.756  0.00  0.00    +0.000 A 
ATOM      9  H   UNL     1      45.939   6.157  14.321  0.00  0.00    +0.000 HD
BRANCH   2  11
ATOM     10  N   UNL     1      52.092   8.015  13.367  0.00  0.00    +0.000 N 
ATOM     11  C   UNL     1      51.199   8.337  12.382  0.00  0.00    +0.000 C 
ATOM     12  O   UNL     1      51.538   8.975  11.395  0.00  0.00    +0.000 OA
ATOM     13  H   UNL     1      53.059   8.269  13.198  0.00  0.00    +0.000 HD
ATOM     14  H   UNL     1      51.913   7.298  14.053  0.00  0.00    +0.000 HD
ENDBRANCH   2  11
ENDBRANCH   1   6
BRANCH   1  15
ATOM     15  C   UNL     1      44.419   5.282  11.933  0.00  0.00    +0.000 A 
ATOM     16  C   UNL     1      43.372   4.488  12.382  0.00  0.00    +0.000 A 
ATOM     17  N   UNL     1      43.009   3.321  11.807  0.00  0.00    +0.000 NA
ATOM     18  C   UNL     1      43.721   2.923  10.725  0.00  0.00    +0.000 A 
ATOM     19  C   UNL     1      44.786   3.626  10.160  0.00  0.00    +0.000 A 
ATOM     20  C   UNL     1      45.120   4.829  10.803  0.00  0.00    +0.000 A 
BRANCH  19  21
ATOM     21  C   UNL     1      45.508   3.152   8.959  0.00  0.00    +0.000 A 
ATOM     22  C   UNL     1      45.981   4.053   7.984  0.00  0.00    +0.000 A 
ATOM     23  C   UNL     1      46.679   3.610   6.856  0.00  0.00    +0.000 A 
ATOM     24  C   UNL     1      46.935   2.254   6.681  0.00  0.00    +0.000 A 
ATOM     25  C   UNL     1      46.481   1.347   7.632  0.00  0.00    +0.000 A 
ATOM     26 CL   UNL     1      46.805  -0.332   7.433  0.00  0.00    +0.000 Cl
ATOM     27  C   UNL     1      45.770   1.785   8.752  0.00  0.00    +0.000 A 
ENDBRANCH  19  21
ENDBRANCH   1  15
TORSDOF 4
ENDMDL
MODEL 5
REMARK VINA RESULT:    -8.020      4.879      8.477
REMARK INTER + INTRA:         -10.529
REMARK INTER:                 -10.074
REMARK INTRA:                  -0.455
REMARK UNBOUND:                -0.634
REMARK  Name = 
REMARK  4 active torsions:
REMARK  status: ('A' for Active; 'I' for Inactive)
REMARK    1  A    between atoms: C_2  and  C_4
REMARK    2  A    between atoms: N_8  and  C_9
REMARK    3  A    between atoms: C_9  and  C_10
REMARK    4  A    between atoms: C_14  and  C_15
REMARK                            x       y       z     vdW  Elec       q    Type
REMARK                         _______ _______ _______ _____ _____    ______ ____
ROOT
ATOM      1  C   UNL     1      46.121   5.361  13.588  0.00  0.00    +0.000 C 
ENDROOT
BRANCH   1   6
ATOM      2  C   UNL     1      48.516   4.361  18.045  0.00  0.00    +0.000 A 
ATOM      3  C   UNL     1      48.597   5.470  17.211  0.00  0.00    +0.000 A 
ATOM      4  C   UNL     1      47.880   5.473  16.016  0.00  0.00    +0.000 A 
ATOM      5  C   UNL     1      47.093   4.377  15.678  0.00  0.00    +0.000 A 
ATOM      6  N   UNL     1      46.341   4.305  14.544  0.00  0.00    +0.000 N 
ATOM      7  N   UNL     1      47.037   3.285  16.465  0.00  0.00    +0.000 NA
ATOM      8  C   UNL     1      47.749   3.289  17.621  0.00  0.00    +0.000 A 
ATOM      9  H   UNL     1      45.833   3.433  14.444  0.00  0.00    +0.000 HD
BRANCH   2  11
ATOM     10  N   UNL     1      48.544   3.679  20.370  0.00  0.00    +0.000 N 
ATOM     11  C   UNL     1      49.212   4.290  19.345  0.00  0.00    +0.000 C 
ATOM     12  O   UNL     1      50.346   4.726  19.490  0.00  0.00    +0.000 OA
ATOM     13  H   UNL     1      49.066   3.542  21.229  0.00  0.00    +0.000 HD
ATOM     14  H   UNL     1      47.730   3.102  20.224  0.00  0.00    +0.000 HD
ENDBRANCH   2  11
ENDBRANCH   1   6
BRANCH   1  15
ATOM     15  C   UNL     1      45.214   4.962  12.454  0.00  0.00    +0.000 A 
ATOM     16  C   UNL     1      43.840   5.160  12.451  0.00  0.00    +0.000 A 
ATOM     17  N   UNL     1      43.029   4.814  11.428  0.00  0.00    +0.000 NA
ATOM     18  C   UNL     1      43.615   4.244  10.347  0.00  0.00    +0.000 A 
ATOM     19  C   UNL     1      44.982   3.998  10.210  0.00  0.00    +0.000 A 
ATOM     20  C   UNL     1      45.773   4.375  11.306  0.00  0.00    +0.000 A 
BRANCH  19  21
ATOM     21  C   UNL     1      45.566   3.396   8.991  0.00  0.00    +0.000 A 
ATOM     22  C   UNL     1      45.969   4.192   7.901  0.00  0.00    +0.000 A 
ATOM     23  C   UNL     1      46.537   3.628   6.753  0.00  0.00    +0.000 A 
ATOM     24  C   UNL     1      46.730   2.253   6.674  0.00  0.00    +0.000 A 
ATOM     25  C   UNL     1      46.343   1.447   7.739  0.00  0.00    +0.000 A 
ATOM     26 CL   UNL     1      46.591  -0.254   7.657  0.00  0.00    +0.000 Cl
ATOM     27  C   UNL     1      45.761   2.006   8.879  0.00  0.00    +0.000 A 
ENDBRANCH  19  21
ENDBRANCH   1  15
TORSDOF 4
ENDMDL
MODEL 6
REMARK VINA RESULT:    -6.993      4.809      8.160
REMARK INTER + INTRA:          -9.262
REMARK INTER:                  -8.789
REMARK INTRA:                  -0.473
REMARK UNBOUND:                -0.634
REMARK  Name = 
REMARK  4 active torsions:
REMARK  status: ('A' for Active; 'I' for Inactive)
REMARK    1  A    between atoms: C_2  and  C_4
REMARK    2  A    between atoms: N_8  and  C_9
REMARK    3  A    between atoms: C_9  and  C_10
REMARK    4  A    between atoms: C_14  and  C_15
REMARK                            x       y       z     vdW  Elec       q    Type
REMARK                         _______ _______ _______ _____ _____    ______ ____
ROOT
ATOM      1  C   UNL     1      45.799   4.763  13.907  0.00  0.00    +0.000 C 
ENDROOT
BRANCH   1   6
ATOM      2  C   UNL     1      50.050   6.463  16.281  0.00  0.00    +0.000 A 
ATOM      3  C   UNL     1      49.050   5.608  16.732  0.00  0.00    +0.000 A 
ATOM      4  C   UNL     1      47.960   5.346  15.905  0.00  0.00    +0.000 A 
ATOM      5  C   UNL     1      47.889   5.931  14.645  0.00  0.00    +0.000 A 
ATOM      6  N   UNL     1      46.874   5.711  13.763  0.00  0.00    +0.000 N 
ATOM      7  N   UNL     1      48.837   6.788  14.216  0.00  0.00    +0.000 NA
ATOM      8  C   UNL     1      49.888   7.046  15.036  0.00  0.00    +0.000 A 
ATOM      9  H   UNL     1      46.969   6.222  12.893  0.00  0.00    +0.000 HD
BRANCH   2  11
ATOM     10  N   UNL     1      51.365   8.038  17.571  0.00  0.00    +0.000 N 
ATOM     11  C   UNL     1      51.255   6.767  17.077  0.00  0.00    +0.000 C 
ATOM     12  O   UNL     1      52.100   5.914  17.314  0.00  0.00    +0.000 OA
ATOM     13  H   UNL     1      52.140   8.211  18.200  0.00  0.00    +0.000 HD
ATOM     14  H   UNL     1      50.587   8.679  17.605  0.00  0.00    +0.000 HD
ENDBRANCH   2  11
ENDBRANCH   1   6
BRANCH   1  15
ATOM     15  C   UNL     1      44.970   4.604  12.660  0.00  0.00    +0.000 A 
ATOM     16  C   UNL     1      43.634   4.968  12.564  0.00  0.00    +0.000 A 
ATOM     17  N   UNL     1      42.894   4.836  11.442  0.00  0.00    +0.000 NA
ATOM     18  C   UNL     1      43.516   4.320  10.354  0.00  0.00    +0.000 A 
ATOM     19  C   UNL     1      44.853   3.924  10.306  0.00  0.00    +0.000 A 
ATOM     20  C   UNL     1      45.570   4.081  11.503  0.00  0.00    +0.000 A 
BRANCH  19  21
ATOM     21  C   UNL     1      45.484   3.391   9.078  0.00  0.00    +0.000 A 
ATOM     22  C   UNL     1      45.863   4.240   8.020  0.00  0.00    +0.000 A 
ATOM     23  C   UNL     1      46.474   3.741   6.864  0.00  0.00    +0.000 A 
ATOM     24  C   UNL     1      46.735   2.381   6.745  0.00  0.00    +0.000 A 
ATOM     25  C   UNL     1      46.373   1.523   7.778  0.00  0.00    +0.000 A 
ATOM     26 CL   UNL     1      46.705  -0.161   7.646  0.00  0.00    +0.000 Cl
ATOM     27  C   UNL     1      45.748   2.016   8.926  0.00  0.00    +0.000 A 
ENDBRANCH  19  21
ENDBRANCH   1  15
TORSDOF 4
ENDMDL
MODEL 7
REMARK VINA RESULT:    -6.982      6.226      8.622
REMARK INTER + INTRA:          -9.249
REMARK INTER:                  -8.647
REMARK INTRA:                  -0.602
REMARK UNBOUND:                -0.634
REMARK  Name = 
REMARK  4 active torsions:
REMARK  status: ('A' for Active; 'I' for Inactive)
REMARK    1  A    between atoms: C_2  and  C_4
REMARK    2  A    between atoms: N_8  and  C_9
REMARK    3  A    between atoms: C_9  and  C_10
REMARK    4  A    between atoms: C_14  and  C_15
REMARK                            x       y       z     vdW  Elec       q    Type
REMARK                         _______ _______ _______ _____ _____    ______ ____
ROOT
ATOM      1  C   UNL     1      47.923   3.791  17.226  0.00  0.00    +0.000 C 
ENDROOT
BRANCH   1   6
ATOM      2  C   UNL     1      52.745   2.140  18.011  0.00  0.00    +0.000 A 
ATOM      3  C   UNL     1      52.181   3.393  18.217  0.00  0.00    +0.000 A 
ATOM      4  C   UNL     1      50.848   3.602  17.867  0.00  0.00    +0.000 A 
ATOM      5  C   UNL     1      50.102   2.558  17.328  0.00  0.00    +0.000 A 
ATOM      6  N   UNL     1      48.789   2.666  16.981  0.00  0.00    +0.000 N 
ATOM      7  N   UNL     1      50.653   1.351  17.094  0.00  0.00    +0.000 NA
ATOM      8  C   UNL     1      51.956   1.163  17.427  0.00  0.00    +0.000 A 
ATOM      9  H   UNL     1      48.396   1.815  16.594  0.00  0.00    +0.000 HD
BRANCH   2  11
ATOM     10  N   UNL     1      54.316   0.844  19.325  0.00  0.00    +0.000 N 
ATOM     11  C   UNL     1      54.137   1.823  18.386  0.00  0.00    +0.000 C 
ATOM     12  O   UNL     1      55.088   2.383  17.858  0.00  0.00    +0.000 OA
ATOM     13  H   UNL     1      55.273   0.560  19.502  0.00  0.00    +0.000 HD
ATOM     14  H   UNL     1      53.584   0.204  19.592  0.00  0.00    +0.000 HD
ENDBRANCH   2  11
ENDBRANCH   1   6
BRANCH   1  15
ATOM     15  C   UNL     1      47.900   4.785  16.095  0.00  0.00    +0.000 A 
ATOM     16  C   UNL     1      48.680   5.933  16.054  0.00  0.00    +0.000 A 
ATOM     17  N   UNL     1      48.668   6.818  15.033  0.00  0.00    +0.000 NA
ATOM     18  C   UNL     1      47.840   6.546  13.995  0.00  0.00    +0.000 A 
ATOM     19  C   UNL     1      47.012   5.427  13.899  0.00  0.00    +0.000 A 
ATOM     20  C   UNL     1      47.065   4.545  14.991  0.00  0.00    +0.000 A 
BRANCH  19  21
ATOM     21  C   UNL     1      46.149   5.171  12.725  0.00  0.00    +0.000 A 
ATOM     22  C   UNL     1      46.260   5.942  11.552  0.00  0.00    +0.000 A 
ATOM     23  C   UNL     1      45.457   5.692  10.433  0.00  0.00    +0.000 A 
ATOM     24  C   UNL     1      44.532   4.654  10.457  0.00  0.00    +0.000 A 
ATOM     25  C   UNL     1      44.407   3.877  11.603  0.00  0.00    +0.000 A 
ATOM     26 CL   UNL     1      43.275   2.581  11.637  0.00  0.00    +0.000 Cl
ATOM     27  C   UNL     1      45.196   4.134  12.726  0.00  0.00    +0.000 A 
ENDBRANCH  19  21
ENDBRANCH   1  15
TORSDOF 4
ENDMDL
MODEL 8
REMARK VINA RESULT:    -6.689      4.344      6.609
REMARK INTER + INTRA:          -8.887
REMARK INTER:                  -8.167
REMARK INTRA:                  -0.720
REMARK UNBOUND:                -0.634
REMARK  Name = 
REMARK  4 active torsions:
REMARK  status: ('A' for Active; 'I' for Inactive)
REMARK    1  A    between atoms: C_2  and  C_4
REMARK    2  A    between atoms: N_8  and  C_9
REMARK    3  A    between atoms: C_9  and  C_10
REMARK    4  A    between atoms: C_14  and  C_15
REMARK                            x       y       z     vdW  Elec       q    Type
REMARK                         _______ _______ _______ _____ _____    ______ ____
ROOT
ATOM      1  C   UNL     1      46.460   8.763  12.814  0.00  0.00    +0.000 C 
ENDROOT
BRANCH   1   6
ATOM      2  C   UNL     1      44.341   4.243  11.519  0.00  0.00    +0.000 A 
ATOM      3  C   UNL     1      45.246   5.041  10.829  0.00  0.00    +0.000 A 
ATOM      4  C   UNL     1      45.627   6.264  11.378  0.00  0.00    +0.000 A 
ATOM      5  C   UNL     1      45.107   6.665  12.605  0.00  0.00    +0.000 A 
ATOM      6  N   UNL     1      45.442   7.830  13.226  0.00  0.00    +0.000 N 
ATOM      7  N   UNL     1      44.203   5.912  13.262  0.00  0.00    +0.000 NA
ATOM      8  C   UNL     1      43.830   4.728  12.711  0.00  0.00    +0.000 A 
ATOM      9  H   UNL     1      44.966   7.976  14.109  0.00  0.00    +0.000 HD
BRANCH   2  11
ATOM     10  N   UNL     1      44.662   2.358  10.031  0.00  0.00    +0.000 N 
ATOM     11  C   UNL     1      43.912   2.919  11.028  0.00  0.00    +0.000 C 
ATOM     12  O   UNL     1      42.953   2.334  11.512  0.00  0.00    +0.000 OA
ATOM     13  H   UNL     1      44.426   1.407   9.771  0.00  0.00    +0.000 HD
ATOM     14  H   UNL     1      45.583   2.691   9.787  0.00  0.00    +0.000 HD
ENDBRANCH   2  11
ENDBRANCH   1   6
BRANCH   1  15
ATOM     15  C   UNL     1      47.819   8.457  13.386  0.00  0.00    +0.000 A 
ATOM     16  C   UNL     1      48.987   9.098  12.996  0.00  0.00    +0.000 A 
ATOM     17  N   UNL     1      50.205   8.832  13.517  0.00  0.00    +0.000 NA
ATOM     18  C   UNL     1      50.264   7.882  14.482  0.00  0.00    +0.000 A 
ATOM     19  C   UNL     1      49.171   7.170  14.977  0.00  0.00    +0.000 A 
ATOM     20  C   UNL     1      47.934   7.487  14.394  0.00  0.00    +0.000 A 
BRANCH  19  21
ATOM     21  C   UNL     1      49.296   6.161  16.052  0.00  0.00    +0.000 A 
ATOM     22  C   UNL     1      50.411   6.142  16.914  0.00  0.00    +0.000 A 
ATOM     23  C   UNL     1      50.525   5.201  17.942  0.00  0.00    +0.000 A 
ATOM     24  C   UNL     1      49.519   4.263  18.144  0.00  0.00    +0.000 A 
ATOM     25  C   UNL     1      48.407   4.264  17.309  0.00  0.00    +0.000 A 
ATOM     26 CL   UNL     1      47.149   3.117  17.560  0.00  0.00    +0.000 Cl
ATOM     27  C   UNL     1      48.298   5.193  16.271  0.00  0.00    +0.000 A 
ENDBRANCH  19  21
ENDBRANCH   1  15
TORSDOF 4
ENDMDL
MODEL 9
REMARK VINA RESULT:    -6.537      5.041      8.638
REMARK INTER + INTRA:          -8.699
REMARK INTER:                  -8.007
REMARK INTRA:                  -0.692
REMARK UNBOUND:                -0.634
REMARK  Name = 
REMARK  4 active torsions:
REMARK  status: ('A' for Active; 'I' for Inactive)
REMARK    1  A    between atoms: C_2  and  C_4
REMARK    2  A    between atoms: N_8  and  C_9
REMARK    3  A    between atoms: C_9  and  C_10
REMARK    4  A    between atoms: C_14  and  C_15
REMARK                            x       y       z     vdW  Elec       q    Type
REMARK                         _______ _______ _______ _____ _____    ______ ____
ROOT
ATOM      1  C   UNL     1      48.856   7.509  14.051  0.00  0.00    +0.000 C 
ENDROOT
BRANCH   1   6
ATOM      2  C   UNL     1      48.728   5.209  18.665  0.00  0.00    +0.000 A 
ATOM      3  C   UNL     1      48.562   4.677  17.392  0.00  0.00    +0.000 A 
ATOM      4  C   UNL     1      48.586   5.532  16.292  0.00  0.00    +0.000 A 
ATOM      5  C   UNL     1      48.781   6.897  16.480  0.00  0.00    +0.000 A 
ATOM      6  N   UNL     1      48.843   7.801  15.462  0.00  0.00    +0.000 N 
ATOM      7  N   UNL     1      48.908   7.424  17.713  0.00  0.00    +0.000 NA
ATOM      8  C   UNL     1      48.870   6.582  18.778  0.00  0.00    +0.000 A 
ATOM      9  H   UNL     1      48.980   8.757  15.770  0.00  0.00    +0.000 HD
BRANCH   2  11
ATOM     10  N   UNL     1      48.390   3.061  19.735  0.00  0.00    +0.000 N 
ATOM     11  C   UNL     1      48.752   4.372  19.881  0.00  0.00    +0.000 C 
ATOM     12  O   UNL     1      49.113   4.819  20.961  0.00  0.00    +0.000 OA
ATOM     13  H   UNL     1      48.508   2.468  20.548  0.00  0.00    +0.000 HD
ATOM     14  H   UNL     1      48.329   2.609  18.835  0.00  0.00    +0.000 HD
ENDBRANCH   2  11
ENDBRANCH   1   6
BRANCH   1  15
ATOM     15  C   UNL     1      47.492   7.565  13.415  0.00  0.00    +0.000 A 
ATOM     16  C   UNL     1      46.713   8.713  13.349  0.00  0.00    +0.000 A 
ATOM     17  N   UNL     1      45.495   8.765  12.768  0.00  0.00    +0.000 NA
ATOM     18  C   UNL     1      45.028   7.619  12.218  0.00  0.00    +0.000 A 
ATOM     19  C   UNL     1      45.707   6.400  12.201  0.00  0.00    +0.000 A 
ATOM     20  C   UNL     1      46.965   6.405  12.823  0.00  0.00    +0.000 A 
BRANCH  19  21
ATOM     21  C   UNL     1      45.154   5.187  11.560  0.00  0.00    +0.000 A 
ATOM     22  C   UNL     1      44.485   4.200  12.311  0.00  0.00    +0.000 A 
ATOM     23  C   UNL     1      43.946   3.059  11.706  0.00  0.00    +0.000 A 
ATOM     24  C   UNL     1      44.050   2.884  10.331  0.00  0.00    +0.000 A 
ATOM     25  C   UNL     1      44.703   3.846   9.568  0.00  0.00    +0.000 A 
ATOM     26 CL   UNL     1      44.824   3.646   7.862  0.00  0.00    +0.000 Cl
ATOM     27  C   UNL     1      45.256   4.978  10.171  0.00  0.00    +0.000 A 
ENDBRANCH  19  21
ENDBRANCH   1  15
TORSDOF 4
ENDMDL
