MODEL 1
REMARK VINA RESULT:    -6.827      0.000      0.000
REMARK INTER + INTRA:         -10.489
REMARK INTER:                  -9.621
REMARK INTRA:                  -0.869
REMARK UNBOUND:                -0.869
REMARK  Name = 
REMARK  12 active torsions:
REMARK  status: ('A' for Active; 'I' for Inactive)
REMARK    1  A    between atoms: C_1  and  C_2
REMARK    2  A    between atoms: C_2  and  C_3
REMARK    3  A    between atoms: C_2  and  N_4
REMARK    4  A    between atoms: C_5  and  C_7
REMARK    5  A    between atoms: C_10  and  O_11
REMARK    6  A    between atoms: O_11  and  C_12
REMARK    7  A    between atoms: C_12  and  C_13
REMARK    8  A    between atoms: C_13  and  C_14
REMARK    9  A    between atoms: C_13  and  C_15
REMARK   10  A    between atoms: C_13  and  C_16
REMARK   11  A    between atoms: C_19  and  S_20
REMARK   12  A    between atoms: S_20  and  C_21
REMARK                            x       y       z     vdW  Elec       q    Type
REMARK                         _______ _______ _______ _____ _____    ______ ____
ROOT
ATOM      1  O   UNL     1      46.200   4.366  12.529  0.00  0.00    +0.000 OA
ENDROOT
BRANCH   1   5
ATOM      2  C   UNL     1      48.291   5.485  15.893  0.00  0.00    +0.000 A 
ATOM      3  C   UNL     1      47.540   4.319  15.983  0.00  0.00    +0.000 A 
ATOM      4  C   UNL     1      46.813   3.905  14.868  0.00  0.00    +0.000 A 
ATOM      5  C   UNL     1      46.852   4.659  13.697  0.00  0.00    +0.000 A 
ATOM      6  C   UNL     1      47.630   5.815  13.709  0.00  0.00    +0.000 A 
ATOM      7  N   UNL     1      48.353   6.256  14.773  0.00  0.00    +0.000 NA
BRANCH   2   9
ATOM      8  N   UNL     1      49.093   5.050  18.143  0.00  0.00    +0.000 N 
ATOM      9  C   UNL     1      49.105   5.920  17.073  0.00  0.00    +0.000 C 
ATOM     10  O   UNL     1      49.715   6.984  17.064  0.00  0.00    +0.000 OA
ATOM     11  H   UNL     1      48.626   4.160  17.990  0.00  0.00    +0.000 HD
BRANCH   8  13
ATOM     12  C   UNL     1      49.053   4.786  20.570  0.00  0.00    +0.000 C 
ATOM     13  C   UNL     1      49.834   5.303  19.367  0.00  0.00    +0.000 C 
ATOM     14  C   UNL     1      51.224   4.676  19.309  0.00  0.00    +0.000 C 
ENDBRANCH   8  13
ENDBRANCH   2   9
ENDBRANCH   1   5
BRANCH   1  15
ATOM     15  C   UNL     1      45.049   5.165  12.229  0.00  0.00    +0.000 C 
BRANCH  15  16
ATOM     16  C   UNL     1      44.098   4.451  11.223  0.00  0.00    +0.000 C 
ATOM     17  C   UNL     1      43.241   3.430  12.008  0.00  0.00    +0.000 C 
ATOM     18  C   UNL     1      43.126   5.516  10.658  0.00  0.00    +0.000 C 
BRANCH  16  19
ATOM     19  C   UNL     1      44.881   3.822  10.049  0.00  0.00    +0.000 A 
ATOM     20  C   UNL     1      44.943   2.431   9.849  0.00  0.00    +0.000 A 
ATOM     21  C   UNL     1      45.657   1.877   8.781  0.00  0.00    +0.000 A 
ATOM     22  C   UNL     1      46.315   2.712   7.883  0.00  0.00    +0.000 A 
ATOM     23  C   UNL     1      46.284   4.094   8.056  0.00  0.00    +0.000 A 
ATOM     24  C   UNL     1      45.568   4.639   9.127  0.00  0.00    +0.000 A 
BRANCH  22  25
ATOM     25  S   UNL     1      47.281   1.999   6.575  0.00  0.00    +0.000 S 
ATOM     26  C   UNL     1      46.664   2.776   5.108  0.00  0.00    +0.000 C 
ATOM     27  O   UNL     1      48.655   2.428   6.762  0.00  0.00    +0.000 OA
ATOM     28  O   UNL     1      46.949   0.588   6.508  0.00  0.00    +0.000 OA
ENDBRANCH  22  25
ENDBRANCH  16  19
ENDBRANCH  15  16
ENDBRANCH   1  15
TORSDOF 7
ENDMDL
MODEL 2
REMARK VINA RESULT:    -6.651      4.162      9.615
REMARK INTER + INTRA:         -10.242
REMARK INTER:                  -9.518
REMARK INTRA:                  -0.724
REMARK UNBOUND:                -0.869
REMARK  Name = 
REMARK  12 active torsions:
REMARK  status: ('A' for Active; 'I' for Inactive)
REMARK    1  A    between atoms: C_1  and  C_2
REMARK    2  A    between atoms: C_2  and  C_3
REMARK    3  A    between atoms: C_2  and  N_4
REMARK    4  A    between atoms: C_5  and  C_7
REMARK    5  A    between atoms: C_10  and  O_11
REMARK    6  A    between atoms: O_11  and  C_12
REMARK    7  A    between atoms: C_12  and  C_13
REMARK    8  A    between atoms: C_13  and  C_14
REMARK    9  A    between atoms: C_13  and  C_15
REMARK   10  A    between atoms: C_13  and  C_16
REMARK   11  A    between atoms: C_19  and  S_20
REMARK   12  A    between atoms: S_20  and  C_21
REMARK                            x       y       z     vdW  Elec       q    Type
REMARK                         _______ _______ _______ _____ _____    ______ ____
ROOT
ATOM      1  O   UNL     1      48.000   5.322  15.450  0.00  0.00    +0.000 OA
ENDROOT
BRANCH   1   5
ATOM      2  C   UNL     1      45.546   3.941  12.450  0.00  0.00    +0.000 A 
ATOM      3  C   UNL     1      45.604   5.318  12.625  0.00  0.00    +0.000 A 
ATOM      4  C   UNL     1      46.420   5.830  13.633  0.00  0.00    +0.000 A 
ATOM      5  C   UNL     1      47.154   4.960  14.437  0.00  0.00    +0.000 A 
ATOM      6  C   UNL     1      47.024   3.595  14.186  0.00  0.00    +0.000 A 
ATOM      7  N   UNL     1      46.240   3.054  13.216  0.00  0.00    +0.000 NA
BRANCH   2   9
ATOM      8  N   UNL     1      45.281   3.403  10.098  0.00  0.00    +0.000 N 
ATOM      9  C   UNL     1      44.699   3.381  11.347  0.00  0.00    +0.000 C 
ATOM     10  O   UNL     1      43.570   2.954  11.569  0.00  0.00    +0.000 OA
ATOM     11  H   UNL     1      46.254   3.695  10.062  0.00  0.00    +0.000 HD
BRANCH   8  13
ATOM     12  C   UNL     1      45.094   3.638   7.674  0.00  0.00    +0.000 C 
ATOM     13  C   UNL     1      44.612   2.892   8.913  0.00  0.00    +0.000 C 
ATOM     14  C   UNL     1      44.830   1.389   8.764  0.00  0.00    +0.000 C 
ENDBRANCH   8  13
ENDBRANCH   2   9
ENDBRANCH   1   5
BRANCH   1  15
ATOM     15  C   UNL     1      48.119   4.396  16.537  0.00  0.00    +0.000 C 
BRANCH  15  16
ATOM     16  C   UNL     1      49.228   4.825  17.543  0.00  0.00    +0.000 C 
ATOM     17  C   UNL     1      49.721   6.237  17.145  0.00  0.00    +0.000 C 
ATOM     18  C   UNL     1      48.573   4.954  18.940  0.00  0.00    +0.000 C 
BRANCH  16  19
ATOM     19  C   UNL     1      50.361   3.778  17.621  0.00  0.00    +0.000 A 
ATOM     20  C   UNL     1      50.152   2.423  17.303  0.00  0.00    +0.000 A 
ATOM     21  C   UNL     1      51.188   1.487  17.378  0.00  0.00    +0.000 A 
ATOM     22  C   UNL     1      52.461   1.894  17.764  0.00  0.00    +0.000 A 
ATOM     23  C   UNL     1      52.702   3.226  18.096  0.00  0.00    +0.000 A 
ATOM     24  C   UNL     1      51.660   4.156  18.018  0.00  0.00    +0.000 A 
BRANCH  22  25
ATOM     25  S   UNL     1      53.752   0.687  17.930  0.00  0.00    +0.000 S 
ATOM     26  C   UNL     1      54.887   1.420  19.076  0.00  0.00    +0.000 C 
ATOM     27  O   UNL     1      53.176  -0.485  18.564  0.00  0.00    +0.000 OA
ATOM     28  O   UNL     1      54.418   0.581  16.645  0.00  0.00    +0.000 OA
ENDBRANCH  22  25
ENDBRANCH  16  19
ENDBRANCH  15  16
ENDBRANCH   1  15
TORSDOF 7
ENDMDL
MODEL 3
REMARK VINA RESULT:    -6.577      3.017      4.589
REMARK INTER + INTRA:         -10.137
REMARK INTER:                  -8.971
REMARK INTRA:                  -1.166
REMARK UNBOUND:                -0.869
REMARK  Name = 
REMARK  12 active torsions:
REMARK  status: ('A' for Active; 'I' for Inactive)
REMARK    1  A    between atoms: C_1  and  C_2
REMARK    2  A    between atoms: C_2  and  C_3
REMARK    3  A    between atoms: C_2  and  N_4
REMARK    4  A    between atoms: C_5  and  C_7
REMARK    5  A    between atoms: C_10  and  O_11
REMARK    6  A    between atoms: O_11  and  C_12
REMARK    7  A    between atoms: C_12  and  C_13
REMARK    8  A    between atoms: C_13  and  C_14
REMARK    9  A    between atoms: C_13  and  C_15
REMARK   10  A    between atoms: C_13  and  C_16
REMARK   11  A    between atoms: C_19  and  S_20
REMARK   12  A    between atoms: S_20  and  C_21
REMARK                            x       y       z     vdW  Elec       q    Type
REMARK                         _______ _______ _______ _____ _____    ______ ____
ROOT
ATOM      1  O   UNL     1      45.598   5.998  13.212  0.00  0.00    +0.000 OA
ENDROOT
BRANCH   1   5
ATOM      2  C   UNL     1      49.390   7.515  12.714  0.00  0.00    +0.000 A 
ATOM      3  C   UNL     1      48.450   7.854  11.749  0.00  0.00    +0.000 A 
ATOM      4  C   UNL     1      47.153   7.359  11.876  0.00  0.00    +0.000 A 
ATOM      5  C   UNL     1      46.827   6.542  12.956  0.00  0.00    +0.000 A 
ATOM      6  C   UNL     1      47.842   6.255  13.868  0.00  0.00    +0.000 A 
ATOM      7  N   UNL     1      49.118   6.716  13.782  0.00  0.00    +0.000 NA
BRANCH   2   9
ATOM      8  N   UNL     1      51.231   8.262  11.318  0.00  0.00    +0.000 N 
ATOM      9  C   UNL     1      50.778   8.071  12.606  0.00  0.00    +0.000 C 
ATOM     10  O   UNL     1      51.441   8.317  13.608  0.00  0.00    +0.000 OA
ATOM     11  H   UNL     1      50.552   8.108  10.577  0.00  0.00    +0.000 HD
BRANCH   8  13
ATOM     12  C   UNL     1      53.558   7.671  10.867  0.00  0.00    +0.000 C 
ATOM     13  C   UNL     1      52.547   8.802  11.023  0.00  0.00    +0.000 C 
ATOM     14  C   UNL     1      52.514   9.680   9.775  0.00  0.00    +0.000 C 
ENDBRANCH   8  13
ENDBRANCH   2   9
ENDBRANCH   1   5
BRANCH   1  15
ATOM     15  C   UNL     1      44.582   6.238  12.229  0.00  0.00    +0.000 C 
BRANCH  15  16
ATOM     16  C   UNL     1      43.913   4.913  11.756  0.00  0.00    +0.000 C 
ATOM     17  C   UNL     1      43.804   3.965  12.973  0.00  0.00    +0.000 C 
ATOM     18  C   UNL     1      42.467   5.249  11.315  0.00  0.00    +0.000 C 
BRANCH  16  19
ATOM     19  C   UNL     1      44.665   4.293  10.558  0.00  0.00    +0.000 A 
ATOM     20  C   UNL     1      45.352   5.080   9.615  0.00  0.00    +0.000 A 
ATOM     21  C   UNL     1      46.029   4.503   8.536  0.00  0.00    +0.000 A 
ATOM     22  C   UNL     1      46.039   3.120   8.387  0.00  0.00    +0.000 A 
ATOM     23  C   UNL     1      45.361   2.310   9.295  0.00  0.00    +0.000 A 
ATOM     24  C   UNL     1      44.687   2.895  10.372  0.00  0.00    +0.000 A 
BRANCH  22  25
ATOM     25  S   UNL     1      46.836   2.400   6.972  0.00  0.00    +0.000 S 
ATOM     26  C   UNL     1      46.918   0.672   7.354  0.00  0.00    +0.000 C 
ATOM     27  O   UNL     1      45.946   2.563   5.838  0.00  0.00    +0.000 OA
ATOM     28  O   UNL     1      48.192   2.914   6.928  0.00  0.00    +0.000 OA
ENDBRANCH  22  25
ENDBRANCH  16  19
ENDBRANCH  15  16
ENDBRANCH   1  15
TORSDOF 7
ENDMDL
MODEL 4
REMARK VINA RESULT:    -6.151      3.629      5.734
REMARK INTER + INTRA:          -9.537
REMARK INTER:                  -8.063
REMARK INTRA:                  -1.475
REMARK UNBOUND:                -0.869
REMARK  Name = 
REMARK  12 active torsions:
REMARK  status: ('A' for Active; 'I' for Inactive)
REMARK    1  A    between atoms: C_1  and  C_2
REMARK    2  A    between atoms: C_2  and  C_3
REMARK    3  A    between atoms: C_2  and  N_4
REMARK    4  A    between atoms: C_5  and  C_7
REMARK    5  A    between atoms: C_10  and  O_11
REMARK    6  A    between atoms: O_11  and  C_12
REMARK    7  A    between atoms: C_12  and  C_13
REMARK    8  A    between atoms: C_13  and  C_14
REMARK    9  A    between atoms: C_13  and  C_15
REMARK   10  A    between atoms: C_13  and  C_16
REMARK   11  A    between atoms: C_19  and  S_20
REMARK   12  A    between atoms: S_20  and  C_21
REMARK                            x       y       z     vdW  Elec       q    Type
REMARK                         _______ _______ _______ _____ _____    ______ ____
ROOT
ATOM      1  O   UNL     1      50.030   9.954  13.931  0.00  0.00    +0.000 OA
ENDROOT
BRANCH   1   5
ATOM      2  C   UNL     1      49.271   6.914  16.598  0.00  0.00    +0.000 A 
ATOM      3  C   UNL     1      48.594   8.109  16.804  0.00  0.00    +0.000 A 
ATOM      4  C   UNL     1      48.824   9.168  15.926  0.00  0.00    +0.000 A 
ATOM      5  C   UNL     1      49.719   9.009  14.871  0.00  0.00    +0.000 A 
ATOM      6  C   UNL     1      50.352   7.773  14.752  0.00  0.00    +0.000 A 
ATOM      7  N   UNL     1      50.158   6.716  15.585  0.00  0.00    +0.000 NA
BRANCH   2   9
ATOM      8  N   UNL     1      49.142   4.513  16.937  0.00  0.00    +0.000 N 
ATOM      9  C   UNL     1      49.005   5.758  17.514  0.00  0.00    +0.000 C 
ATOM     10  O   UNL     1      48.679   5.938  18.683  0.00  0.00    +0.000 OA
ATOM     11  H   UNL     1      49.507   4.497  15.988  0.00  0.00    +0.000 HD
BRANCH   8  13
ATOM     12  C   UNL     1      47.481   2.834  17.560  0.00  0.00    +0.000 C 
ATOM     13  C   UNL     1      48.935   3.280  17.677  0.00  0.00    +0.000 C 
ATOM     14  C   UNL     1      49.881   2.184  17.196  0.00  0.00    +0.000 C 
ENDBRANCH   8  13
ENDBRANCH   2   9
ENDBRANCH   1   5
BRANCH   1  15
ATOM     15  C   UNL     1      48.925  10.644  13.336  0.00  0.00    +0.000 C 
BRANCH  15  16
ATOM     16  C   UNL     1      48.493   9.992  11.989  0.00  0.00    +0.000 C 
ATOM     17  C   UNL     1      47.849  11.087  11.107  0.00  0.00    +0.000 C 
ATOM     18  C   UNL     1      49.777   9.524  11.261  0.00  0.00    +0.000 C 
BRANCH  16  19
ATOM     19  C   UNL     1      47.578   8.769  12.217  0.00  0.00    +0.000 A 
ATOM     20  C   UNL     1      48.003   7.454  11.952  0.00  0.00    +0.000 A 
ATOM     21  C   UNL     1      47.163   6.357  12.164  0.00  0.00    +0.000 A 
ATOM     22  C   UNL     1      45.878   6.557  12.660  0.00  0.00    +0.000 A 
ATOM     23  C   UNL     1      45.419   7.846  12.925  0.00  0.00    +0.000 A 
ATOM     24  C   UNL     1      46.267   8.937  12.709  0.00  0.00    +0.000 A 
BRANCH  22  25
ATOM     25  S   UNL     1      44.791   5.166  12.855  0.00  0.00    +0.000 S 
ATOM     26  C   UNL     1      44.640   4.502  11.220  0.00  0.00    +0.000 C 
ATOM     27  O   UNL     1      45.480   4.184  13.672  0.00  0.00    +0.000 OA
ATOM     28  O   UNL     1      43.493   5.680  13.252  0.00  0.00    +0.000 OA
ENDBRANCH  22  25
ENDBRANCH  16  19
ENDBRANCH  15  16
ENDBRANCH   1  15
TORSDOF 7
ENDMDL
MODEL 5
REMARK VINA RESULT:    -5.850      4.161      8.837
REMARK INTER + INTRA:          -9.113
REMARK INTER:                  -7.966
REMARK INTRA:                  -1.147
REMARK UNBOUND:                -0.869
REMARK  Name = 
REMARK  12 active torsions:
REMARK  status: ('A' for Active; 'I' for Inactive)
REMARK    1  A    between atoms: C_1  and  C_2
REMARK    2  A    between atoms: C_2  and  C_3
REMARK    3  A    between atoms: C_2  and  N_4
REMARK    4  A    between atoms: C_5  and  C_7
REMARK    5  A    between atoms: C_10  and  O_11
REMARK    6  A    between atoms: O_11  and  C_12
REMARK    7  A    between atoms: C_12  and  C_13
REMARK    8  A    between atoms: C_13  and  C_14
REMARK    9  A    between atoms: C_13  and  C_15
REMARK   10  A    between atoms: C_13  and  C_16
REMARK   11  A    between atoms: C_19  and  S_20
REMARK   12  A    between atoms: S_20  and  C_21
REMARK                            x       y       z     vdW  Elec       q    Type
REMARK                         _______ _______ _______ _____ _____    ______ ____
ROOT
ATOM      1  O   UNL     1      48.685   9.237  12.798  0.00  0.00    +0.000 OA
ENDROOT
BRANCH   1   5
ATOM      2  C   UNL     1      45.527   6.791  11.808  0.00  0.00    +0.000 A 
ATOM      3  C   UNL     1      45.227   7.935  12.538  0.00  0.00    +0.000 A 
ATOM      4  C   UNL     1      46.267   8.790  12.898  0.00  0.00    +0.000 A 
ATOM      5  C   UNL     1      47.574   8.485  12.524  0.00  0.00    +0.000 A 
ATOM      6  C   UNL     1      47.772   7.313  11.798  0.00  0.00    +0.000 A 
ATOM      7  N   UNL     1      46.788   6.451  11.427  0.00  0.00    +0.000 NA
BRANCH   2   9
ATOM      8  N   UNL     1      44.802   4.612  11.020  0.00  0.00    +0.000 N 
ATOM      9  C   UNL     1      44.412   5.883  11.385  0.00  0.00    +0.000 C 
ATOM     10  O   UNL     1      43.249   6.274  11.364  0.00  0.00    +0.000 OA
ATOM     11  H   UNL     1      45.782   4.384  11.171  0.00  0.00    +0.000 HD
BRANCH   8  13
ATOM     12  C   UNL     1      44.491   2.696   9.537  0.00  0.00    +0.000 C 
ATOM     13  C   UNL     1      43.857   3.595  10.593  0.00  0.00    +0.000 C 
ATOM     14  C   UNL     1      43.359   2.774  11.780  0.00  0.00    +0.000 C 
ENDBRANCH   8  13
ENDBRANCH   2   9
ENDBRANCH   1   5
BRANCH   1  15
ATOM     15  C   UNL     1      49.873   8.510  13.134  0.00  0.00    +0.000 C 
BRANCH  15  16
ATOM     16  C   UNL     1      50.270   8.712  14.627  0.00  0.00    +0.000 C 
ATOM     17  C   UNL     1      51.752   9.154  14.677  0.00  0.00    +0.000 C 
ATOM     18  C   UNL     1      49.431   9.890  15.181  0.00  0.00    +0.000 C 
BRANCH  16  19
ATOM     19  C   UNL     1      49.975   7.452  15.469  0.00  0.00    +0.000 A 
ATOM     20  C   UNL     1      50.964   6.821  16.246  0.00  0.00    +0.000 A 
ATOM     21  C   UNL     1      50.681   5.680  17.004  0.00  0.00    +0.000 A 
ATOM     22  C   UNL     1      49.392   5.154  17.006  0.00  0.00    +0.000 A 
ATOM     23  C   UNL     1      48.390   5.747  16.240  0.00  0.00    +0.000 A 
ATOM     24  C   UNL     1      48.683   6.888  15.485  0.00  0.00    +0.000 A 
BRANCH  22  25
ATOM     25  S   UNL     1      49.059   3.663  17.910  0.00  0.00    +0.000 S 
ATOM     26  C   UNL     1      47.533   3.076  17.229  0.00  0.00    +0.000 C 
ATOM     27  O   UNL     1      50.095   2.704  17.570  0.00  0.00    +0.000 OA
ATOM     28  O   UNL     1      48.821   4.035  19.292  0.00  0.00    +0.000 OA
ENDBRANCH  22  25
ENDBRANCH  16  19
ENDBRANCH  15  16
ENDBRANCH   1  15
TORSDOF 7
ENDMDL
MODEL 6
REMARK VINA RESULT:    -5.824      3.721      5.441
REMARK INTER + INTRA:          -9.076
REMARK INTER:                  -8.168
REMARK INTRA:                  -0.908
REMARK UNBOUND:                -0.869
REMARK  Name = 
REMARK  12 active torsions:
REMARK  status: ('A' for Active; 'I' for Inactive)
REMARK    1  A    between atoms: C_1  and  C_2
REMARK    2  A    between atoms: C_2  and  C_3
REMARK    3  A    between atoms: C_2  and  N_4
REMARK    4  A    between atoms: C_5  and  C_7
REMARK    5  A    between atoms: C_10  and  O_11
REMARK    6  A    between atoms: O_11  and  C_12
REMARK    7  A    between atoms: C_12  and  C_13
REMARK    8  A    between atoms: C_13  and  C_14
REMARK    9  A    between atoms: C_13  and  C_15
REMARK   10  A    between atoms: C_13  and  C_16
REMARK   11  A    between atoms: C_19  and  S_20
REMARK   12  A    between atoms: S_20  and  C_21
REMARK                            x       y       z     vdW  Elec       q    Type
REMARK                         _______ _______ _______ _____ _____    ______ ____
ROOT
ATOM      1  O   UNL     1      48.167   7.615  15.006  0.00  0.00    +0.000 OA
ENDROOT
BRANCH   1   5
ATOM      2  C   UNL     1      50.575   5.164  17.270  0.00  0.00    +0.000 A 
ATOM      3  C   UNL     1      51.184   6.261  16.675  0.00  0.00    +0.000 A 
ATOM      4  C   UNL     1      50.407   7.117  15.896  0.00  0.00    +0.000 A 
ATOM      5  C   UNL     1      49.048   6.858  15.730  0.00  0.00    +0.000 A 
ATOM      6  C   UNL     1      48.532   5.729  16.363  0.00  0.00    +0.000 A 
ATOM      7  N   UNL     1      49.253   4.868  17.130  0.00  0.00    +0.000 NA
BRANCH   2   9
ATOM      8  N   UNL     1      52.052   3.247  17.470  0.00  0.00    +0.000 N 
ATOM      9  C   UNL     1      51.393   4.257  18.138  0.00  0.00    +0.000 C 
ATOM     10  O   UNL     1      51.445   4.420  19.353  0.00  0.00    +0.000 OA
ATOM     11  H   UNL     1      52.003   3.276  16.454  0.00  0.00    +0.000 HD
BRANCH   8  13
ATOM     12  C   UNL     1      52.490   0.863  17.768  0.00  0.00    +0.000 C 
ATOM     13  C   UNL     1      52.900   2.281  18.148  0.00  0.00    +0.000 C 
ATOM     14  C   UNL     1      54.372   2.526  17.833  0.00  0.00    +0.000 C 
ENDBRANCH   8  13
ENDBRANCH   2   9
ENDBRANCH   1   5
BRANCH   1  15
ATOM     15  C   UNL     1      48.743   8.546  14.082  0.00  0.00    +0.000 C 
BRANCH  15  16
ATOM     16  C   UNL     1      48.381   8.195  12.608  0.00  0.00    +0.000 C 
ATOM     17  C   UNL     1      48.250   9.516  11.814  0.00  0.00    +0.000 C 
ATOM     18  C   UNL     1      49.578   7.422  12.001  0.00  0.00    +0.000 C 
BRANCH  16  19
ATOM     19  C   UNL     1      47.123   7.303  12.529  0.00  0.00    +0.000 A 
ATOM     20  C   UNL     1      45.833   7.839  12.365  0.00  0.00    +0.000 A 
ATOM     21  C   UNL     1      44.703   7.017  12.295  0.00  0.00    +0.000 A 
ATOM     22  C   UNL     1      44.847   5.636  12.377  0.00  0.00    +0.000 A 
ATOM     23  C   UNL     1      46.109   5.070  12.549  0.00  0.00    +0.000 A 
ATOM     24  C   UNL     1      47.233   5.899  12.619  0.00  0.00    +0.000 A 
BRANCH  22  25
ATOM     25  S   UNL     1      43.402   4.604  12.364  0.00  0.00    +0.000 S 
ATOM     26  C   UNL     1      43.666   3.506  10.999  0.00  0.00    +0.000 C 
ATOM     27  O   UNL     1      43.418   3.813  13.581  0.00  0.00    +0.000 OA
ATOM     28  O   UNL     1      42.266   5.449  12.046  0.00  0.00    +0.000 OA
ENDBRANCH  22  25
ENDBRANCH  16  19
ENDBRANCH  15  16
ENDBRANCH   1  15
TORSDOF 7
ENDMDL
MODEL 7
REMARK VINA RESULT:    -5.293      4.090      9.781
REMARK INTER + INTRA:          -8.327
REMARK INTER:                  -7.395
REMARK INTRA:                  -0.933
REMARK UNBOUND:                -0.869
REMARK  Name = 
REMARK  12 active torsions:
REMARK  status: ('A' for Active; 'I' for Inactive)
REMARK    1  A    between atoms: C_1  and  C_2
REMARK    2  A    between atoms: C_2  and  C_3
REMARK    3  A    between atoms: C_2  and  N_4
REMARK    4  A    between atoms: C_5  and  C_7
REMARK    5  A    between atoms: C_10  and  O_11
REMARK    6  A    between atoms: O_11  and  C_12
REMARK    7  A    between atoms: C_12  and  C_13
REMARK    8  A    between atoms: C_13  and  C_14
REMARK    9  A    between atoms: C_13  and  C_15
REMARK   10  A    between atoms: C_13  and  C_16
REMARK   11  A    between atoms: C_19  and  S_20
REMARK   12  A    between atoms: S_20  and  C_21
REMARK                            x       y       z     vdW  Elec       q    Type
REMARK                         _______ _______ _______ _____ _____    ______ ____
ROOT
ATOM      1  O   UNL     1      46.618   8.092  13.769  0.00  0.00    +0.000 OA
ENDROOT
BRANCH   1   5
ATOM      2  C   UNL     1      45.187   5.307  11.099  0.00  0.00    +0.000 A 
ATOM      3  C   UNL     1      46.028   6.288  10.588  0.00  0.00    +0.000 A 
ATOM      4  C   UNL     1      46.533   7.254  11.457  0.00  0.00    +0.000 A 
ATOM      5  C   UNL     1      46.189   7.219  12.806  0.00  0.00    +0.000 A 
ATOM      6  C   UNL     1      45.335   6.198  13.220  0.00  0.00    +0.000 A 
ATOM      7  N   UNL     1      44.819   5.237  12.408  0.00  0.00    +0.000 NA
BRANCH   2   9
ATOM      8  N   UNL     1      45.468   3.968   9.094  0.00  0.00    +0.000 N 
ATOM      9  C   UNL     1      44.667   4.242  10.181  0.00  0.00    +0.000 C 
ATOM     10  O   UNL     1      43.597   3.683  10.402  0.00  0.00    +0.000 OA
ATOM     11  H   UNL     1      46.372   4.433   9.075  0.00  0.00    +0.000 HD
BRANCH   8  13
ATOM     12  C   UNL     1      45.925   3.186   6.825  0.00  0.00    +0.000 C 
ATOM     13  C   UNL     1      45.128   2.959   8.105  0.00  0.00    +0.000 C 
ATOM     14  C   UNL     1      45.364   1.553   8.651  0.00  0.00    +0.000 C 
ENDBRANCH   8  13
ENDBRANCH   2   9
ENDBRANCH   1   5
BRANCH   1  15
ATOM     15  C   UNL     1      47.572   9.076  13.352  0.00  0.00    +0.000 C 
BRANCH  15  16
ATOM     16  C   UNL     1      48.968   8.840  14.002  0.00  0.00    +0.000 C 
ATOM     17  C   UNL     1      49.789   7.925  13.064  0.00  0.00    +0.000 C 
ATOM     18  C   UNL     1      49.699  10.204  14.055  0.00  0.00    +0.000 C 
BRANCH  16  19
ATOM     19  C   UNL     1      48.839   8.291  15.440  0.00  0.00    +0.000 A 
ATOM     20  C   UNL     1      48.407   9.092  16.513  0.00  0.00    +0.000 A 
ATOM     21  C   UNL     1      48.295   8.579  17.810  0.00  0.00    +0.000 A 
ATOM     22  C   UNL     1      48.605   7.245  18.054  0.00  0.00    +0.000 A 
ATOM     23  C   UNL     1      49.045   6.424  17.017  0.00  0.00    +0.000 A 
ATOM     24  C   UNL     1      49.154   6.945  15.724  0.00  0.00    +0.000 A 
BRANCH  22  25
ATOM     25  S   UNL     1      48.533   6.622  19.715  0.00  0.00    +0.000 S 
ATOM     26  C   UNL     1      47.944   7.994  20.668  0.00  0.00    +0.000 C 
ATOM     27  O   UNL     1      47.515   5.587  19.750  0.00  0.00    +0.000 OA
ATOM     28  O   UNL     1      49.893   6.336  20.132  0.00  0.00    +0.000 OA
ENDBRANCH  22  25
ENDBRANCH  16  19
ENDBRANCH  15  16
ENDBRANCH   1  15
TORSDOF 7
ENDMDL
MODEL 8
REMARK VINA RESULT:    -5.136      3.888      8.493
REMARK INTER + INTRA:          -8.107
REMARK INTER:                  -6.859
REMARK INTRA:                  -1.248
REMARK UNBOUND:                -0.869
REMARK  Name = 
REMARK  12 active torsions:
REMARK  status: ('A' for Active; 'I' for Inactive)
REMARK    1  A    between atoms: C_1  and  C_2
REMARK    2  A    between atoms: C_2  and  C_3
REMARK    3  A    between atoms: C_2  and  N_4
REMARK    4  A    between atoms: C_5  and  C_7
REMARK    5  A    between atoms: C_10  and  O_11
REMARK    6  A    between atoms: O_11  and  C_12
REMARK    7  A    between atoms: C_12  and  C_13
REMARK    8  A    between atoms: C_13  and  C_14
REMARK    9  A    between atoms: C_13  and  C_15
REMARK   10  A    between atoms: C_13  and  C_16
REMARK   11  A    between atoms: C_19  and  S_20
REMARK   12  A    between atoms: S_20  and  C_21
REMARK                            x       y       z     vdW  Elec       q    Type
REMARK                         _______ _______ _______ _____ _____    ______ ____
ROOT
ATOM      1  O   UNL     1      48.495   5.206  15.618  0.00  0.00    +0.000 OA
ENDROOT
BRANCH   1   5
ATOM      2  C   UNL     1      45.754   4.202  12.718  0.00  0.00    +0.000 A 
ATOM      3  C   UNL     1      46.100   5.544  12.813  0.00  0.00    +0.000 A 
ATOM      4  C   UNL     1      47.022   5.930  13.784  0.00  0.00    +0.000 A 
ATOM      5  C   UNL     1      47.574   4.973  14.633  0.00  0.00    +0.000 A 
ATOM      6  C   UNL     1      47.159   3.653  14.462  0.00  0.00    +0.000 A 
ATOM      7  N   UNL     1      46.262   3.234  13.529  0.00  0.00    +0.000 NA
BRANCH   2   9
ATOM      8  N   UNL     1      45.322   3.684  10.386  0.00  0.00    +0.000 N 
ATOM      9  C   UNL     1      44.790   3.770  11.654  0.00  0.00    +0.000 C 
ATOM     10  O   UNL     1      43.617   3.530  11.922  0.00  0.00    +0.000 OA
ATOM     11  H   UNL     1      46.328   3.818  10.312  0.00  0.00    +0.000 HD
BRANCH   8  13
ATOM     12  C   UNL     1      45.047   3.967   7.975  0.00  0.00    +0.000 C 
ATOM     13  C   UNL     1      44.539   3.271   9.234  0.00  0.00    +0.000 C 
ATOM     14  C   UNL     1      44.565   1.755   9.066  0.00  0.00    +0.000 C 
ENDBRANCH   8  13
ENDBRANCH   2   9
ENDBRANCH   1   5
BRANCH   1  15
ATOM     15  C   UNL     1      48.138   6.190  16.597  0.00  0.00    +0.000 C 
BRANCH  15  16
ATOM     16  C   UNL     1      49.280   7.228  16.815  0.00  0.00    +0.000 C 
ATOM     17  C   UNL     1      48.869   8.161  17.978  0.00  0.00    +0.000 C 
ATOM     18  C   UNL     1      50.537   6.453  17.281  0.00  0.00    +0.000 C 
BRANCH  16  19
ATOM     19  C   UNL     1      49.617   7.983  15.510  0.00  0.00    +0.000 A 
ATOM     20  C   UNL     1      50.797   7.735  14.784  0.00  0.00    +0.000 A 
ATOM     21  C   UNL     1      51.088   8.427  13.604  0.00  0.00    +0.000 A 
ATOM     22  C   UNL     1      50.193   9.377  13.122  0.00  0.00    +0.000 A 
ATOM     23  C   UNL     1      49.019   9.656  13.820  0.00  0.00    +0.000 A 
ATOM     24  C   UNL     1      48.737   8.959  14.999  0.00  0.00    +0.000 A 
BRANCH  22  25
ATOM     25  S   UNL     1      50.605  10.305  11.665  0.00  0.00    +0.000 S 
ATOM     26  C   UNL     1      49.035  10.771  10.990  0.00  0.00    +0.000 C 
ATOM     27  O   UNL     1      51.281  11.516  12.094  0.00  0.00    +0.000 OA
ATOM     28  O   UNL     1      51.241   9.393  10.733  0.00  0.00    +0.000 OA
ENDBRANCH  22  25
ENDBRANCH  16  19
ENDBRANCH  15  16
ENDBRANCH   1  15
TORSDOF 7
ENDMDL
MODEL 9
REMARK VINA RESULT:    -5.120      3.648      5.273
REMARK INTER + INTRA:          -8.084
REMARK INTER:                  -7.169
REMARK INTRA:                  -0.914
REMARK UNBOUND:                -0.869
REMARK  Name = 
REMARK  12 active torsions:
REMARK  status: ('A' for Active; 'I' for Inactive)
REMARK    1  A    between atoms: C_1  and  C_2
REMARK    2  A    between atoms: C_2  and  C_3
REMARK    3  A    between atoms: C_2  and  N_4
REMARK    4  A    between atoms: C_5  and  C_7
REMARK    5  A    between atoms: C_10  and  O_11
REMARK    6  A    between atoms: O_11  and  C_12
REMARK    7  A    between atoms: C_12  and  C_13
REMARK    8  A    between atoms: C_13  and  C_14
REMARK    9  A    between atoms: C_13  and  C_15
REMARK   10  A    between atoms: C_13  and  C_16
REMARK   11  A    between atoms: C_19  and  S_20
REMARK   12  A    between atoms: S_20  and  C_21
REMARK                            x       y       z     vdW  Elec       q    Type
REMARK                         _______ _______ _______ _____ _____    ______ ____
ROOT
ATOM      1  O   UNL     1      45.928   3.987  13.997  0.00  0.00    +0.000 OA
ENDROOT
BRANCH   1   5
ATOM      2  C   UNL     1      48.832   5.654  16.389  0.00  0.00    +0.000 A 
ATOM      3  C   UNL     1      48.105   4.602  16.931  0.00  0.00    +0.000 A 
ATOM      4  C   UNL     1      47.108   4.009  16.157  0.00  0.00    +0.000 A 
ATOM      5  C   UNL     1      46.862   4.479  14.868  0.00  0.00    +0.000 A 
ATOM      6  C   UNL     1      47.642   5.543  14.418  0.00  0.00    +0.000 A 
ATOM      7  N   UNL     1      48.622   6.149  15.138  0.00  0.00    +0.000 NA
BRANCH   2   9
ATOM      8  N   UNL     1      51.150   5.641  17.110  0.00  0.00    +0.000 N 
ATOM      9  C   UNL     1      49.929   6.275  17.199  0.00  0.00    +0.000 C 
ATOM     10  O   UNL     1      49.723   7.268  17.890  0.00  0.00    +0.000 OA
ATOM     11  H   UNL     1      51.214   4.886  16.431  0.00  0.00    +0.000 HD
BRANCH   8  13
ATOM     12  C   UNL     1      52.596   5.232  19.035  0.00  0.00    +0.000 C 
ATOM     13  C   UNL     1      52.330   6.109  17.817  0.00  0.00    +0.000 C 
ATOM     14  C   UNL     1      53.545   6.145  16.895  0.00  0.00    +0.000 C 
ENDBRANCH   8  13
ENDBRANCH   2   9
ENDBRANCH   1   5
BRANCH   1  15
ATOM     15  C   UNL     1      46.037   4.426  12.638  0.00  0.00    +0.000 C 
BRANCH  15  16
ATOM     16  C   UNL     1      44.646   4.782  12.033  0.00  0.00    +0.000 C 
ATOM     17  C   UNL     1      44.430   3.911  10.773  0.00  0.00    +0.000 C 
ATOM     18  C   UNL     1      43.566   4.364  13.061  0.00  0.00    +0.000 C 
BRANCH  16  19
ATOM     19  C   UNL     1      44.515   6.297  11.763  0.00  0.00    +0.000 A 
ATOM     20  C   UNL     1      45.536   7.208  12.091  0.00  0.00    +0.000 A 
ATOM     21  C   UNL     1      45.402   8.578  11.840  0.00  0.00    +0.000 A 
ATOM     22  C   UNL     1      44.240   9.060  11.243  0.00  0.00    +0.000 A 
ATOM     23  C   UNL     1      43.204   8.188  10.915  0.00  0.00    +0.000 A 
ATOM     24  C   UNL     1      43.347   6.820  11.169  0.00  0.00    +0.000 A 
BRANCH  22  25
ATOM     25  S   UNL     1      44.047  10.808  10.998  0.00  0.00    +0.000 S 
ATOM     26  C   UNL     1      45.638  11.480  11.389  0.00  0.00    +0.000 C 
ATOM     27  O   UNL     1      43.807  11.027   9.583  0.00  0.00    +0.000 OA
ATOM     28  O   UNL     1      43.102  11.285  11.990  0.00  0.00    +0.000 OA
ENDBRANCH  22  25
ENDBRANCH  16  19
ENDBRANCH  15  16
ENDBRANCH   1  15
TORSDOF 7
ENDMDL
