MODEL 1
REMARK VINA RESULT:    -7.380      0.000      0.000
REMARK INTER + INTRA:         -10.850
REMARK INTER:                 -10.184
REMARK INTRA:                  -0.666
REMARK UNBOUND:                -0.666
REMARK  Name = 
REMARK  10 active torsions:
REMARK  status: ('A' for Active; 'I' for Inactive)
REMARK    1  A    between atoms: C_1  and  C_2
REMARK    2  A    between atoms: C_2  and  C_3
REMARK    3  A    between atoms: C_2  and  C_4
REMARK    4  A    between atoms: C_2  and  C_5
REMARK    5  A    between atoms: N_7  and  C_8
REMARK    6  A    between atoms: C_8  and  C_9
REMARK    7  A    between atoms: C_12  and  C_13
REMARK    8  A    between atoms: C_13  and  C_14
REMARK    9  A    between atoms: C_14  and  C_15
REMARK   10  A    between atoms: C_15  and  N_16
REMARK                            x       y       z     vdW  Elec       q    Type
REMARK                         _______ _______ _______ _____ _____    ______ ____
ROOT
ATOM      1  C   UNL     1      46.205   7.229  12.320  0.00  0.00    +0.000 A 
ATOM      2  C   UNL     1      45.140   7.004  11.463  0.00  0.00    +0.000 A 
ATOM      3  N   UNL     1      44.770   5.687  11.527  0.00  0.00    +0.000 N 
ATOM      4  C   UNL     1      45.566   5.021  12.432  0.00  0.00    +0.000 A 
ATOM      5  C   UNL     1      45.595   3.681  12.814  0.00  0.00    +0.000 A 
ATOM      6  N   UNL     1      46.477   3.267  13.747  0.00  0.00    +0.000 NA
ATOM      7  C   UNL     1      47.322   4.169  14.282  0.00  0.00    +0.000 A 
ATOM      8  C   UNL     1      47.371   5.510  13.934  0.00  0.00    +0.000 A 
ATOM      9  C   UNL     1      46.458   5.961  12.964  0.00  0.00    +0.000 A 
ENDROOT
BRANCH   1  11
ATOM     10  C   UNL     1      48.324   8.541  11.803  0.00  0.00    +0.000 C 
ATOM     11  C   UNL     1      46.944   8.559  12.508  0.00  0.00    +0.000 C 
ATOM     12  C   UNL     1      47.211   8.841  14.001  0.00  0.00    +0.000 C 
ATOM     13  C   UNL     1      46.137   9.722  11.906  0.00  0.00    +0.000 C 
ENDBRANCH   1  11
BRANCH   3  14
ATOM     14  C   UNL     1      43.805   5.077  10.623  0.00  0.00    +0.000 C 
BRANCH  14  15
ATOM     15  C   UNL     1      44.400   4.062   9.690  0.00  0.00    +0.000 A 
ATOM     16  C   UNL     1      44.153   2.694   9.829  0.00  0.00    +0.000 A 
ATOM     17  C   UNL     1      44.882   1.776   9.077  0.00  0.00    +0.000 A 
ATOM     18  C   UNL     1      45.853   2.248   8.201  0.00  0.00    +0.000 A 
ATOM     19  N   UNL     1      46.045   3.570   7.977  0.00  0.00    +0.000 NA
ATOM     20  C   UNL     1      45.312   4.439   8.712  0.00  0.00    +0.000 A 
BRANCH  18  21
ATOM     21  C   UNL     1      46.807   1.295   7.528  0.00  0.00    +0.000 C 
BRANCH  21  22
ATOM     22  C   UNL     1      48.013   1.955   6.865  0.00  0.00    +0.000 C 
BRANCH  22  23
ATOM     23  C   UNL     1      47.796   2.238   5.380  0.00  0.00    +0.000 C 
BRANCH  23  24
ATOM     24  N   UNL     1      47.166   3.547   5.216  0.00  0.00    +0.000 NA
ATOM     25  H   UNL     1      46.344   3.459   4.620  0.00  0.00    +0.000 HD
ATOM     26  H   UNL     1      47.811   4.165   4.724  0.00  0.00    +0.000 HD
ENDBRANCH  23  24
ENDBRANCH  22  23
ENDBRANCH  21  22
ENDBRANCH  18  21
ENDBRANCH  14  15
ENDBRANCH   3  14
TORSDOF 7
ENDMDL
MODEL 2
REMARK VINA RESULT:    -6.592      2.089      3.928
REMARK INTER + INTRA:          -9.763
REMARK INTER:                  -9.462
REMARK INTRA:                  -0.301
REMARK UNBOUND:                -0.666
REMARK  Name = 
REMARK  10 active torsions:
REMARK  status: ('A' for Active; 'I' for Inactive)
REMARK    1  A    between atoms: C_1  and  C_2
REMARK    2  A    between atoms: C_2  and  C_3
REMARK    3  A    between atoms: C_2  and  C_4
REMARK    4  A    between atoms: C_2  and  C_5
REMARK    5  A    between atoms: N_7  and  C_8
REMARK    6  A    between atoms: C_8  and  C_9
REMARK    7  A    between atoms: C_12  and  C_13
REMARK    8  A    between atoms: C_13  and  C_14
REMARK    9  A    between atoms: C_14  and  C_15
REMARK   10  A    between atoms: C_15  and  N_16
REMARK                            x       y       z     vdW  Elec       q    Type
REMARK                         _______ _______ _______ _____ _____    ______ ____
ROOT
ATOM      1  C   UNL     1      47.530   4.891  15.327  0.00  0.00    +0.000 A 
ATOM      2  C   UNL     1      46.451   4.440  14.585  0.00  0.00    +0.000 A 
ATOM      3  N   UNL     1      46.216   5.301  13.547  0.00  0.00    +0.000 N 
ATOM      4  C   UNL     1      47.137   6.325  13.571  0.00  0.00    +0.000 A 
ATOM      5  C   UNL     1      47.285   7.442  12.752  0.00  0.00    +0.000 A 
ATOM      6  N   UNL     1      48.293   8.310  12.975  0.00  0.00    +0.000 NA
ATOM      7  C   UNL     1      49.131   8.076  14.002  0.00  0.00    +0.000 A 
ATOM      8  C   UNL     1      49.032   7.003  14.874  0.00  0.00    +0.000 A 
ATOM      9  C   UNL     1      47.989   6.085  14.657  0.00  0.00    +0.000 A 
ENDROOT
BRANCH   1  11
ATOM     10  C   UNL     1      49.468   4.825  16.976  0.00  0.00    +0.000 C 
ATOM     11  C   UNL     1      48.084   4.240  16.599  0.00  0.00    +0.000 C 
ATOM     12  C   UNL     1      48.281   2.721  16.406  0.00  0.00    +0.000 C 
ATOM     13  C   UNL     1      47.143   4.483  17.792  0.00  0.00    +0.000 C 
ENDBRANCH   1  11
BRANCH   3  14
ATOM     14  C   UNL     1      45.045   5.221  12.684  0.00  0.00    +0.000 C 
BRANCH  14  15
ATOM     15  C   UNL     1      45.335   4.687  11.311  0.00  0.00    +0.000 A 
ATOM     16  C   UNL     1      45.714   5.521  10.256  0.00  0.00    +0.000 A 
ATOM     17  C   UNL     1      45.773   5.019   8.959  0.00  0.00    +0.000 A 
ATOM     18  C   UNL     1      45.444   3.686   8.740  0.00  0.00    +0.000 A 
ATOM     19  N   UNL     1      45.168   2.833   9.756  0.00  0.00    +0.000 NA
ATOM     20  C   UNL     1      45.132   3.346  11.008  0.00  0.00    +0.000 A 
BRANCH  18  21
ATOM     21  C   UNL     1      45.288   3.153   7.339  0.00  0.00    +0.000 C 
BRANCH  21  22
ATOM     22  C   UNL     1      46.539   3.254   6.471  0.00  0.00    +0.000 C 
BRANCH  22  23
ATOM     23  C   UNL     1      47.659   2.324   6.929  0.00  0.00    +0.000 C 
BRANCH  23  24
ATOM     24  N   UNL     1      48.405   1.843   5.766  0.00  0.00    +0.000 NA
ATOM     25  H   UNL     1      47.957   1.006   5.396  0.00  0.00    +0.000 HD
ATOM     26  H   UNL     1      49.337   1.559   6.066  0.00  0.00    +0.000 HD
ENDBRANCH  23  24
ENDBRANCH  22  23
ENDBRANCH  21  22
ENDBRANCH  18  21
ENDBRANCH  14  15
ENDBRANCH   3  14
TORSDOF 7
ENDMDL
MODEL 3
REMARK VINA RESULT:    -6.247      1.467      2.108
REMARK INTER + INTRA:          -9.287
REMARK INTER:                  -8.592
REMARK INTRA:                  -0.694
REMARK UNBOUND:                -0.666
REMARK  Name = 
REMARK  10 active torsions:
REMARK  status: ('A' for Active; 'I' for Inactive)
REMARK    1  A    between atoms: C_1  and  C_2
REMARK    2  A    between atoms: C_2  and  C_3
REMARK    3  A    between atoms: C_2  and  C_4
REMARK    4  A    between atoms: C_2  and  C_5
REMARK    5  A    between atoms: N_7  and  C_8
REMARK    6  A    between atoms: C_8  and  C_9
REMARK    7  A    between atoms: C_12  and  C_13
REMARK    8  A    between atoms: C_13  and  C_14
REMARK    9  A    between atoms: C_14  and  C_15
REMARK   10  A    between atoms: C_15  and  N_16
REMARK                            x       y       z     vdW  Elec       q    Type
REMARK                         _______ _______ _______ _____ _____    ______ ____
ROOT
ATOM      1  C   UNL     1      47.359   8.148  12.743  0.00  0.00    +0.000 A 
ATOM      2  C   UNL     1      46.226   7.876  11.993  0.00  0.00    +0.000 A 
ATOM      3  N   UNL     1      45.719   6.656  12.352  0.00  0.00    +0.000 N 
ATOM      4  C   UNL     1      46.492   6.104  13.350  0.00  0.00    +0.000 A 
ATOM      5  C   UNL     1      46.398   4.880  14.010  0.00  0.00    +0.000 A 
ATOM      6  N   UNL     1      47.284   4.569  14.978  0.00  0.00    +0.000 NA
ATOM      7  C   UNL     1      48.252   5.455  15.275  0.00  0.00    +0.000 A 
ATOM      8  C   UNL     1      48.426   6.678  14.646  0.00  0.00    +0.000 A 
ATOM      9  C   UNL     1      47.511   7.022  13.635  0.00  0.00    +0.000 A 
ENDROOT
BRANCH   1  11
ATOM     10  C   UNL     1      47.562  10.490  11.767  0.00  0.00    +0.000 C 
ATOM     11  C   UNL     1      48.249   9.389  12.613  0.00  0.00    +0.000 C 
ATOM     12  C   UNL     1      49.578   9.049  11.907  0.00  0.00    +0.000 C 
ATOM     13  C   UNL     1      48.547   9.993  13.997  0.00  0.00    +0.000 C 
ENDBRANCH   1  11
BRANCH   3  14
ATOM     14  C   UNL     1      44.641   5.989  11.635  0.00  0.00    +0.000 C 
BRANCH  14  15
ATOM     15  C   UNL     1      45.110   5.077  10.538  0.00  0.00    +0.000 A 
ATOM     16  C   UNL     1      45.856   5.545   9.454  0.00  0.00    +0.000 A 
ATOM     17  C   UNL     1      46.094   4.712   8.363  0.00  0.00    +0.000 A 
ATOM     18  C   UNL     1      45.572   3.424   8.376  0.00  0.00    +0.000 A 
ATOM     19  N   UNL     1      44.929   2.915   9.454  0.00  0.00    +0.000 NA
ATOM     20  C   UNL     1      44.725   3.742  10.506  0.00  0.00    +0.000 A 
BRANCH  18  21
ATOM     21  C   UNL     1      45.620   2.564   7.140  0.00  0.00    +0.000 C 
BRANCH  21  22
ATOM     22  C   UNL     1      46.610   3.026   6.074  0.00  0.00    +0.000 C 
BRANCH  22  23
ATOM     23  C   UNL     1      47.949   2.295   6.147  0.00  0.00    +0.000 C 
BRANCH  23  24
ATOM     24  N   UNL     1      47.823   1.126   7.016  0.00  0.00    +0.000 NA
ATOM     25  H   UNL     1      46.862   0.787   6.996  0.00  0.00    +0.000 HD
ATOM     26  H   UNL     1      48.006   1.409   7.978  0.00  0.00    +0.000 HD
ENDBRANCH  23  24
ENDBRANCH  22  23
ENDBRANCH  21  22
ENDBRANCH  18  21
ENDBRANCH  14  15
ENDBRANCH   3  14
TORSDOF 7
ENDMDL
MODEL 4
REMARK VINA RESULT:    -6.004      2.304      7.044
REMARK INTER + INTRA:          -8.952
REMARK INTER:                  -8.244
REMARK INTRA:                  -0.707
REMARK UNBOUND:                -0.666
REMARK  Name = 
REMARK  10 active torsions:
REMARK  status: ('A' for Active; 'I' for Inactive)
REMARK    1  A    between atoms: C_1  and  C_2
REMARK    2  A    between atoms: C_2  and  C_3
REMARK    3  A    between atoms: C_2  and  C_4
REMARK    4  A    between atoms: C_2  and  C_5
REMARK    5  A    between atoms: N_7  and  C_8
REMARK    6  A    between atoms: C_8  and  C_9
REMARK    7  A    between atoms: C_12  and  C_13
REMARK    8  A    between atoms: C_13  and  C_14
REMARK    9  A    between atoms: C_14  and  C_15
REMARK   10  A    between atoms: C_15  and  N_16
REMARK                            x       y       z     vdW  Elec       q    Type
REMARK                         _______ _______ _______ _____ _____    ______ ____
ROOT
ATOM      1  C   UNL     1      45.419   4.258   9.562  0.00  0.00    +0.000 A 
ATOM      2  C   UNL     1      45.955   5.506   9.837  0.00  0.00    +0.000 A 
ATOM      3  N   UNL     1      45.567   5.907  11.087  0.00  0.00    +0.000 N 
ATOM      4  C   UNL     1      44.783   4.935  11.668  0.00  0.00    +0.000 A 
ATOM      5  C   UNL     1      44.136   4.897  12.902  0.00  0.00    +0.000 A 
ATOM      6  N   UNL     1      43.425   3.806  13.254  0.00  0.00    +0.000 NA
ATOM      7  C   UNL     1      43.351   2.777  12.389  0.00  0.00    +0.000 A 
ATOM      8  C   UNL     1      43.944   2.753  11.136  0.00  0.00    +0.000 A 
ATOM      9  C   UNL     1      44.692   3.880  10.752  0.00  0.00    +0.000 A 
ENDROOT
BRANCH   1  11
ATOM     10  C   UNL     1      45.962   2.003   8.515  0.00  0.00    +0.000 C 
ATOM     11  C   UNL     1      45.574   3.479   8.252  0.00  0.00    +0.000 C 
ATOM     12  C   UNL     1      46.691   4.083   7.375  0.00  0.00    +0.000 C 
ATOM     13  C   UNL     1      44.254   3.473   7.461  0.00  0.00    +0.000 C 
ENDBRANCH   1  11
BRANCH   3  14
ATOM     14  C   UNL     1      45.805   7.244  11.613  0.00  0.00    +0.000 C 
BRANCH  14  15
ATOM     15  C   UNL     1      46.801   7.290  12.736  0.00  0.00    +0.000 A 
ATOM     16  C   UNL     1      46.989   8.436  13.513  0.00  0.00    +0.000 A 
ATOM     17  C   UNL     1      48.058   8.505  14.403  0.00  0.00    +0.000 A 
ATOM     18  C   UNL     1      48.926   7.422  14.493  0.00  0.00    +0.000 A 
ATOM     19  N   UNL     1      48.711   6.265  13.822  0.00  0.00    +0.000 NA
ATOM     20  C   UNL     1      47.656   6.222  12.976  0.00  0.00    +0.000 A 
BRANCH  18  21
ATOM     21  C   UNL     1      50.208   7.531  15.277  0.00  0.00    +0.000 C 
BRANCH  21  22
ATOM     22  C   UNL     1      50.101   7.118  16.743  0.00  0.00    +0.000 C 
BRANCH  22  23
ATOM     23  C   UNL     1      50.574   5.689  16.997  0.00  0.00    +0.000 C 
BRANCH  23  24
ATOM     24  N   UNL     1      49.479   4.756  16.739  0.00  0.00    +0.000 NA
ATOM     25  H   UNL     1      49.851   3.813  16.632  0.00  0.00    +0.000 HD
ATOM     26  H   UNL     1      49.045   4.994  15.847  0.00  0.00    +0.000 HD
ENDBRANCH  23  24
ENDBRANCH  22  23
ENDBRANCH  21  22
ENDBRANCH  18  21
ENDBRANCH  14  15
ENDBRANCH   3  14
TORSDOF 7
ENDMDL
MODEL 5
REMARK VINA RESULT:    -5.912      3.859      7.515
REMARK INTER + INTRA:          -8.824
REMARK INTER:                  -8.050
REMARK INTRA:                  -0.774
REMARK UNBOUND:                -0.666
REMARK  Name = 
REMARK  10 active torsions:
REMARK  status: ('A' for Active; 'I' for Inactive)
REMARK    1  A    between atoms: C_1  and  C_2
REMARK    2  A    between atoms: C_2  and  C_3
REMARK    3  A    between atoms: C_2  and  C_4
REMARK    4  A    between atoms: C_2  and  C_5
REMARK    5  A    between atoms: N_7  and  C_8
REMARK    6  A    between atoms: C_8  and  C_9
REMARK    7  A    between atoms: C_12  and  C_13
REMARK    8  A    between atoms: C_13  and  C_14
REMARK    9  A    between atoms: C_14  and  C_15
REMARK   10  A    between atoms: C_15  and  N_16
REMARK                            x       y       z     vdW  Elec       q    Type
REMARK                         _______ _______ _______ _____ _____    ______ ____
ROOT
ATOM      1  C   UNL     1      48.370   6.911  13.419  0.00  0.00    +0.000 A 
ATOM      2  C   UNL     1      48.455   6.348  14.682  0.00  0.00    +0.000 A 
ATOM      3  N   UNL     1      47.455   5.427  14.842  0.00  0.00    +0.000 N 
ATOM      4  C   UNL     1      46.701   5.349  13.692  0.00  0.00    +0.000 A 
ATOM      5  C   UNL     1      45.574   4.590  13.385  0.00  0.00    +0.000 A 
ATOM      6  N   UNL     1      45.014   4.683  12.162  0.00  0.00    +0.000 NA
ATOM      7  C   UNL     1      45.560   5.524  11.264  0.00  0.00    +0.000 A 
ATOM      8  C   UNL     1      46.662   6.330  11.504  0.00  0.00    +0.000 A 
ATOM      9  C   UNL     1      47.262   6.246  12.773  0.00  0.00    +0.000 A 
ENDROOT
BRANCH   1  11
ATOM     10  C   UNL     1      50.364   8.422  13.885  0.00  0.00    +0.000 C 
ATOM     11  C   UNL     1      49.273   8.018  12.863  0.00  0.00    +0.000 C 
ATOM     12  C   UNL     1      48.462   9.293  12.551  0.00  0.00    +0.000 C 
ATOM     13  C   UNL     1      49.992   7.546  11.587  0.00  0.00    +0.000 C 
ENDBRANCH   1  11
BRANCH   3  14
ATOM     14  C   UNL     1      47.147   4.785  16.113  0.00  0.00    +0.000 C 
BRANCH  14  15
ATOM     15  C   UNL     1      48.204   3.829  16.586  0.00  0.00    +0.000 A 
ATOM     16  C   UNL     1      49.175   4.202  17.519  0.00  0.00    +0.000 A 
ATOM     17  C   UNL     1      50.253   3.357  17.774  0.00  0.00    +0.000 A 
ATOM     18  C   UNL     1      50.341   2.153  17.084  0.00  0.00    +0.000 A 
ATOM     19  N   UNL     1      49.364   1.727  16.248  0.00  0.00    +0.000 NA
ATOM     20  C   UNL     1      48.321   2.561  16.030  0.00  0.00    +0.000 A 
BRANCH  18  21
ATOM     21  C   UNL     1      51.586   1.310  17.167  0.00  0.00    +0.000 C 
BRANCH  21  22
ATOM     22  C   UNL     1      52.751   1.956  17.914  0.00  0.00    +0.000 C 
BRANCH  22  23
ATOM     23  C   UNL     1      53.804   0.946  18.364  0.00  0.00    +0.000 C 
BRANCH  23  24
ATOM     24  N   UNL     1      53.205  -0.385  18.448  0.00  0.00    +0.000 NA
ATOM     25  H   UNL     1      53.504  -0.840  19.309  0.00  0.00    +0.000 HD
ATOM     26  H   UNL     1      53.562  -0.956  17.684  0.00  0.00    +0.000 HD
ENDBRANCH  23  24
ENDBRANCH  22  23
ENDBRANCH  21  22
ENDBRANCH  18  21
ENDBRANCH  14  15
ENDBRANCH   3  14
TORSDOF 7
ENDMDL
MODEL 6
REMARK VINA RESULT:    -5.628      2.823      6.856
REMARK INTER + INTRA:          -8.432
REMARK INTER:                  -7.761
REMARK INTRA:                  -0.671
REMARK UNBOUND:                -0.666
REMARK  Name = 
REMARK  10 active torsions:
REMARK  status: ('A' for Active; 'I' for Inactive)
REMARK    1  A    between atoms: C_1  and  C_2
REMARK    2  A    between atoms: C_2  and  C_3
REMARK    3  A    between atoms: C_2  and  C_4
REMARK    4  A    between atoms: C_2  and  C_5
REMARK    5  A    between atoms: N_7  and  C_8
REMARK    6  A    between atoms: C_8  and  C_9
REMARK    7  A    between atoms: C_12  and  C_13
REMARK    8  A    between atoms: C_13  and  C_14
REMARK    9  A    between atoms: C_14  and  C_15
REMARK   10  A    between atoms: C_15  and  N_16
REMARK                            x       y       z     vdW  Elec       q    Type
REMARK                         _______ _______ _______ _____ _____    ______ ____
ROOT
ATOM      1  C   UNL     1      45.420   4.296   9.507  0.00  0.00    +0.000 A 
ATOM      2  C   UNL     1      45.909   5.579   9.691  0.00  0.00    +0.000 A 
ATOM      3  N   UNL     1      45.533   6.041  10.924  0.00  0.00    +0.000 N 
ATOM      4  C   UNL     1      44.806   5.076  11.584  0.00  0.00    +0.000 A 
ATOM      5  C   UNL     1      44.190   5.087  12.834  0.00  0.00    +0.000 A 
ATOM      6  N   UNL     1      43.535   3.993  13.271  0.00  0.00    +0.000 NA
ATOM      7  C   UNL     1      43.484   2.910  12.473  0.00  0.00    +0.000 A 
ATOM      8  C   UNL     1      44.048   2.832  11.209  0.00  0.00    +0.000 A 
ATOM      9  C   UNL     1      44.737   3.962  10.736  0.00  0.00    +0.000 A 
ENDROOT
BRANCH   1  11
ATOM     10  C   UNL     1      45.900   1.970   8.592  0.00  0.00    +0.000 C 
ATOM     11  C   UNL     1      45.577   3.444   8.243  0.00  0.00    +0.000 C 
ATOM     12  C   UNL     1      46.739   3.958   7.367  0.00  0.00    +0.000 C 
ATOM     13  C   UNL     1      44.278   3.446   7.418  0.00  0.00    +0.000 C 
ENDBRANCH   1  11
BRANCH   3  14
ATOM     14  C   UNL     1      45.726   7.417  11.361  0.00  0.00    +0.000 C 
BRANCH  14  15
ATOM     15  C   UNL     1      46.971   7.631  12.173  0.00  0.00    +0.000 A 
ATOM     16  C   UNL     1      48.244   7.377  11.656  0.00  0.00    +0.000 A 
ATOM     17  C   UNL     1      49.352   7.390  12.501  0.00  0.00    +0.000 A 
ATOM     18  C   UNL     1      49.162   7.653  13.852  0.00  0.00    +0.000 A 
ATOM     19  N   UNL     1      47.953   7.997  14.359  0.00  0.00    +0.000 NA
ATOM     20  C   UNL     1      46.897   7.990  13.513  0.00  0.00    +0.000 A 
BRANCH  18  21
ATOM     21  C   UNL     1      50.289   7.471  14.836  0.00  0.00    +0.000 C 
BRANCH  21  22
ATOM     22  C   UNL     1      51.356   8.562  14.799  0.00  0.00    +0.000 C 
BRANCH  22  23
ATOM     23  C   UNL     1      52.763   8.013  14.577  0.00  0.00    +0.000 C 
BRANCH  23  24
ATOM     24  N   UNL     1      53.050   7.961  13.144  0.00  0.00    +0.000 NA
ATOM     25  H   UNL     1      52.874   7.020  12.794  0.00  0.00    +0.000 HD
ATOM     26  H   UNL     1      54.043   8.139  12.999  0.00  0.00    +0.000 HD
ENDBRANCH  23  24
ENDBRANCH  22  23
ENDBRANCH  21  22
ENDBRANCH  18  21
ENDBRANCH  14  15
ENDBRANCH   3  14
TORSDOF 7
ENDMDL
MODEL 7
REMARK VINA RESULT:    -5.585      3.672      6.276
REMARK INTER + INTRA:          -8.372
REMARK INTER:                  -7.566
REMARK INTRA:                  -0.806
REMARK UNBOUND:                -0.666
REMARK  Name = 
REMARK  10 active torsions:
REMARK  status: ('A' for Active; 'I' for Inactive)
REMARK    1  A    between atoms: C_1  and  C_2
REMARK    2  A    between atoms: C_2  and  C_3
REMARK    3  A    between atoms: C_2  and  C_4
REMARK    4  A    between atoms: C_2  and  C_5
REMARK    5  A    between atoms: N_7  and  C_8
REMARK    6  A    between atoms: C_8  and  C_9
REMARK    7  A    between atoms: C_12  and  C_13
REMARK    8  A    between atoms: C_13  and  C_14
REMARK    9  A    between atoms: C_14  and  C_15
REMARK   10  A    between atoms: C_15  and  N_16
REMARK                            x       y       z     vdW  Elec       q    Type
REMARK                         _______ _______ _______ _____ _____    ______ ____
ROOT
ATOM      1  C   UNL     1      48.463   8.393  17.699  0.00  0.00    +0.000 A 
ATOM      2  C   UNL     1      48.373   8.309  16.319  0.00  0.00    +0.000 A 
ATOM      3  N   UNL     1      48.546   7.009  15.926  0.00  0.00    +0.000 N 
ATOM      4  C   UNL     1      48.738   6.208  17.029  0.00  0.00    +0.000 A 
ATOM      5  C   UNL     1      48.984   4.841  17.137  0.00  0.00    +0.000 A 
ATOM      6  N   UNL     1      49.127   4.278  18.354  0.00  0.00    +0.000 NA
ATOM      7  C   UNL     1      49.037   5.063  19.443  0.00  0.00    +0.000 A 
ATOM      8  C   UNL     1      48.821   6.432  19.415  0.00  0.00    +0.000 A 
ATOM      9  C   UNL     1      48.667   7.038  18.156  0.00  0.00    +0.000 A 
ENDROOT
BRANCH   1  11
ATOM     10  C   UNL     1      47.201   9.616  19.540  0.00  0.00    +0.000 C 
ATOM     11  C   UNL     1      48.375   9.677  18.531  0.00  0.00    +0.000 C 
ATOM     12  C   UNL     1      48.126  10.907  17.633  0.00  0.00    +0.000 C 
ATOM     13  C   UNL     1      49.665   9.892  19.341  0.00  0.00    +0.000 C 
ENDBRANCH   1  11
BRANCH   3  14
ATOM     14  C   UNL     1      48.690   6.601  14.535  0.00  0.00    +0.000 C 
BRANCH  14  15
ATOM     15  C   UNL     1      47.409   6.151  13.894  0.00  0.00    +0.000 A 
ATOM     16  C   UNL     1      46.622   7.014  13.127  0.00  0.00    +0.000 A 
ATOM     17  C   UNL     1      45.348   6.620  12.725  0.00  0.00    +0.000 A 
ATOM     18  C   UNL     1      44.883   5.366  13.105  0.00  0.00    +0.000 A 
ATOM     19  N   UNL     1      45.662   4.475  13.765  0.00  0.00    +0.000 NA
ATOM     20  C   UNL     1      46.900   4.880  14.130  0.00  0.00    +0.000 A 
BRANCH  18  21
ATOM     21  C   UNL     1      43.444   4.980  12.878  0.00  0.00    +0.000 C 
BRANCH  21  22
ATOM     22  C   UNL     1      43.088   4.651  11.431  0.00  0.00    +0.000 C 
BRANCH  22  23
ATOM     23  C   UNL     1      43.702   3.338  10.950  0.00  0.00    +0.000 C 
BRANCH  23  24
ATOM     24  N   UNL     1      43.056   2.216  11.630  0.00  0.00    +0.000 NA
ATOM     25  H   UNL     1      42.130   2.497  11.949  0.00  0.00    +0.000 HD
ATOM     26  H   UNL     1      43.589   1.988  12.469  0.00  0.00    +0.000 HD
ENDBRANCH  23  24
ENDBRANCH  22  23
ENDBRANCH  21  22
ENDBRANCH  18  21
ENDBRANCH  14  15
ENDBRANCH   3  14
TORSDOF 7
ENDMDL
MODEL 8
REMARK VINA RESULT:    -5.526      3.711      6.720
REMARK INTER + INTRA:          -8.292
REMARK INTER:                  -7.697
REMARK INTRA:                  -0.595
REMARK UNBOUND:                -0.666
REMARK  Name = 
REMARK  10 active torsions:
REMARK  status: ('A' for Active; 'I' for Inactive)
REMARK    1  A    between atoms: C_1  and  C_2
REMARK    2  A    between atoms: C_2  and  C_3
REMARK    3  A    between atoms: C_2  and  C_4
REMARK    4  A    between atoms: C_2  and  C_5
REMARK    5  A    between atoms: N_7  and  C_8
REMARK    6  A    between atoms: C_8  and  C_9
REMARK    7  A    between atoms: C_12  and  C_13
REMARK    8  A    between atoms: C_13  and  C_14
REMARK    9  A    between atoms: C_14  and  C_15
REMARK   10  A    between atoms: C_15  and  N_16
REMARK                            x       y       z     vdW  Elec       q    Type
REMARK                         _______ _______ _______ _____ _____    ______ ____
ROOT
ATOM      1  C   UNL     1      48.674   6.538  17.596  0.00  0.00    +0.000 A 
ATOM      2  C   UNL     1      48.769   6.028  16.311  0.00  0.00    +0.000 A 
ATOM      3  N   UNL     1      48.804   7.058  15.410  0.00  0.00    +0.000 N 
ATOM      4  C   UNL     1      48.748   8.264  16.074  0.00  0.00    +0.000 A 
ATOM      5  C   UNL     1      48.724   9.572  15.597  0.00  0.00    +0.000 A 
ATOM      6  N   UNL     1      48.680  10.604  16.465  0.00  0.00    +0.000 NA
ATOM      7  C   UNL     1      48.650  10.337  17.784  0.00  0.00    +0.000 A 
ATOM      8  C   UNL     1      48.644   9.063  18.333  0.00  0.00    +0.000 A 
ATOM      9  C   UNL     1      48.692   7.975  17.444  0.00  0.00    +0.000 A 
ENDROOT
BRANCH   1  11
ATOM     10  C   UNL     1      47.254   6.043  19.649  0.00  0.00    +0.000 C 
ATOM     11  C   UNL     1      48.561   5.717  18.885  0.00  0.00    +0.000 C 
ATOM     12  C   UNL     1      49.727   6.027  19.847  0.00  0.00    +0.000 C 
ATOM     13  C   UNL     1      48.546   4.210  18.572  0.00  0.00    +0.000 C 
ENDBRANCH   1  11
BRANCH   3  14
ATOM     14  C   UNL     1      48.718   6.870  13.968  0.00  0.00    +0.000 C 
BRANCH  14  15
ATOM     15  C   UNL     1      47.369   6.417  13.491  0.00  0.00    +0.000 A 
ATOM     16  C   UNL     1      46.425   7.312  12.981  0.00  0.00    +0.000 A 
ATOM     17  C   UNL     1      45.120   6.885  12.743  0.00  0.00    +0.000 A 
ATOM     18  C   UNL     1      44.784   5.566  13.026  0.00  0.00    +0.000 A 
ATOM     19  N   UNL     1      45.703   4.656  13.429  0.00  0.00    +0.000 NA
ATOM     20  C   UNL     1      46.966   5.095  13.638  0.00  0.00    +0.000 A 
BRANCH  18  21
ATOM     21  C   UNL     1      43.347   5.115  12.987  0.00  0.00    +0.000 C 
BRANCH  21  22
ATOM     22  C   UNL     1      42.856   4.653  11.618  0.00  0.00    +0.000 C 
BRANCH  22  23
ATOM     23  C   UNL     1      43.607   3.430  11.097  0.00  0.00    +0.000 C 
BRANCH  23  24
ATOM     24  N   UNL     1      43.012   2.215  11.652  0.00  0.00    +0.000 NA
ATOM     25  H   UNL     1      42.901   2.319  12.659  0.00  0.00    +0.000 HD
ATOM     26  H   UNL     1      43.659   1.439  11.515  0.00  0.00    +0.000 HD
ENDBRANCH  23  24
ENDBRANCH  22  23
ENDBRANCH  21  22
ENDBRANCH  18  21
ENDBRANCH  14  15
ENDBRANCH   3  14
TORSDOF 7
ENDMDL
MODEL 9
REMARK VINA RESULT:    -5.484      3.660      6.446
REMARK INTER + INTRA:          -8.234
REMARK INTER:                  -7.696
REMARK INTRA:                  -0.537
REMARK UNBOUND:                -0.666
REMARK  Name = 
REMARK  10 active torsions:
REMARK  status: ('A' for Active; 'I' for Inactive)
REMARK    1  A    between atoms: C_1  and  C_2
REMARK    2  A    between atoms: C_2  and  C_3
REMARK    3  A    between atoms: C_2  and  C_4
REMARK    4  A    between atoms: C_2  and  C_5
REMARK    5  A    between atoms: N_7  and  C_8
REMARK    6  A    between atoms: C_8  and  C_9
REMARK    7  A    between atoms: C_12  and  C_13
REMARK    8  A    between atoms: C_13  and  C_14
REMARK    9  A    between atoms: C_14  and  C_15
REMARK   10  A    between atoms: C_15  and  N_16
REMARK                            x       y       z     vdW  Elec       q    Type
REMARK                         _______ _______ _______ _____ _____    ______ ____
ROOT
ATOM      1  C   UNL     1      49.618   5.862  16.703  0.00  0.00    +0.000 A 
ATOM      2  C   UNL     1      48.478   6.130  15.963  0.00  0.00    +0.000 A 
ATOM      3  N   UNL     1      48.784   6.991  14.944  0.00  0.00    +0.000 N 
ATOM      4  C   UNL     1      50.126   7.298  14.978  0.00  0.00    +0.000 A 
ATOM      5  C   UNL     1      50.893   8.143  14.179  0.00  0.00    +0.000 A 
ATOM      6  N   UNL     1      52.216   8.269  14.409  0.00  0.00    +0.000 NA
ATOM      7  C   UNL     1      52.764   7.574  15.424  0.00  0.00    +0.000 A 
ATOM      8  C   UNL     1      52.062   6.735  16.277  0.00  0.00    +0.000 A 
ATOM      9  C   UNL     1      50.682   6.589  16.051  0.00  0.00    +0.000 A 
ENDROOT
BRANCH   1  11
ATOM     10  C   UNL     1      50.674   3.802  17.761  0.00  0.00    +0.000 C 
ATOM     11  C   UNL     1      49.692   4.984  17.957  0.00  0.00    +0.000 C 
ATOM     12  C   UNL     1      48.316   4.369  18.288  0.00  0.00    +0.000 C 
ATOM     13  C   UNL     1      50.189   5.798  19.165  0.00  0.00    +0.000 C 
ENDBRANCH   1  11
BRANCH   3  14
ATOM     14  C   UNL     1      47.784   7.616  14.090  0.00  0.00    +0.000 C 
BRANCH  14  15
ATOM     15  C   UNL     1      47.137   6.674  13.116  0.00  0.00    +0.000 A 
ATOM     16  C   UNL     1      47.007   6.984  11.760  0.00  0.00    +0.000 A 
ATOM     17  C   UNL     1      46.223   6.181  10.935  0.00  0.00    +0.000 A 
ATOM     18  C   UNL     1      45.578   5.080  11.488  0.00  0.00    +0.000 A 
ATOM     19  N   UNL     1      45.765   4.703  12.776  0.00  0.00    +0.000 NA
ATOM     20  C   UNL     1      46.544   5.495  13.550  0.00  0.00    +0.000 A 
BRANCH  18  21
ATOM     21  C   UNL     1      44.558   4.309  10.691  0.00  0.00    +0.000 C 
BRANCH  21  22
ATOM     22  C   UNL     1      43.252   4.021  11.427  0.00  0.00    +0.000 C 
BRANCH  22  23
ATOM     23  C   UNL     1      42.522   5.289  11.864  0.00  0.00    +0.000 C 
BRANCH  23  24
ATOM     24  N   UNL     1      42.632   5.444  13.314  0.00  0.00    +0.000 NA
ATOM     25  H   UNL     1      41.958   6.138  13.635  0.00  0.00    +0.000 HD
ATOM     26  H   UNL     1      43.554   5.818  13.537  0.00  0.00    +0.000 HD
ENDBRANCH  23  24
ENDBRANCH  22  23
ENDBRANCH  21  22
ENDBRANCH  18  21
ENDBRANCH  14  15
ENDBRANCH   3  14
TORSDOF 7
ENDMDL
