MODEL 1
REMARK VINA RESULT:    -8.515      0.000      0.000
REMARK INTER + INTRA:         -10.987
REMARK INTER:                 -10.755
REMARK INTRA:                  -0.232
REMARK UNBOUND:                -0.232
REMARK  Name = 
REMARK  5 active torsions:
REMARK  status: ('A' for Active; 'I' for Inactive)
REMARK    1  A    between atoms: N_1  and  C_2
REMARK    2  A    between atoms: C_2  and  C_3
REMARK    3  A    between atoms: C_6  and  C_7
REMARK    4  A    between atoms: C_7  and  N_8
REMARK    5  A    between atoms: C_13  and  C_14
REMARK                            x       y       z     vdW  Elec       q    Type
REMARK                         _______ _______ _______ _____ _____    ______ ____
ROOT
ATOM      1  N   UNL     1      44.736   5.200  10.950  0.00  0.00    +0.000 N 
ATOM      2  C   UNL     1      44.994   6.543  10.783  0.00  0.00    +0.000 A 
ATOM      3  C   UNL     1      45.811   6.949  11.811  0.00  0.00    +0.000 A 
ATOM      4  C   UNL     1      46.104   5.809  12.608  0.00  0.00    +0.000 A 
ATOM      5  C   UNL     1      46.831   5.615  13.792  0.00  0.00    +0.000 A 
ATOM      6  C   UNL     1      46.909   4.312  14.268  0.00  0.00    +0.000 A 
ATOM      7  N   UNL     1      46.387   3.226  13.632  0.00  0.00    +0.000 NA
ATOM      8  C   UNL     1      45.687   3.414  12.485  0.00  0.00    +0.000 A 
ATOM      9  C   UNL     1      45.494   4.707  11.998  0.00  0.00    +0.000 A 
ENDROOT
BRANCH   6  10
ATOM     10  C   UNL     1      47.572   4.062  15.594  0.00  0.00    +0.000 C 
ATOM     11  N   UNL     1      47.546   5.090  16.502  0.00  0.00    +0.000 N 
ATOM     12  O   UNL     1      48.134   3.000  15.858  0.00  0.00    +0.000 OA
ATOM     13  H   UNL     1      47.137   5.981  16.251  0.00  0.00    +0.000 HD
ATOM     14  H   UNL     1      48.028   4.980  17.383  0.00  0.00    +0.000 HD
ENDBRANCH   6  10
BRANCH   1  15
ATOM     15  C   UNL     1      43.788   4.465  10.123  0.00  0.00    +0.000 C 
BRANCH  15  19
ATOM     16  C   UNL     1      46.746   2.147   7.776  0.00  0.00    +0.000 C 
ATOM     17  C   UNL     1      45.528   1.428   8.380  0.00  0.00    +0.000 C 
ATOM     18  C   UNL     1      44.819   2.264   9.446  0.00  0.00    +0.000 C 
ATOM     19  C   UNL     1      44.419   3.667   8.951  0.00  0.00    +0.000 C 
ATOM     20  C   UNL     1      45.646   4.374   8.349  0.00  0.00    +0.000 C 
ATOM     21  C   UNL     1      46.345   3.540   7.272  0.00  0.00    +0.000 C 
BRANCH  16  22
ATOM     22  C   UNL     1      47.360   1.266   6.668  0.00  0.00    +0.000 C 
BRANCH  22  23
ATOM     23  N   UNL     1      48.529   1.877   6.046  0.00  0.00    +0.000 NA
ATOM     24  H   UNL     1      48.631   2.836   6.378  0.00  0.00    +0.000 HD
ATOM     25  H   UNL     1      48.396   1.935   5.038  0.00  0.00    +0.000 HD
ENDBRANCH  22  23
ENDBRANCH  16  22
ENDBRANCH  15  19
ENDBRANCH   1  15
TORSDOF 5
ENDMDL
MODEL 2
REMARK VINA RESULT:    -7.849      2.117      2.850
REMARK INTER + INTRA:         -10.146
REMARK INTER:                 -10.053
REMARK INTRA:                  -0.093
REMARK UNBOUND:                -0.232
REMARK  Name = 
REMARK  5 active torsions:
REMARK  status: ('A' for Active; 'I' for Inactive)
REMARK    1  A    between atoms: N_1  and  C_2
REMARK    2  A    between atoms: C_2  and  C_3
REMARK    3  A    between atoms: C_6  and  C_7
REMARK    4  A    between atoms: C_7  and  N_8
REMARK    5  A    between atoms: C_13  and  C_14
REMARK                            x       y       z     vdW  Elec       q    Type
REMARK                         _______ _______ _______ _____ _____    ______ ____
ROOT
ATOM      1  N   UNL     1      44.715   4.439  11.386  0.00  0.00    +0.000 N 
ATOM      2  C   UNL     1      45.197   3.381  12.124  0.00  0.00    +0.000 A 
ATOM      3  C   UNL     1      46.116   3.872  13.020  0.00  0.00    +0.000 A 
ATOM      4  C   UNL     1      46.164   5.284  12.862  0.00  0.00    +0.000 A 
ATOM      5  C   UNL     1      46.930   6.300  13.452  0.00  0.00    +0.000 A 
ATOM      6  C   UNL     1      46.667   7.600  13.037  0.00  0.00    +0.000 A 
ATOM      7  N   UNL     1      45.684   7.944  12.159  0.00  0.00    +0.000 NA
ATOM      8  C   UNL     1      44.940   6.960  11.592  0.00  0.00    +0.000 A 
ATOM      9  C   UNL     1      45.212   5.627  11.895  0.00  0.00    +0.000 A 
ENDROOT
BRANCH   6  10
ATOM     10  C   UNL     1      47.537   8.715  13.545  0.00  0.00    +0.000 C 
ATOM     11  N   UNL     1      47.417   9.035  14.875  0.00  0.00    +0.000 N 
ATOM     12  O   UNL     1      48.308   9.333  12.813  0.00  0.00    +0.000 OA
ATOM     13  H   UNL     1      46.735   8.562  15.453  0.00  0.00    +0.000 HD
ATOM     14  H   UNL     1      47.945   9.814  15.241  0.00  0.00    +0.000 HD
ENDBRANCH   6  10
BRANCH   1  15
ATOM     15  C   UNL     1      43.826   4.271  10.244  0.00  0.00    +0.000 C 
BRANCH  15  19
ATOM     16  C   UNL     1      46.835   2.270   7.682  0.00  0.00    +0.000 C 
ATOM     17  C   UNL     1      45.666   1.452   8.255  0.00  0.00    +0.000 C 
ATOM     18  C   UNL     1      44.943   2.176   9.391  0.00  0.00    +0.000 C 
ATOM     19  C   UNL     1      44.467   3.590   9.006  0.00  0.00    +0.000 C 
ATOM     20  C   UNL     1      45.646   4.395   8.433  0.00  0.00    +0.000 C 
ATOM     21  C   UNL     1      46.359   3.674   7.286  0.00  0.00    +0.000 C 
BRANCH  16  22
ATOM     22  C   UNL     1      47.465   1.500   6.502  0.00  0.00    +0.000 C 
BRANCH  22  23
ATOM     23  N   UNL     1      48.679   2.132   6.001  0.00  0.00    +0.000 NA
ATOM     24  H   UNL     1      48.440   2.801   5.269  0.00  0.00    +0.000 HD
ATOM     25  H   UNL     1      49.281   1.435   5.566  0.00  0.00    +0.000 HD
ENDBRANCH  22  23
ENDBRANCH  16  22
ENDBRANCH  15  19
ENDBRANCH   1  15
TORSDOF 5
ENDMDL
MODEL 3
REMARK VINA RESULT:    -7.430      2.808      6.848
REMARK INTER + INTRA:          -9.616
REMARK INTER:                  -9.339
REMARK INTRA:                  -0.277
REMARK UNBOUND:                -0.232
REMARK  Name = 
REMARK  5 active torsions:
REMARK  status: ('A' for Active; 'I' for Inactive)
REMARK    1  A    between atoms: N_1  and  C_2
REMARK    2  A    between atoms: C_2  and  C_3
REMARK    3  A    between atoms: C_6  and  C_7
REMARK    4  A    between atoms: C_7  and  N_8
REMARK    5  A    between atoms: C_13  and  C_14
REMARK                            x       y       z     vdW  Elec       q    Type
REMARK                         _______ _______ _______ _____ _____    ______ ____
ROOT
ATOM      1  N   UNL     1      43.960   4.345  10.597  0.00  0.00    +0.000 N 
ATOM      2  C   UNL     1      43.550   3.184  11.215  0.00  0.00    +0.000 A 
ATOM      3  C   UNL     1      44.112   2.125  10.544  0.00  0.00    +0.000 A 
ATOM      4  C   UNL     1      44.933   2.653   9.510  0.00  0.00    +0.000 A 
ATOM      5  C   UNL     1      45.704   2.072   8.493  0.00  0.00    +0.000 A 
ATOM      6  C   UNL     1      46.402   2.943   7.665  0.00  0.00    +0.000 A 
ATOM      7  N   UNL     1      46.432   4.296   7.822  0.00  0.00    +0.000 NA
ATOM      8  C   UNL     1      45.689   4.857   8.809  0.00  0.00    +0.000 A 
ATOM      9  C   UNL     1      44.894   4.048   9.619  0.00  0.00    +0.000 A 
ENDROOT
BRANCH   6  10
ATOM     10  C   UNL     1      47.147   2.384   6.486  0.00  0.00    +0.000 C 
ATOM     11  N   UNL     1      47.106   3.116   5.325  0.00  0.00    +0.000 N 
ATOM     12  O   UNL     1      47.752   1.315   6.537  0.00  0.00    +0.000 OA
ATOM     13  H   UNL     1      46.553   3.962   5.277  0.00  0.00    +0.000 HD
ATOM     14  H   UNL     1      47.549   2.746   4.497  0.00  0.00    +0.000 HD
ENDBRANCH   6  10
BRANCH   1  15
ATOM     15  C   UNL     1      43.444   5.660  10.954  0.00  0.00    +0.000 C 
BRANCH  15  19
ATOM     16  C   UNL     1      46.890   7.904  12.600  0.00  0.00    +0.000 C 
ATOM     17  C   UNL     1      45.610   8.662  12.213  0.00  0.00    +0.000 C 
ATOM     18  C   UNL     1      44.675   7.829  11.336  0.00  0.00    +0.000 C 
ATOM     19  C   UNL     1      44.320   6.462  11.952  0.00  0.00    +0.000 C 
ATOM     20  C   UNL     1      45.610   5.716  12.335  0.00  0.00    +0.000 C 
ATOM     21  C   UNL     1      46.537   6.548  13.226  0.00  0.00    +0.000 C 
BRANCH  16  22
ATOM     22  C   UNL     1      47.741   8.788  13.536  0.00  0.00    +0.000 C 
BRANCH  22  23
ATOM     23  N   UNL     1      47.206   8.853  14.891  0.00  0.00    +0.000 NA
ATOM     24  H   UNL     1      46.206   8.654  14.873  0.00  0.00    +0.000 HD
ATOM     25  H   UNL     1      47.305   9.798  15.258  0.00  0.00    +0.000 HD
ENDBRANCH  22  23
ENDBRANCH  16  22
ENDBRANCH  15  19
ENDBRANCH   1  15
TORSDOF 5
ENDMDL
MODEL 4
REMARK VINA RESULT:    -6.699      1.806      2.262
REMARK INTER + INTRA:          -8.694
REMARK INTER:                  -8.319
REMARK INTRA:                  -0.375
REMARK UNBOUND:                -0.232
REMARK  Name = 
REMARK  5 active torsions:
REMARK  status: ('A' for Active; 'I' for Inactive)
REMARK    1  A    between atoms: N_1  and  C_2
REMARK    2  A    between atoms: C_2  and  C_3
REMARK    3  A    between atoms: C_6  and  C_7
REMARK    4  A    between atoms: C_7  and  N_8
REMARK    5  A    between atoms: C_13  and  C_14
REMARK                            x       y       z     vdW  Elec       q    Type
REMARK                         _______ _______ _______ _____ _____    ______ ____
ROOT
ATOM      1  N   UNL     1      45.001   6.137  11.396  0.00  0.00    +0.000 N 
ATOM      2  C   UNL     1      44.518   7.404  11.154  0.00  0.00    +0.000 A 
ATOM      3  C   UNL     1      45.202   8.280  11.963  0.00  0.00    +0.000 A 
ATOM      4  C   UNL     1      46.170   7.534  12.689  0.00  0.00    +0.000 A 
ATOM      5  C   UNL     1      47.107   7.867  13.679  0.00  0.00    +0.000 A 
ATOM      6  C   UNL     1      47.913   6.836  14.145  0.00  0.00    +0.000 A 
ATOM      7  N   UNL     1      47.893   5.562  13.660  0.00  0.00    +0.000 NA
ATOM      8  C   UNL     1      46.988   5.243  12.700  0.00  0.00    +0.000 A 
ATOM      9  C   UNL     1      46.087   6.208  12.251  0.00  0.00    +0.000 A 
ENDROOT
BRANCH   6  10
ATOM     10  C   UNL     1      48.851   7.107  15.287  0.00  0.00    +0.000 C 
ATOM     11  N   UNL     1      48.431   6.722  16.536  0.00  0.00    +0.000 N 
ATOM     12  O   UNL     1      49.936   7.665  15.129  0.00  0.00    +0.000 OA
ATOM     13  H   UNL     1      47.511   6.321  16.662  0.00  0.00    +0.000 HD
ATOM     14  H   UNL     1      49.010   6.936  17.336  0.00  0.00    +0.000 HD
ENDBRANCH   6  10
BRANCH   1  15
ATOM     15  C   UNL     1      44.409   4.938  10.818  0.00  0.00    +0.000 C 
BRANCH  15  19
ATOM     16  C   UNL     1      46.033   2.690   7.363  0.00  0.00    +0.000 C 
ATOM     17  C   UNL     1      46.643   4.050   7.734  0.00  0.00    +0.000 C 
ATOM     18  C   UNL     1      45.758   4.853   8.687  0.00  0.00    +0.000 C 
ATOM     19  C   UNL     1      45.374   4.076   9.961  0.00  0.00    +0.000 C 
ATOM     20  C   UNL     1      44.766   2.717   9.575  0.00  0.00    +0.000 C 
ATOM     21  C   UNL     1      45.662   1.909   8.632  0.00  0.00    +0.000 C 
BRANCH  16  22
ATOM     22  C   UNL     1      47.016   1.920   6.457  0.00  0.00    +0.000 C 
BRANCH  22  23
ATOM     23  N   UNL     1      48.328   2.553   6.384  0.00  0.00    +0.000 NA
ATOM     24  H   UNL     1      48.961   1.966   5.840  0.00  0.00    +0.000 HD
ATOM     25  H   UNL     1      48.732   2.624   7.316  0.00  0.00    +0.000 HD
ENDBRANCH  22  23
ENDBRANCH  16  22
ENDBRANCH  15  19
ENDBRANCH   1  15
TORSDOF 5
ENDMDL
MODEL 5
REMARK VINA RESULT:    -6.219      2.131      3.626
REMARK INTER + INTRA:          -8.087
REMARK INTER:                  -7.685
REMARK INTRA:                  -0.402
REMARK UNBOUND:                -0.232
REMARK  Name = 
REMARK  5 active torsions:
REMARK  status: ('A' for Active; 'I' for Inactive)
REMARK    1  A    between atoms: N_1  and  C_2
REMARK    2  A    between atoms: C_2  and  C_3
REMARK    3  A    between atoms: C_6  and  C_7
REMARK    4  A    between atoms: C_7  and  N_8
REMARK    5  A    between atoms: C_13  and  C_14
REMARK                            x       y       z     vdW  Elec       q    Type
REMARK                         _______ _______ _______ _____ _____    ______ ____
ROOT
ATOM      1  N   UNL     1      46.836   5.863  13.961  0.00  0.00    +0.000 N 
ATOM      2  C   UNL     1      47.610   6.952  13.625  0.00  0.00    +0.000 A 
ATOM      3  C   UNL     1      48.598   7.078  14.571  0.00  0.00    +0.000 A 
ATOM      4  C   UNL     1      48.457   6.005  15.492  0.00  0.00    +0.000 A 
ATOM      5  C   UNL     1      49.130   5.642  16.668  0.00  0.00    +0.000 A 
ATOM      6  C   UNL     1      48.701   4.480  17.297  0.00  0.00    +0.000 A 
ATOM      7  N   UNL     1      47.731   3.654  16.814  0.00  0.00    +0.000 NA
ATOM      8  C   UNL     1      47.084   4.004  15.673  0.00  0.00    +0.000 A 
ATOM      9  C   UNL     1      47.402   5.204  15.039  0.00  0.00    +0.000 A 
ENDROOT
BRANCH   6  10
ATOM     10  C   UNL     1      49.304   4.107  18.623  0.00  0.00    +0.000 C 
ATOM     11  N   UNL     1      48.490   3.443  19.507  0.00  0.00    +0.000 N 
ATOM     12  O   UNL     1      50.461   4.395  18.923  0.00  0.00    +0.000 OA
ATOM     13  H   UNL     1      47.522   3.267  19.273  0.00  0.00    +0.000 HD
ATOM     14  H   UNL     1      48.842   3.224  20.427  0.00  0.00    +0.000 HD
ENDBRANCH   6  10
BRANCH   1  15
ATOM     15  C   UNL     1      45.609   5.514  13.258  0.00  0.00    +0.000 C 
BRANCH  15  19
ATOM     16  C   UNL     1      44.771   4.080   9.151  0.00  0.00    +0.000 C 
ATOM     17  C   UNL     1      45.737   5.257   9.359  0.00  0.00    +0.000 C 
ATOM     18  C   UNL     1      45.637   5.862  10.760  0.00  0.00    +0.000 C 
ATOM     19  C   UNL     1      45.812   4.823  11.884  0.00  0.00    +0.000 C 
ATOM     20  C   UNL     1      44.840   3.651  11.663  0.00  0.00    +0.000 C 
ATOM     21  C   UNL     1      44.953   3.039  10.264  0.00  0.00    +0.000 C 
BRANCH  16  22
ATOM     22  C   UNL     1      44.983   3.489   7.742  0.00  0.00    +0.000 C 
BRANCH  22  23
ATOM     23  N   UNL     1      46.207   3.967   7.109  0.00  0.00    +0.000 NA
ATOM     24  H   UNL     1      46.226   4.987   7.128  0.00  0.00    +0.000 HD
ATOM     25  H   UNL     1      46.219   3.697   6.128  0.00  0.00    +0.000 HD
ENDBRANCH  22  23
ENDBRANCH  16  22
ENDBRANCH  15  19
ENDBRANCH   1  15
TORSDOF 5
ENDMDL
MODEL 6
REMARK VINA RESULT:    -6.200      3.149      7.943
REMARK INTER + INTRA:          -8.064
REMARK INTER:                  -7.726
REMARK INTRA:                  -0.337
REMARK UNBOUND:                -0.232
REMARK  Name = 
REMARK  5 active torsions:
REMARK  status: ('A' for Active; 'I' for Inactive)
REMARK    1  A    between atoms: N_1  and  C_2
REMARK    2  A    between atoms: C_2  and  C_3
REMARK    3  A    between atoms: C_6  and  C_7
REMARK    4  A    between atoms: C_7  and  N_8
REMARK    5  A    between atoms: C_13  and  C_14
REMARK                            x       y       z     vdW  Elec       q    Type
REMARK                         _______ _______ _______ _____ _____    ______ ____
ROOT
ATOM      1  N   UNL     1      47.538   6.465  13.784  0.00  0.00    +0.000 N 
ATOM      2  C   UNL     1      47.103   7.684  13.312  0.00  0.00    +0.000 A 
ATOM      3  C   UNL     1      46.074   7.454  12.430  0.00  0.00    +0.000 A 
ATOM      4  C   UNL     1      45.837   6.053  12.397  0.00  0.00    +0.000 A 
ATOM      5  C   UNL     1      44.963   5.235  11.665  0.00  0.00    +0.000 A 
ATOM      6  C   UNL     1      45.014   3.873  11.932  0.00  0.00    +0.000 A 
ATOM      7  N   UNL     1      45.799   3.304  12.891  0.00  0.00    +0.000 NA
ATOM      8  C   UNL     1      46.640   4.097  13.601  0.00  0.00    +0.000 A 
ATOM      9  C   UNL     1      46.705   5.461  13.321  0.00  0.00    +0.000 A 
ENDROOT
BRANCH   6  10
ATOM     10  C   UNL     1      44.189   2.937  11.095  0.00  0.00    +0.000 C 
ATOM     11  N   UNL     1      44.797   2.396   9.990  0.00  0.00    +0.000 N 
ATOM     12  O   UNL     1      43.017   2.674  11.363  0.00  0.00    +0.000 OA
ATOM     13  H   UNL     1      45.740   2.668   9.744  0.00  0.00    +0.000 HD
ATOM     14  H   UNL     1      44.258   1.806   9.373  0.00  0.00    +0.000 HD
ENDBRANCH   6  10
BRANCH   1  15
ATOM     15  C   UNL     1      48.714   6.317  14.632  0.00  0.00    +0.000 C 
BRANCH  15  19
ATOM     16  C   UNL     1      49.203   5.226  18.898  0.00  0.00    +0.000 C 
ATOM     17  C   UNL     1      49.413   6.685  18.461  0.00  0.00    +0.000 C 
ATOM     18  C   UNL     1      49.574   6.830  16.948  0.00  0.00    +0.000 C 
ATOM     19  C   UNL     1      48.418   6.195  16.150  0.00  0.00    +0.000 C 
ATOM     20  C   UNL     1      48.218   4.738  16.598  0.00  0.00    +0.000 C 
ATOM     21  C   UNL     1      48.044   4.598  18.113  0.00  0.00    +0.000 C 
BRANCH  16  22
ATOM     22  C   UNL     1      48.984   5.178  20.424  0.00  0.00    +0.000 C 
BRANCH  22  23
ATOM     23  N   UNL     1      48.438   3.903  20.875  0.00  0.00    +0.000 NA
ATOM     24  H   UNL     1      47.763   4.065  21.623  0.00  0.00    +0.000 HD
ATOM     25  H   UNL     1      49.177   3.329  21.275  0.00  0.00    +0.000 HD
ENDBRANCH  22  23
ENDBRANCH  16  22
ENDBRANCH  15  19
ENDBRANCH   1  15
TORSDOF 5
ENDMDL
MODEL 7
REMARK VINA RESULT:    -5.880      3.971      6.217
REMARK INTER + INTRA:          -7.659
REMARK INTER:                  -7.188
REMARK INTRA:                  -0.471
REMARK UNBOUND:                -0.232
REMARK  Name = 
REMARK  5 active torsions:
REMARK  status: ('A' for Active; 'I' for Inactive)
REMARK    1  A    between atoms: N_1  and  C_2
REMARK    2  A    between atoms: C_2  and  C_3
REMARK    3  A    between atoms: C_6  and  C_7
REMARK    4  A    between atoms: C_7  and  N_8
REMARK    5  A    between atoms: C_13  and  C_14
REMARK                            x       y       z     vdW  Elec       q    Type
REMARK                         _______ _______ _______ _____ _____    ______ ____
ROOT
ATOM      1  N   UNL     1      46.174   8.016  12.955  0.00  0.00    +0.000 N 
ATOM      2  C   UNL     1      45.503   8.906  12.145  0.00  0.00    +0.000 A 
ATOM      3  C   UNL     1      44.607   8.196  11.384  0.00  0.00    +0.000 A 
ATOM      4  C   UNL     1      44.694   6.831  11.772  0.00  0.00    +0.000 A 
ATOM      5  C   UNL     1      44.073   5.655  11.327  0.00  0.00    +0.000 A 
ATOM      6  C   UNL     1      44.414   4.482  11.989  0.00  0.00    +0.000 A 
ATOM      7  N   UNL     1      45.248   4.418  13.064  0.00  0.00    +0.000 NA
ATOM      8  C   UNL     1      45.845   5.557  13.497  0.00  0.00    +0.000 A 
ATOM      9  C   UNL     1      45.617   6.756  12.822  0.00  0.00    +0.000 A 
ENDROOT
BRANCH   6  10
ATOM     10  C   UNL     1      43.872   3.176  11.478  0.00  0.00    +0.000 C 
ATOM     11  N   UNL     1      43.689   2.179  12.403  0.00  0.00    +0.000 N 
ATOM     12  O   UNL     1      43.621   2.989  10.289  0.00  0.00    +0.000 OA
ATOM     13  H   UNL     1      43.959   2.323  13.367  0.00  0.00    +0.000 HD
ATOM     14  H   UNL     1      43.379   1.270  12.089  0.00  0.00    +0.000 HD
ENDBRANCH   6  10
BRANCH   1  15
ATOM     15  C   UNL     1      47.299   8.400  13.796  0.00  0.00    +0.000 C 
BRANCH  15  19
ATOM     16  C   UNL     1      51.325   8.572  11.956  0.00  0.00    +0.000 C 
ATOM     17  C   UNL     1      51.196   8.442  13.482  0.00  0.00    +0.000 C 
ATOM     18  C   UNL     1      49.789   8.765  13.984  0.00  0.00    +0.000 C 
ATOM     19  C   UNL     1      48.690   7.942  13.284  0.00  0.00    +0.000 C 
ATOM     20  C   UNL     1      48.832   8.081  11.759  0.00  0.00    +0.000 C 
ATOM     21  C   UNL     1      50.239   7.743  11.257  0.00  0.00    +0.000 C 
BRANCH  16  22
ATOM     22  C   UNL     1      52.751   8.167  11.528  0.00  0.00    +0.000 C 
BRANCH  22  23
ATOM     23  N   UNL     1      52.776   6.938  10.743  0.00  0.00    +0.000 NA
ATOM     24  H   UNL     1      52.151   7.032   9.942  0.00  0.00    +0.000 HD
ATOM     25  H   UNL     1      52.417   6.163  11.297  0.00  0.00    +0.000 HD
ENDBRANCH  22  23
ENDBRANCH  16  22
ENDBRANCH  15  19
ENDBRANCH   1  15
TORSDOF 5
ENDMDL
MODEL 8
REMARK VINA RESULT:    -5.721      4.186      6.467
REMARK INTER + INTRA:          -7.458
REMARK INTER:                  -7.113
REMARK INTRA:                  -0.345
REMARK UNBOUND:                -0.232
REMARK  Name = 
REMARK  5 active torsions:
REMARK  status: ('A' for Active; 'I' for Inactive)
REMARK    1  A    between atoms: N_1  and  C_2
REMARK    2  A    between atoms: C_2  and  C_3
REMARK    3  A    between atoms: C_6  and  C_7
REMARK    4  A    between atoms: C_7  and  N_8
REMARK    5  A    between atoms: C_13  and  C_14
REMARK                            x       y       z     vdW  Elec       q    Type
REMARK                         _______ _______ _______ _____ _____    ______ ____
ROOT
ATOM      1  N   UNL     1      47.282   6.860  13.228  0.00  0.00    +0.000 N 
ATOM      2  C   UNL     1      47.698   6.151  14.333  0.00  0.00    +0.000 A 
ATOM      3  C   UNL     1      47.114   4.908  14.284  0.00  0.00    +0.000 A 
ATOM      4  C   UNL     1      46.354   4.833  13.085  0.00  0.00    +0.000 A 
ATOM      5  C   UNL     1      45.520   3.854  12.526  0.00  0.00    +0.000 A 
ATOM      6  C   UNL     1      44.952   4.149  11.293  0.00  0.00    +0.000 A 
ATOM      7  N   UNL     1      45.205   5.282  10.579  0.00  0.00    +0.000 NA
ATOM      8  C   UNL     1      46.015   6.227  11.120  0.00  0.00    +0.000 A 
ATOM      9  C   UNL     1      46.547   6.035  12.394  0.00  0.00    +0.000 A 
ENDROOT
BRANCH   6  10
ATOM     10  C   UNL     1      43.957   3.190  10.702  0.00  0.00    +0.000 C 
ATOM     11  N   UNL     1      44.123   2.863   9.380  0.00  0.00    +0.000 N 
ATOM     12  O   UNL     1      43.022   2.729  11.355  0.00  0.00    +0.000 OA
ATOM     13  H   UNL     1      44.858   3.297   8.837  0.00  0.00    +0.000 HD
ATOM     14  H   UNL     1      43.443   2.264   8.934  0.00  0.00    +0.000 HD
ENDBRANCH   6  10
BRANCH   1  15
ATOM     15  C   UNL     1      47.592   8.269  13.026  0.00  0.00    +0.000 C 
BRANCH  15  19
ATOM     16  C   UNL     1      51.466   9.255  11.117  0.00  0.00    +0.000 C 
ATOM     17  C   UNL     1      50.933   7.814  11.048  0.00  0.00    +0.000 C 
ATOM     18  C   UNL     1      49.804   7.555  12.045  0.00  0.00    +0.000 C 
ATOM     19  C   UNL     1      48.642   8.560  11.922  0.00  0.00    +0.000 C 
ATOM     20  C   UNL     1      49.189   9.996  11.991  0.00  0.00    +0.000 C 
ATOM     21  C   UNL     1      50.310  10.256  10.981  0.00  0.00    +0.000 C 
BRANCH  16  22
ATOM     22  C   UNL     1      52.552   9.449  10.038  0.00  0.00    +0.000 C 
BRANCH  22  23
ATOM     23  N   UNL     1      53.619   8.458  10.128  0.00  0.00    +0.000 NA
ATOM     24  H   UNL     1      53.795   8.060   9.205  0.00  0.00    +0.000 HD
ATOM     25  H   UNL     1      53.327   7.685  10.723  0.00  0.00    +0.000 HD
ENDBRANCH  22  23
ENDBRANCH  16  22
ENDBRANCH  15  19
ENDBRANCH   1  15
TORSDOF 5
ENDMDL
MODEL 9
REMARK VINA RESULT:    -5.711      3.969      5.684
REMARK INTER + INTRA:          -7.445
REMARK INTER:                  -6.939
REMARK INTRA:                  -0.506
REMARK UNBOUND:                -0.232
REMARK  Name = 
REMARK  5 active torsions:
REMARK  status: ('A' for Active; 'I' for Inactive)
REMARK    1  A    between atoms: N_1  and  C_2
REMARK    2  A    between atoms: C_2  and  C_3
REMARK    3  A    between atoms: C_6  and  C_7
REMARK    4  A    between atoms: C_7  and  N_8
REMARK    5  A    between atoms: C_13  and  C_14
REMARK                            x       y       z     vdW  Elec       q    Type
REMARK                         _______ _______ _______ _____ _____    ______ ____
ROOT
ATOM      1  N   UNL     1      48.676   6.949  14.808  0.00  0.00    +0.000 N 
ATOM      2  C   UNL     1      49.095   8.250  14.976  0.00  0.00    +0.000 A 
ATOM      3  C   UNL     1      49.179   8.498  16.325  0.00  0.00    +0.000 A 
ATOM      4  C   UNL     1      48.848   7.296  17.008  0.00  0.00    +0.000 A 
ATOM      5  C   UNL     1      48.718   6.955  18.363  0.00  0.00    +0.000 A 
ATOM      6  C   UNL     1      48.389   5.634  18.644  0.00  0.00    +0.000 A 
ATOM      7  N   UNL     1      48.254   4.657  17.704  0.00  0.00    +0.000 NA
ATOM      8  C   UNL     1      48.384   4.987  16.394  0.00  0.00    +0.000 A 
ATOM      9  C   UNL     1      48.624   6.313  16.037  0.00  0.00    +0.000 A 
ENDROOT
BRANCH   6  10
ATOM     10  C   UNL     1      48.120   5.241  20.069  0.00  0.00    +0.000 C 
ATOM     11  N   UNL     1      48.597   4.019  20.474  0.00  0.00    +0.000 N 
ATOM     12  O   UNL     1      47.485   5.958  20.840  0.00  0.00    +0.000 OA
ATOM     13  H   UNL     1      49.062   3.410  19.813  0.00  0.00    +0.000 HD
ATOM     14  H   UNL     1      48.389   3.696  21.407  0.00  0.00    +0.000 HD
ENDBRANCH   6  10
BRANCH   1  15
ATOM     15  C   UNL     1      48.341   6.384  13.507  0.00  0.00    +0.000 C 
BRANCH  15  19
ATOM     16  C   UNL     1      44.530   5.267  11.544  0.00  0.00    +0.000 C 
ATOM     17  C   UNL     1      44.826   4.759  12.964  0.00  0.00    +0.000 C 
ATOM     18  C   UNL     1      46.298   4.912  13.349  0.00  0.00    +0.000 C 
ATOM     19  C   UNL     1      46.825   6.349  13.176  0.00  0.00    +0.000 C 
ATOM     20  C   UNL     1      46.521   6.845  11.752  0.00  0.00    +0.000 C 
ATOM     21  C   UNL     1      45.044   6.703  11.375  0.00  0.00    +0.000 C 
BRANCH  16  22
ATOM     22  C   UNL     1      43.019   5.137  11.262  0.00  0.00    +0.000 C 
BRANCH  22  23
ATOM     23  N   UNL     1      42.257   6.288  11.734  0.00  0.00    +0.000 NA
ATOM     24  H   UNL     1      42.641   7.142  11.329  0.00  0.00    +0.000 HD
ATOM     25  H   UNL     1      42.355   6.380  12.743  0.00  0.00    +0.000 HD
ENDBRANCH  22  23
ENDBRANCH  16  22
ENDBRANCH  15  19
ENDBRANCH   1  15
TORSDOF 5
ENDMDL
