MODEL 1
REMARK VINA RESULT:    -9.247      0.000      0.000
REMARK INTER + INTRA:         -13.412
REMARK INTER:                 -12.490
REMARK INTRA:                  -0.922
REMARK UNBOUND:                -0.922
REMARK  Name = 
REMARK  6 active torsions:
REMARK  status: ('A' for Active; 'I' for Inactive)
REMARK    1  A    between atoms: C_2  and  C_3
REMARK    2  A    between atoms: C_6  and  C_7
REMARK    3  A    between atoms: C_9  and  C_10
REMARK    4  A    between atoms: C_10  and  N_11
REMARK    5  A    between atoms: N_11  and  C_12
REMARK    6  A    between atoms: C_15  and  C_16
REMARK                            x       y       z     vdW  Elec       q    Type
REMARK                         _______ _______ _______ _____ _____    ______ ____
ROOT
ATOM      1  C   UNL     1      43.635   5.264  11.295  0.00  0.00    +0.000 C 
ATOM      2  C   UNL     1      42.261   5.552  11.867  0.00  0.00    +0.000 C 
ATOM      3  O   UNL     1      42.736   4.218  11.750  0.00  0.00    +0.000 OA
ENDROOT
BRANCH   1   6
ATOM      4  C   UNL     1      46.995   6.639  12.579  0.00  0.00    +0.000 A 
ATOM      5  C   UNL     1      45.762   6.491  11.916  0.00  0.00    +0.000 A 
ATOM      6  C   UNL     1      44.859   5.438  12.175  0.00  0.00    +0.000 A 
ATOM      7  C   UNL     1      45.180   4.553  13.211  0.00  0.00    +0.000 A 
ATOM      8  C   UNL     1      46.369   4.697  13.926  0.00  0.00    +0.000 A 
ATOM      9  C   UNL     1      47.265   5.715  13.599  0.00  0.00    +0.000 A 
ATOM     10  F   UNL     1      48.422   5.760  14.277  0.00  0.00    +0.000 F 
BRANCH   4  14
ATOM     11  C   UNL     1      49.837   9.672  11.388  0.00  0.00    +0.000 A 
ATOM     12  C   UNL     1      48.491  10.001  11.566  0.00  0.00    +0.000 A 
ATOM     13  C   UNL     1      47.565   9.018  11.936  0.00  0.00    +0.000 A 
ATOM     14  C   UNL     1      47.956   7.685  12.154  0.00  0.00    +0.000 A 
ATOM     15  C   UNL     1      49.323   7.383  11.969  0.00  0.00    +0.000 A 
ATOM     16  C   UNL     1      50.254   8.358  11.590  0.00  0.00    +0.000 A 
BRANCH  11  18
ATOM     17  N   UNL     1      51.555  11.488  10.717  0.00  0.00    +0.000 NA
ATOM     18  C   UNL     1      50.784  10.675  11.015  0.00  0.00    +0.000 C 
ENDBRANCH  11  18
ENDBRANCH   4  14
ENDBRANCH   1   6
BRANCH   1  19
ATOM     19  N   UNL     1      43.901   5.091   9.874  0.00  0.00    +0.000 N 
ATOM     20  H   UNL     1      43.354   5.678   9.254  0.00  0.00    +0.000 HD
BRANCH  19  21
ATOM     21  C   UNL     1      44.576   4.038   9.243  0.00  0.00    +0.000 A 
ATOM     22  C   UNL     1      44.477   2.697   9.618  0.00  0.00    +0.000 A 
ATOM     23  C   UNL     1      45.276   1.719   8.999  0.00  0.00    +0.000 A 
ATOM     24  C   UNL     1      46.194   2.073   8.001  0.00  0.00    +0.000 A 
ATOM     25  C   UNL     1      46.301   3.410   7.620  0.00  0.00    +0.000 A 
ATOM     26  C   UNL     1      45.500   4.374   8.239  0.00  0.00    +0.000 A 
BRANCH  24  27
ATOM     27  C   UNL     1      47.083   1.028   7.428  0.00  0.00    +0.000 C 
ATOM     28  N   UNL     1      46.766  -0.280   7.675  0.00  0.00    +0.000 N 
ATOM     29  O   UNL     1      48.071   1.320   6.765  0.00  0.00    +0.000 OA
ATOM     30  H   UNL     1      46.085  -0.568   8.362  0.00  0.00    +0.000 HD
ATOM     31  H   UNL     1      47.408  -0.979   7.324  0.00  0.00    +0.000 HD
ENDBRANCH  24  27
ENDBRANCH  19  21
ENDBRANCH   1  19
TORSDOF 6
ENDMDL
MODEL 2
REMARK VINA RESULT:    -9.064      2.958      4.442
REMARK INTER + INTRA:         -13.166
REMARK INTER:                 -12.670
REMARK INTRA:                  -0.496
REMARK UNBOUND:                -0.922
REMARK  Name = 
REMARK  6 active torsions:
REMARK  status: ('A' for Active; 'I' for Inactive)
REMARK    1  A    between atoms: C_2  and  C_3
REMARK    2  A    between atoms: C_6  and  C_7
REMARK    3  A    between atoms: C_9  and  C_10
REMARK    4  A    between atoms: C_10  and  N_11
REMARK    5  A    between atoms: N_11  and  C_12
REMARK    6  A    between atoms: C_15  and  C_16
REMARK                            x       y       z     vdW  Elec       q    Type
REMARK                         _______ _______ _______ _____ _____    ______ ____
ROOT
ATOM      1  C   UNL     1      43.979   5.034  11.549  0.00  0.00    +0.000 C 
ATOM      2  C   UNL     1      42.834   5.213  12.526  0.00  0.00    +0.000 C 
ATOM      3  O   UNL     1      43.461   3.948  12.361  0.00  0.00    +0.000 OA
ENDROOT
BRANCH   1   6
ATOM      4  C   UNL     1      47.108   5.600  13.722  0.00  0.00    +0.000 A 
ATOM      5  C   UNL     1      45.892   5.109  13.207  0.00  0.00    +0.000 A 
ATOM      6  C   UNL     1      45.374   5.479  11.947  0.00  0.00    +0.000 A 
ATOM      7  C   UNL     1      46.165   6.307  11.142  0.00  0.00    +0.000 A 
ATOM      8  C   UNL     1      47.399   6.773  11.597  0.00  0.00    +0.000 A 
ATOM      9  C   UNL     1      47.849   6.434  12.873  0.00  0.00    +0.000 A 
ATOM     10  F   UNL     1      49.011   6.968  13.280  0.00  0.00    +0.000 F 
BRANCH   4  14
ATOM     11  C   UNL     1      48.241   4.657  17.786  0.00  0.00    +0.000 A 
ATOM     12  C   UNL     1      48.662   5.853  17.199  0.00  0.00    +0.000 A 
ATOM     13  C   UNL     1      48.310   6.154  15.877  0.00  0.00    +0.000 A 
ATOM     14  C   UNL     1      47.518   5.281  15.111  0.00  0.00    +0.000 A 
ATOM     15  C   UNL     1      47.106   4.082  15.732  0.00  0.00    +0.000 A 
ATOM     16  C   UNL     1      47.461   3.769  17.050  0.00  0.00    +0.000 A 
BRANCH  11  18
ATOM     17  N   UNL     1      48.878   4.103  20.233  0.00  0.00    +0.000 NA
ATOM     18  C   UNL     1      48.595   4.350  19.137  0.00  0.00    +0.000 C 
ENDBRANCH  11  18
ENDBRANCH   4  14
ENDBRANCH   1   6
BRANCH   1  19
ATOM     19  N   UNL     1      43.799   4.715  10.140  0.00  0.00    +0.000 N 
ATOM     20  H   UNL     1      42.903   4.977   9.744  0.00  0.00    +0.000 HD
BRANCH  19  21
ATOM     21  C   UNL     1      44.559   3.844   9.347  0.00  0.00    +0.000 A 
ATOM     22  C   UNL     1      44.611   2.460   9.518  0.00  0.00    +0.000 A 
ATOM     23  C   UNL     1      45.486   1.675   8.746  0.00  0.00    +0.000 A 
ATOM     24  C   UNL     1      46.331   2.269   7.799  0.00  0.00    +0.000 A 
ATOM     25  C   UNL     1      46.287   3.651   7.622  0.00  0.00    +0.000 A 
ATOM     26  C   UNL     1      45.411   4.422   8.391  0.00  0.00    +0.000 A 
BRANCH  24  27
ATOM     27  C   UNL     1      47.304   1.421   7.061  0.00  0.00    +0.000 C 
ATOM     28  N   UNL     1      48.406   2.034   6.531  0.00  0.00    +0.000 N 
ATOM     29  O   UNL     1      47.128   0.216   6.922  0.00  0.00    +0.000 OA
ATOM     30  H   UNL     1      48.502   3.035   6.452  0.00  0.00    +0.000 HD
ATOM     31  H   UNL     1      49.033   1.455   5.986  0.00  0.00    +0.000 HD
ENDBRANCH  24  27
ENDBRANCH  19  21
ENDBRANCH   1  19
TORSDOF 6
ENDMDL
MODEL 3
REMARK VINA RESULT:    -8.041      1.670      2.014
REMARK INTER + INTRA:         -11.784
REMARK INTER:                 -10.890
REMARK INTRA:                  -0.894
REMARK UNBOUND:                -0.922
REMARK  Name = 
REMARK  6 active torsions:
REMARK  status: ('A' for Active; 'I' for Inactive)
REMARK    1  A    between atoms: C_2  and  C_3
REMARK    2  A    between atoms: C_6  and  C_7
REMARK    3  A    between atoms: C_9  and  C_10
REMARK    4  A    between atoms: C_10  and  N_11
REMARK    5  A    between atoms: N_11  and  C_12
REMARK    6  A    between atoms: C_15  and  C_16
REMARK                            x       y       z     vdW  Elec       q    Type
REMARK                         _______ _______ _______ _____ _____    ______ ____
ROOT
ATOM      1  C   UNL     1      43.669   5.244  11.094  0.00  0.00    +0.000 C 
ATOM      2  C   UNL     1      42.518   6.068  11.637  0.00  0.00    +0.000 C 
ATOM      3  O   UNL     1      42.360   4.681  11.372  0.00  0.00    +0.000 OA
ENDROOT
BRANCH   1   6
ATOM      4  C   UNL     1      46.873   5.269  13.232  0.00  0.00    +0.000 A 
ATOM      5  C   UNL     1      45.749   5.661  12.479  0.00  0.00    +0.000 A 
ATOM      6  C   UNL     1      44.752   4.763  12.042  0.00  0.00    +0.000 A 
ATOM      7  C   UNL     1      44.853   3.432  12.464  0.00  0.00    +0.000 A 
ATOM      8  C   UNL     1      45.925   3.016  13.254  0.00  0.00    +0.000 A 
ATOM      9  C   UNL     1      46.923   3.921  13.614  0.00  0.00    +0.000 A 
ATOM     10  F   UNL     1      47.963   3.446  14.317  0.00  0.00    +0.000 F 
BRANCH   4  14
ATOM     11  C   UNL     1      50.059   8.070  14.064  0.00  0.00    +0.000 A 
ATOM     12  C   UNL     1      49.372   7.456  15.113  0.00  0.00    +0.000 A 
ATOM     13  C   UNL     1      48.329   6.560  14.847  0.00  0.00    +0.000 A 
ATOM     14  C   UNL     1      47.952   6.241  13.531  0.00  0.00    +0.000 A 
ATOM     15  C   UNL     1      48.666   6.876  12.492  0.00  0.00    +0.000 A 
ATOM     16  C   UNL     1      49.703   7.780  12.748  0.00  0.00    +0.000 A 
BRANCH  11  18
ATOM     17  N   UNL     1      51.996   9.717  14.549  0.00  0.00    +0.000 NA
ATOM     18  C   UNL     1      51.127   8.982  14.333  0.00  0.00    +0.000 C 
ENDBRANCH  11  18
ENDBRANCH   4  14
ENDBRANCH   1   6
BRANCH   1  19
ATOM     19  N   UNL     1      43.967   5.105   9.676  0.00  0.00    +0.000 N 
ATOM     20  H   UNL     1      43.426   5.698   9.056  0.00  0.00    +0.000 HD
BRANCH  19  21
ATOM     21  C   UNL     1      44.668   4.073   9.038  0.00  0.00    +0.000 A 
ATOM     22  C   UNL     1      44.501   2.716   9.312  0.00  0.00    +0.000 A 
ATOM     23  C   UNL     1      45.326   1.754   8.702  0.00  0.00    +0.000 A 
ATOM     24  C   UNL     1      46.338   2.142   7.813  0.00  0.00    +0.000 A 
ATOM     25  C   UNL     1      46.513   3.497   7.533  0.00  0.00    +0.000 A 
ATOM     26  C   UNL     1      45.686   4.444   8.142  0.00  0.00    +0.000 A 
BRANCH  24  27
ATOM     27  C   UNL     1      47.248   1.108   7.252  0.00  0.00    +0.000 C 
ATOM     28  N   UNL     1      48.170   1.510   6.325  0.00  0.00    +0.000 N 
ATOM     29  O   UNL     1      47.173  -0.066   7.595  0.00  0.00    +0.000 OA
ATOM     30  H   UNL     1      48.149   2.411   5.873  0.00  0.00    +0.000 HD
ATOM     31  H   UNL     1      48.746   0.787   5.912  0.00  0.00    +0.000 HD
ENDBRANCH  24  27
ENDBRANCH  19  21
ENDBRANCH   1  19
TORSDOF 6
ENDMDL
MODEL 4
REMARK VINA RESULT:    -6.951      4.963      8.188
REMARK INTER + INTRA:         -10.311
REMARK INTER:                  -8.763
REMARK INTRA:                  -1.548
REMARK UNBOUND:                -0.922
REMARK  Name = 
REMARK  6 active torsions:
REMARK  status: ('A' for Active; 'I' for Inactive)
REMARK    1  A    between atoms: C_2  and  C_3
REMARK    2  A    between atoms: C_6  and  C_7
REMARK    3  A    between atoms: C_9  and  C_10
REMARK    4  A    between atoms: C_10  and  N_11
REMARK    5  A    between atoms: N_11  and  C_12
REMARK    6  A    between atoms: C_15  and  C_16
REMARK                            x       y       z     vdW  Elec       q    Type
REMARK                         _______ _______ _______ _____ _____    ______ ____
ROOT
ATOM      1  C   UNL     1      48.866   8.566  17.285  0.00  0.00    +0.000 C 
ATOM      2  C   UNL     1      47.963   9.732  17.638  0.00  0.00    +0.000 C 
ATOM      3  O   UNL     1      49.377   9.876  17.650  0.00  0.00    +0.000 OA
ENDROOT
BRANCH   1   6
ATOM      4  C   UNL     1      48.302   6.958  13.832  0.00  0.00    +0.000 A 
ATOM      5  C   UNL     1      48.114   7.461  15.134  0.00  0.00    +0.000 A 
ATOM      6  C   UNL     1      49.088   8.212  15.827  0.00  0.00    +0.000 A 
ATOM      7  C   UNL     1      50.260   8.543  15.136  0.00  0.00    +0.000 A 
ATOM      8  C   UNL     1      50.460   8.106  13.826  0.00  0.00    +0.000 A 
ATOM      9  C   UNL     1      49.500   7.313  13.196  0.00  0.00    +0.000 A 
ATOM     10  F   UNL     1      49.781   6.868  11.962  0.00  0.00    +0.000 F 
BRANCH   4  14
ATOM     11  C   UNL     1      45.322   4.377  12.056  0.00  0.00    +0.000 A 
ATOM     12  C   UNL     1      46.018   3.967  13.196  0.00  0.00    +0.000 A 
ATOM     13  C   UNL     1      46.995   4.794  13.764  0.00  0.00    +0.000 A 
ATOM     14  C   UNL     1      47.295   6.056  13.223  0.00  0.00    +0.000 A 
ATOM     15  C   UNL     1      46.574   6.444  12.072  0.00  0.00    +0.000 A 
ATOM     16  C   UNL     1      45.603   5.620  11.492  0.00  0.00    +0.000 A 
BRANCH  11  18
ATOM     17  N   UNL     1      43.509   2.854  11.012  0.00  0.00    +0.000 NA
ATOM     18  C   UNL     1      44.322   3.537  11.477  0.00  0.00    +0.000 C 
ENDBRANCH  11  18
ENDBRANCH   4  14
ENDBRANCH   1   6
BRANCH   1  19
ATOM     19  N   UNL     1      49.329   7.579  18.250  0.00  0.00    +0.000 N 
ATOM     20  H   UNL     1      49.685   7.955  19.122  0.00  0.00    +0.000 HD
BRANCH  19  21
ATOM     21  C   UNL     1      49.623   6.227  18.029  0.00  0.00    +0.000 A 
ATOM     22  C   UNL     1      50.882   5.737  17.682  0.00  0.00    +0.000 A 
ATOM     23  C   UNL     1      51.063   4.378  17.371  0.00  0.00    +0.000 A 
ATOM     24  C   UNL     1      49.978   3.490  17.395  0.00  0.00    +0.000 A 
ATOM     25  C   UNL     1      48.715   3.970  17.740  0.00  0.00    +0.000 A 
ATOM     26  C   UNL     1      48.547   5.322  18.050  0.00  0.00    +0.000 A 
BRANCH  24  27
ATOM     27  C   UNL     1      50.187   2.078  16.978  0.00  0.00    +0.000 C 
ATOM     28  N   UNL     1      51.026   1.310  17.738  0.00  0.00    +0.000 N 
ATOM     29  O   UNL     1      49.638   1.614  15.986  0.00  0.00    +0.000 OA
ATOM     30  H   UNL     1      51.642   1.687  18.442  0.00  0.00    +0.000 HD
ATOM     31  H   UNL     1      51.200   0.367  17.413  0.00  0.00    +0.000 HD
ENDBRANCH  24  27
ENDBRANCH  19  21
ENDBRANCH   1  19
TORSDOF 6
ENDMDL
MODEL 5
REMARK VINA RESULT:    -6.936      2.622      3.358
REMARK INTER + INTRA:         -10.291
REMARK INTER:                  -9.841
REMARK INTRA:                  -0.450
REMARK UNBOUND:                -0.922
REMARK  Name = 
REMARK  6 active torsions:
REMARK  status: ('A' for Active; 'I' for Inactive)
REMARK    1  A    between atoms: C_2  and  C_3
REMARK    2  A    between atoms: C_6  and  C_7
REMARK    3  A    between atoms: C_9  and  C_10
REMARK    4  A    between atoms: C_10  and  N_11
REMARK    5  A    between atoms: N_11  and  C_12
REMARK    6  A    between atoms: C_15  and  C_16
REMARK                            x       y       z     vdW  Elec       q    Type
REMARK                         _______ _______ _______ _____ _____    ______ ____
ROOT
ATOM      1  C   UNL     1      43.798   5.242  11.711  0.00  0.00    +0.000 C 
ATOM      2  C   UNL     1      42.305   5.495  11.635  0.00  0.00    +0.000 C 
ATOM      3  O   UNL     1      42.905   5.027  12.836  0.00  0.00    +0.000 OA
ENDROOT
BRANCH   1   6
ATOM      4  C   UNL     1      46.763   7.317  13.029  0.00  0.00    +0.000 A 
ATOM      5  C   UNL     1      45.912   6.252  12.674  0.00  0.00    +0.000 A 
ATOM      6  C   UNL     1      44.743   6.414  11.901  0.00  0.00    +0.000 A 
ATOM      7  C   UNL     1      44.477   7.692  11.393  0.00  0.00    +0.000 A 
ATOM      8  C   UNL     1      45.325   8.762  11.681  0.00  0.00    +0.000 A 
ATOM      9  C   UNL     1      46.439   8.573  12.499  0.00  0.00    +0.000 A 
ATOM     10  F   UNL     1      47.177   9.654  12.795  0.00  0.00    +0.000 F 
BRANCH   4  14
ATOM     11  C   UNL     1      50.097   6.655  15.701  0.00  0.00    +0.000 A 
ATOM     12  C   UNL     1      48.871   6.031  15.940  0.00  0.00    +0.000 A 
ATOM     13  C   UNL     1      47.784   6.256  15.086  0.00  0.00    +0.000 A 
ATOM     14  C   UNL     1      47.893   7.095  13.963  0.00  0.00    +0.000 A 
ATOM     15  C   UNL     1      49.146   7.710  13.747  0.00  0.00    +0.000 A 
ATOM     16  C   UNL     1      50.234   7.498  14.601  0.00  0.00    +0.000 A 
BRANCH  11  18
ATOM     17  N   UNL     1      52.110   6.231  17.272  0.00  0.00    +0.000 NA
ATOM     18  C   UNL     1      51.209   6.424  16.570  0.00  0.00    +0.000 C 
ENDBRANCH  11  18
ENDBRANCH   4  14
ENDBRANCH   1   6
BRANCH   1  19
ATOM     19  N   UNL     1      44.426   3.982  11.342  0.00  0.00    +0.000 N 
ATOM     20  H   UNL     1      44.703   3.389  12.117  0.00  0.00    +0.000 HD
BRANCH  19  21
ATOM     21  C   UNL     1      44.961   3.614  10.100  0.00  0.00    +0.000 A 
ATOM     22  C   UNL     1      45.136   2.298   9.672  0.00  0.00    +0.000 A 
ATOM     23  C   UNL     1      45.783   2.020   8.455  0.00  0.00    +0.000 A 
ATOM     24  C   UNL     1      46.273   3.060   7.653  0.00  0.00    +0.000 A 
ATOM     25  C   UNL     1      46.104   4.379   8.073  0.00  0.00    +0.000 A 
ATOM     26  C   UNL     1      45.456   4.644   9.282  0.00  0.00    +0.000 A 
BRANCH  24  27
ATOM     27  C   UNL     1      47.027   2.729   6.415  0.00  0.00    +0.000 C 
ATOM     28  N   UNL     1      48.120   1.915   6.536  0.00  0.00    +0.000 N 
ATOM     29  O   UNL     1      46.693   3.172   5.323  0.00  0.00    +0.000 OA
ATOM     30  H   UNL     1      48.545   1.681   7.421  0.00  0.00    +0.000 HD
ATOM     31  H   UNL     1      48.655   1.741   5.695  0.00  0.00    +0.000 HD
ENDBRANCH  24  27
ENDBRANCH  19  21
ENDBRANCH   1  19
TORSDOF 6
ENDMDL
MODEL 6
REMARK VINA RESULT:    -6.823      3.094      6.934
REMARK INTER + INTRA:         -10.139
REMARK INTER:                  -9.365
REMARK INTRA:                  -0.774
REMARK UNBOUND:                -0.922
REMARK  Name = 
REMARK  6 active torsions:
REMARK  status: ('A' for Active; 'I' for Inactive)
REMARK    1  A    between atoms: C_2  and  C_3
REMARK    2  A    between atoms: C_6  and  C_7
REMARK    3  A    between atoms: C_9  and  C_10
REMARK    4  A    between atoms: C_10  and  N_11
REMARK    5  A    between atoms: N_11  and  C_12
REMARK    6  A    between atoms: C_15  and  C_16
REMARK                            x       y       z     vdW  Elec       q    Type
REMARK                         _______ _______ _______ _____ _____    ______ ____
ROOT
ATOM      1  C   UNL     1      44.251   8.081  11.889  0.00  0.00    +0.000 C 
ATOM      2  C   UNL     1      43.220   9.024  11.300  0.00  0.00    +0.000 C 
ATOM      3  O   UNL     1      44.454   8.788  10.636  0.00  0.00    +0.000 OA
ENDROOT
BRANCH   1   6
ATOM      4  C   UNL     1      44.631   4.539  10.426  0.00  0.00    +0.000 A 
ATOM      5  C   UNL     1      44.837   5.892  10.757  0.00  0.00    +0.000 A 
ATOM      6  C   UNL     1      44.072   6.584  11.720  0.00  0.00    +0.000 A 
ATOM      7  C   UNL     1      43.121   5.849  12.438  0.00  0.00    +0.000 A 
ATOM      8  C   UNL     1      42.924   4.493  12.174  0.00  0.00    +0.000 A 
ATOM      9  C   UNL     1      43.659   3.859  11.172  0.00  0.00    +0.000 A 
ATOM     10  F   UNL     1      43.375   2.572  10.919  0.00  0.00    +0.000 F 
BRANCH   4  14
ATOM     11  C   UNL     1      46.837   2.695   7.197  0.00  0.00    +0.000 A 
ATOM     12  C   UNL     1      46.736   4.086   7.274  0.00  0.00    +0.000 A 
ATOM     13  C   UNL     1      46.009   4.686   8.310  0.00  0.00    +0.000 A 
ATOM     14  C   UNL     1      45.377   3.919   9.304  0.00  0.00    +0.000 A 
ATOM     15  C   UNL     1      45.498   2.516   9.200  0.00  0.00    +0.000 A 
ATOM     16  C   UNL     1      46.215   1.908   8.163  0.00  0.00    +0.000 A 
BRANCH  11  18
ATOM     17  N   UNL     1      48.189   1.587   5.288  0.00  0.00    +0.000 NA
ATOM     18  C   UNL     1      47.583   2.080   6.143  0.00  0.00    +0.000 C 
ENDBRANCH  11  18
ENDBRANCH   4  14
ENDBRANCH   1   6
BRANCH   1  19
ATOM     19  N   UNL     1      45.268   8.489  12.847  0.00  0.00    +0.000 N 
ATOM     20  H   UNL     1      44.926   8.990  13.659  0.00  0.00    +0.000 HD
BRANCH  19  21
ATOM     21  C   UNL     1      46.655   8.549  12.660  0.00  0.00    +0.000 A 
ATOM     22  C   UNL     1      47.339   9.657  12.157  0.00  0.00    +0.000 A 
ATOM     23  C   UNL     1      48.721   9.591  11.899  0.00  0.00    +0.000 A 
ATOM     24  C   UNL     1      49.434   8.407  12.134  0.00  0.00    +0.000 A 
ATOM     25  C   UNL     1      48.760   7.295  12.636  0.00  0.00    +0.000 A 
ATOM     26  C   UNL     1      47.388   7.372  12.892  0.00  0.00    +0.000 A 
BRANCH  24  27
ATOM     27  C   UNL     1      50.875   8.345  11.771  0.00  0.00    +0.000 C 
ATOM     28  N   UNL     1      51.299   7.268  11.041  0.00  0.00    +0.000 N 
ATOM     29  O   UNL     1      51.662   9.217  12.117  0.00  0.00    +0.000 OA
ATOM     30  H   UNL     1      50.742   6.440  10.895  0.00  0.00    +0.000 HD
ATOM     31  H   UNL     1      52.290   7.211  10.846  0.00  0.00    +0.000 HD
ENDBRANCH  24  27
ENDBRANCH  19  21
ENDBRANCH   1  19
TORSDOF 6
ENDMDL
MODEL 7
REMARK VINA RESULT:    -6.623      5.543      8.031
REMARK INTER + INTRA:          -9.868
REMARK INTER:                  -8.654
REMARK INTRA:                  -1.214
REMARK UNBOUND:                -0.922
REMARK  Name = 
REMARK  6 active torsions:
REMARK  status: ('A' for Active; 'I' for Inactive)
REMARK    1  A    between atoms: C_2  and  C_3
REMARK    2  A    between atoms: C_6  and  C_7
REMARK    3  A    between atoms: C_9  and  C_10
REMARK    4  A    between atoms: C_10  and  N_11
REMARK    5  A    between atoms: N_11  and  C_12
REMARK    6  A    between atoms: C_15  and  C_16
REMARK                            x       y       z     vdW  Elec       q    Type
REMARK                         _______ _______ _______ _____ _____    ______ ____
ROOT
ATOM      1  C   UNL     1      49.113   7.696  15.365  0.00  0.00    +0.000 C 
ATOM      2  C   UNL     1      49.702   9.092  15.426  0.00  0.00    +0.000 C 
ATOM      3  O   UNL     1      48.297   8.891  15.493  0.00  0.00    +0.000 OA
ENDROOT
BRANCH   1   6
ATOM      4  C   UNL     1      50.043   4.837  17.772  0.00  0.00    +0.000 A 
ATOM      5  C   UNL     1      50.060   5.783  16.728  0.00  0.00    +0.000 A 
ATOM      6  C   UNL     1      49.121   6.830  16.611  0.00  0.00    +0.000 A 
ATOM      7  C   UNL     1      48.186   6.977  17.643  0.00  0.00    +0.000 A 
ATOM      8  C   UNL     1      48.171   6.091  18.720  0.00  0.00    +0.000 A 
ATOM      9  C   UNL     1      49.077   5.031  18.769  0.00  0.00    +0.000 A 
ATOM     10  F   UNL     1      48.968   4.173  19.795  0.00  0.00    +0.000 F 
BRANCH   4  14
ATOM     11  C   UNL     1      52.704   1.430  17.748  0.00  0.00    +0.000 A 
ATOM     12  C   UNL     1      53.176   2.687  18.134  0.00  0.00    +0.000 A 
ATOM     13  C   UNL     1      52.321   3.796  18.127  0.00  0.00    +0.000 A 
ATOM     14  C   UNL     1      50.971   3.681  17.752  0.00  0.00    +0.000 A 
ATOM     15  C   UNL     1      50.523   2.397  17.369  0.00  0.00    +0.000 A 
ATOM     16  C   UNL     1      51.373   1.285  17.364  0.00  0.00    +0.000 A 
BRANCH  11  18
ATOM     17  N   UNL     1      54.283  -0.621  17.763  0.00  0.00    +0.000 NA
ATOM     18  C   UNL     1      53.574   0.296  17.758  0.00  0.00    +0.000 C 
ENDBRANCH  11  18
ENDBRANCH   4  14
ENDBRANCH   1   6
BRANCH   1  19
ATOM     19  N   UNL     1      48.780   7.011  14.125  0.00  0.00    +0.000 N 
ATOM     20  H   UNL     1      49.450   7.124  13.371  0.00  0.00    +0.000 HD
BRANCH  19  21
ATOM     21  C   UNL     1      47.544   6.477  13.738  0.00  0.00    +0.000 A 
ATOM     22  C   UNL     1      46.522   7.205  13.128  0.00  0.00    +0.000 A 
ATOM     23  C   UNL     1      45.272   6.614  12.874  0.00  0.00    +0.000 A 
ATOM     24  C   UNL     1      45.026   5.283  13.237  0.00  0.00    +0.000 A 
ATOM     25  C   UNL     1      46.040   4.546  13.847  0.00  0.00    +0.000 A 
ATOM     26  C   UNL     1      47.280   5.143  14.093  0.00  0.00    +0.000 A 
BRANCH  24  27
ATOM     27  C   UNL     1      43.667   4.714  13.032  0.00  0.00    +0.000 C 
ATOM     28  N   UNL     1      42.638   5.590  12.821  0.00  0.00    +0.000 N 
ATOM     29  O   UNL     1      43.467   3.505  13.058  0.00  0.00    +0.000 OA
ATOM     30  H   UNL     1      42.712   6.584  12.978  0.00  0.00    +0.000 HD
ATOM     31  H   UNL     1      41.711   5.193  12.736  0.00  0.00    +0.000 HD
ENDBRANCH  24  27
ENDBRANCH  19  21
ENDBRANCH   1  19
TORSDOF 6
ENDMDL
MODEL 8
REMARK VINA RESULT:    -6.594      4.720      6.750
REMARK INTER + INTRA:          -9.829
REMARK INTER:                  -8.974
REMARK INTRA:                  -0.855
REMARK UNBOUND:                -0.922
REMARK  Name = 
REMARK  6 active torsions:
REMARK  status: ('A' for Active; 'I' for Inactive)
REMARK    1  A    between atoms: C_2  and  C_3
REMARK    2  A    between atoms: C_6  and  C_7
REMARK    3  A    between atoms: C_9  and  C_10
REMARK    4  A    between atoms: C_10  and  N_11
REMARK    5  A    between atoms: N_11  and  C_12
REMARK    6  A    between atoms: C_15  and  C_16
REMARK                            x       y       z     vdW  Elec       q    Type
REMARK                         _______ _______ _______ _____ _____    ______ ____
ROOT
ATOM      1  C   UNL     1      47.884   8.173  13.751  0.00  0.00    +0.000 C 
ATOM      2  C   UNL     1      48.840   8.511  12.624  0.00  0.00    +0.000 C 
ATOM      3  O   UNL     1      48.044   9.520  13.231  0.00  0.00    +0.000 OA
ENDROOT
BRANCH   1   6
ATOM      4  C   UNL     1      49.533   6.504  16.804  0.00  0.00    +0.000 A 
ATOM      5  C   UNL     1      49.130   6.821  15.493  0.00  0.00    +0.000 A 
ATOM      6  C   UNL     1      48.425   7.997  15.157  0.00  0.00    +0.000 A 
ATOM      7  C   UNL     1      48.201   8.928  16.178  0.00  0.00    +0.000 A 
ATOM      8  C   UNL     1      48.631   8.673  17.481  0.00  0.00    +0.000 A 
ATOM      9  C   UNL     1      49.271   7.471  17.785  0.00  0.00    +0.000 A 
ATOM     10  F   UNL     1      49.599   7.254  19.067  0.00  0.00    +0.000 F 
BRANCH   4  14
ATOM     11  C   UNL     1      51.353   2.671  17.633  0.00  0.00    +0.000 A 
ATOM     12  C   UNL     1      49.976   2.763  17.420  0.00  0.00    +0.000 A 
ATOM     13  C   UNL     1      49.381   4.005  17.168  0.00  0.00    +0.000 A 
ATOM     14  C   UNL     1      50.142   5.185  17.104  0.00  0.00    +0.000 A 
ATOM     15  C   UNL     1      51.532   5.060  17.321  0.00  0.00    +0.000 A 
ATOM     16  C   UNL     1      52.133   3.824  17.583  0.00  0.00    +0.000 A 
BRANCH  11  18
ATOM     17  N   UNL     1      52.462   0.377  18.093  0.00  0.00    +0.000 NA
ATOM     18  C   UNL     1      51.963   1.403  17.886  0.00  0.00    +0.000 C 
ENDBRANCH  11  18
ENDBRANCH   4  14
ENDBRANCH   1   6
BRANCH   1  19
ATOM     19  N   UNL     1      46.512   7.733  13.544  0.00  0.00    +0.000 N 
ATOM     20  H   UNL     1      45.824   8.142  14.168  0.00  0.00    +0.000 HD
BRANCH  19  21
ATOM     21  C   UNL     1      46.061   6.623  12.818  0.00  0.00    +0.000 A 
ATOM     22  C   UNL     1      45.501   6.687  11.541  0.00  0.00    +0.000 A 
ATOM     23  C   UNL     1      44.974   5.535  10.931  0.00  0.00    +0.000 A 
ATOM     24  C   UNL     1      44.992   4.302  11.598  0.00  0.00    +0.000 A 
ATOM     25  C   UNL     1      45.548   4.229  12.874  0.00  0.00    +0.000 A 
ATOM     26  C   UNL     1      46.072   5.379  13.471  0.00  0.00    +0.000 A 
BRANCH  24  27
ATOM     27  C   UNL     1      44.350   3.123  10.960  0.00  0.00    +0.000 C 
ATOM     28  N   UNL     1      45.078   2.429  10.032  0.00  0.00    +0.000 N 
ATOM     29  O   UNL     1      43.207   2.783  11.242  0.00  0.00    +0.000 OA
ATOM     30  H   UNL     1      45.937   2.771   9.629  0.00  0.00    +0.000 HD
ATOM     31  H   UNL     1      44.610   1.661   9.567  0.00  0.00    +0.000 HD
ENDBRANCH  24  27
ENDBRANCH  19  21
ENDBRANCH   1  19
TORSDOF 6
ENDMDL
MODEL 9
REMARK VINA RESULT:    -6.574      3.691      7.161
REMARK INTER + INTRA:          -9.802
REMARK INTER:                  -9.669
REMARK INTRA:                  -0.132
REMARK UNBOUND:                -0.922
REMARK  Name = 
REMARK  6 active torsions:
REMARK  status: ('A' for Active; 'I' for Inactive)
REMARK    1  A    between atoms: C_2  and  C_3
REMARK    2  A    between atoms: C_6  and  C_7
REMARK    3  A    between atoms: C_9  and  C_10
REMARK    4  A    between atoms: C_10  and  N_11
REMARK    5  A    between atoms: N_11  and  C_12
REMARK    6  A    between atoms: C_15  and  C_16
REMARK                            x       y       z     vdW  Elec       q    Type
REMARK                         _______ _______ _______ _____ _____    ______ ____
ROOT
ATOM      1  C   UNL     1      45.940   7.622  12.893  0.00  0.00    +0.000 C 
ATOM      2  C   UNL     1      45.240   8.967  12.910  0.00  0.00    +0.000 C 
ATOM      3  O   UNL     1      46.179   8.647  11.892  0.00  0.00    +0.000 OA
ENDROOT
BRANCH   1   6
ATOM      4  C   UNL     1      45.063   4.648  10.610  0.00  0.00    +0.000 A 
ATOM      5  C   UNL     1      45.745   5.689  11.269  0.00  0.00    +0.000 A 
ATOM      6  C   UNL     1      45.206   6.408  12.357  0.00  0.00    +0.000 A 
ATOM      7  C   UNL     1      43.963   5.993  12.852  0.00  0.00    +0.000 A 
ATOM      8  C   UNL     1      43.280   4.932  12.258  0.00  0.00    +0.000 A 
ATOM      9  C   UNL     1      43.819   4.286  11.145  0.00  0.00    +0.000 A 
ATOM     10  F   UNL     1      43.083   3.319  10.576  0.00  0.00    +0.000 F 
BRANCH   4  14
ATOM     11  C   UNL     1      46.754   2.822   7.075  0.00  0.00    +0.000 A 
ATOM     12  C   UNL     1      46.760   4.211   7.219  0.00  0.00    +0.000 A 
ATOM     13  C   UNL     1      46.198   4.807   8.355  0.00  0.00    +0.000 A 
ATOM     14  C   UNL     1      45.631   4.036   9.384  0.00  0.00    +0.000 A 
ATOM     15  C   UNL     1      45.642   2.634   9.211  0.00  0.00    +0.000 A 
ATOM     16  C   UNL     1      46.193   2.031   8.075  0.00  0.00    +0.000 A 
BRANCH  11  18
ATOM     17  N   UNL     1      47.794   1.717   4.977  0.00  0.00    +0.000 NA
ATOM     18  C   UNL     1      47.331   2.212   5.918  0.00  0.00    +0.000 C 
ENDBRANCH  11  18
ENDBRANCH   4  14
ENDBRANCH   1   6
BRANCH   1  19
ATOM     19  N   UNL     1      47.177   7.345  13.609  0.00  0.00    +0.000 N 
ATOM     20  H   UNL     1      47.980   7.892  13.319  0.00  0.00    +0.000 HD
BRANCH  19  21
ATOM     21  C   UNL     1      47.478   6.241  14.417  0.00  0.00    +0.000 A 
ATOM     22  C   UNL     1      46.909   4.975  14.272  0.00  0.00    +0.000 A 
ATOM     23  C   UNL     1      47.188   3.953  15.198  0.00  0.00    +0.000 A 
ATOM     24  C   UNL     1      48.035   4.191  16.289  0.00  0.00    +0.000 A 
ATOM     25  C   UNL     1      48.608   5.452  16.443  0.00  0.00    +0.000 A 
ATOM     26  C   UNL     1      48.327   6.460  15.516  0.00  0.00    +0.000 A 
BRANCH  24  27
ATOM     27  C   UNL     1      48.240   3.115  17.295  0.00  0.00    +0.000 C 
ATOM     28  N   UNL     1      47.246   2.906  18.212  0.00  0.00    +0.000 N 
ATOM     29  O   UNL     1      49.264   2.442  17.315  0.00  0.00    +0.000 OA
ATOM     30  H   UNL     1      46.480   3.545  18.359  0.00  0.00    +0.000 HD
ATOM     31  H   UNL     1      47.422   2.207  18.923  0.00  0.00    +0.000 HD
ENDBRANCH  24  27
ENDBRANCH  19  21
ENDBRANCH   1  19
TORSDOF 6
ENDMDL
