MODEL 1
REMARK VINA RESULT:    -7.191      0.000      0.000
REMARK INTER + INTRA:          -8.773
REMARK INTER:                  -8.873
REMARK INTRA:                   0.100
REMARK UNBOUND:                 0.100
REMARK  Name = 
REMARK  4 active torsions:
REMARK  status: ('A' for Active; 'I' for Inactive)
REMARK    1  A    between atoms: C_2  and  C_4
REMARK    2  A    between atoms: N_8  and  C_9
REMARK    3  A    between atoms: C_9  and  C_10
REMARK    4  A    between atoms: C_15  and  C_16
REMARK                            x       y       z     vdW  Elec       q    Type
REMARK                         _______ _______ _______ _____ _____    ______ ____
ROOT
ATOM      1  C   UNL     1      46.461   3.117   7.613  0.00  0.00    +0.000 A 
ATOM      2  C   UNL     1      46.014   2.059   8.398  0.00  0.00    +0.000 A 
ATOM      3  C   UNL     1      45.239   2.350   9.511  0.00  0.00    +0.000 A 
ATOM      4  C   UNL     1      44.944   3.679   9.829  0.00  0.00    +0.000 A 
ATOM      5  N   UNL     1      43.942   3.860  10.801  0.00  0.00    +0.000 N 
ATOM      6  N   UNL     1      45.478   4.710   9.148  0.00  0.00    +0.000 NA
ATOM      7  C   UNL     1      46.228   4.410   8.054  0.00  0.00    +0.000 A 
ATOM      8  H   UNL     1      43.070   3.512  10.410  0.00  0.00    +0.000 HD
ENDROOT
BRANCH   1  10
ATOM      9  N   UNL     1      48.426   2.594   6.316  0.00  0.00    +0.000 N 
ATOM     10  C   UNL     1      47.086   2.887   6.307  0.00  0.00    +0.000 C 
ATOM     11  O   UNL     1      46.424   2.899   5.278  0.00  0.00    +0.000 OA
ATOM     12  H   UNL     1      48.832   2.272   5.444  0.00  0.00    +0.000 HD
ATOM     13  H   UNL     1      48.913   2.335   7.163  0.00  0.00    +0.000 HD
ENDBRANCH   1  10
BRANCH   5  14
ATOM     14  C   UNL     1      43.818   5.052  11.654  0.00  0.00    +0.000 C 
ATOM     15  C   UNL     1      42.642   5.221  12.600  0.00  0.00    +0.000 C 
ATOM     16  C   UNL     1      42.628   5.953  11.300  0.00  0.00    +0.000 C 
BRANCH  14  17
ATOM     17  C   UNL     1      45.112   5.833  11.980  0.00  0.00    +0.000 A 
ATOM     18  N   UNL     1      45.256   7.044  11.365  0.00  0.00    +0.000 NA
ATOM     19  C   UNL     1      46.477   7.610  11.291  0.00  0.00    +0.000 A 
ATOM     20  C   UNL     1      47.612   7.030  11.810  0.00  0.00    +0.000 A 
ATOM     21  C   UNL     1      47.461   5.853  12.527  0.00  0.00    +0.000 A 
ATOM     22  C   UNL     1      46.194   5.256  12.660  0.00  0.00    +0.000 A 
BRANCH  22  23
ATOM     23  C   UNL     1      46.094   3.988  13.458  0.00  0.00    +0.000 C 
ATOM     24  F   UNL     1      45.981   2.836  12.746  0.00  0.00    +0.000 F 
ATOM     25  F   UNL     1      47.154   3.813  14.296  0.00  0.00    +0.000 F 
ATOM     26  F   UNL     1      44.990   3.992  14.266  0.00  0.00    +0.000 F 
ENDBRANCH  22  23
ENDBRANCH  14  17
ENDBRANCH   5  14
TORSDOF 4
ENDMDL
MODEL 2
REMARK VINA RESULT:    -6.792      1.699      2.200
REMARK INTER + INTRA:          -8.279
REMARK INTER:                  -8.789
REMARK INTRA:                   0.509
REMARK UNBOUND:                 0.100
REMARK  Name = 
REMARK  4 active torsions:
REMARK  status: ('A' for Active; 'I' for Inactive)
REMARK    1  A    between atoms: C_2  and  C_4
REMARK    2  A    between atoms: N_8  and  C_9
REMARK    3  A    between atoms: C_9  and  C_10
REMARK    4  A    between atoms: C_15  and  C_16
REMARK                            x       y       z     vdW  Elec       q    Type
REMARK                         _______ _______ _______ _____ _____    ______ ____
ROOT
ATOM      1  C   UNL     1      46.366   2.137   7.784  0.00  0.00    +0.000 A 
ATOM      2  C   UNL     1      46.306   3.338   7.085  0.00  0.00    +0.000 A 
ATOM      3  C   UNL     1      45.903   4.476   7.768  0.00  0.00    +0.000 A 
ATOM      4  C   UNL     1      45.551   4.391   9.119  0.00  0.00    +0.000 A 
ATOM      5  N   UNL     1      45.420   5.623   9.788  0.00  0.00    +0.000 N 
ATOM      6  N   UNL     1      45.485   3.213   9.766  0.00  0.00    +0.000 NA
ATOM      7  C   UNL     1      45.892   2.108   9.086  0.00  0.00    +0.000 A 
ATOM      8  H   UNL     1      46.339   6.058   9.811  0.00  0.00    +0.000 HD
ENDROOT
BRANCH   1  10
ATOM      9  N   UNL     1      46.604  -0.262   7.720  0.00  0.00    +0.000 N 
ATOM     10  C   UNL     1      46.994   0.947   7.202  0.00  0.00    +0.000 C 
ATOM     11  O   UNL     1      47.779   1.038   6.268  0.00  0.00    +0.000 OA
ATOM     12  H   UNL     1      46.901  -1.093   7.220  0.00  0.00    +0.000 HD
ATOM     13  H   UNL     1      45.784  -0.356   8.303  0.00  0.00    +0.000 HD
ENDBRANCH   1  10
BRANCH   5  14
ATOM     14  C   UNL     1      44.594   5.833  10.986  0.00  0.00    +0.000 C 
ATOM     15  C   UNL     1      43.818   4.688  11.615  0.00  0.00    +0.000 C 
ATOM     16  C   UNL     1      43.089   5.656  10.747  0.00  0.00    +0.000 C 
BRANCH  14  17
ATOM     17  C   UNL     1      44.939   7.039  11.890  0.00  0.00    +0.000 A 
ATOM     18  N   UNL     1      44.408   8.241  11.521  0.00  0.00    +0.000 NA
ATOM     19  C   UNL     1      44.938   9.380  12.009  0.00  0.00    +0.000 A 
ATOM     20  C   UNL     1      46.008   9.405  12.876  0.00  0.00    +0.000 A 
ATOM     21  C   UNL     1      46.487   8.189  13.339  0.00  0.00    +0.000 A 
ATOM     22  C   UNL     1      45.929   6.981  12.883  0.00  0.00    +0.000 A 
BRANCH  22  23
ATOM     23  C   UNL     1      46.485   5.698  13.429  0.00  0.00    +0.000 C 
ATOM     24  F   UNL     1      45.607   4.888  14.077  0.00  0.00    +0.000 F 
ATOM     25  F   UNL     1      47.068   4.930  12.466  0.00  0.00    +0.000 F 
ATOM     26  F   UNL     1      47.468   5.932  14.351  0.00  0.00    +0.000 F 
ENDBRANCH  22  23
ENDBRANCH  14  17
ENDBRANCH   5  14
TORSDOF 4
ENDMDL
MODEL 3
REMARK VINA RESULT:    -6.295      2.184      2.788
REMARK INTER + INTRA:          -7.667
REMARK INTER:                  -7.484
REMARK INTRA:                  -0.182
REMARK UNBOUND:                 0.100
REMARK  Name = 
REMARK  4 active torsions:
REMARK  status: ('A' for Active; 'I' for Inactive)
REMARK    1  A    between atoms: C_2  and  C_4
REMARK    2  A    between atoms: N_8  and  C_9
REMARK    3  A    between atoms: C_9  and  C_10
REMARK    4  A    between atoms: C_15  and  C_16
REMARK                            x       y       z     vdW  Elec       q    Type
REMARK                         _______ _______ _______ _____ _____    ______ ____
ROOT
ATOM      1  C   UNL     1      45.996   2.567   7.468  0.00  0.00    +0.000 A 
ATOM      2  C   UNL     1      44.915   3.417   7.252  0.00  0.00    +0.000 A 
ATOM      3  C   UNL     1      44.366   4.069   8.346  0.00  0.00    +0.000 A 
ATOM      4  C   UNL     1      44.887   3.850   9.625  0.00  0.00    +0.000 A 
ATOM      5  N   UNL     1      44.451   4.748  10.617  0.00  0.00    +0.000 N 
ATOM      6  N   UNL     1      45.847   2.935   9.856  0.00  0.00    +0.000 NA
ATOM      7  C   UNL     1      46.382   2.309   8.773  0.00  0.00    +0.000 A 
ATOM      8  H   UNL     1      44.806   5.669  10.374  0.00  0.00    +0.000 HD
ENDROOT
BRANCH   1  10
ATOM      9  N   UNL     1      47.132   2.910   5.368  0.00  0.00    +0.000 N 
ATOM     10  C   UNL     1      46.772   2.022   6.350  0.00  0.00    +0.000 C 
ATOM     11  O   UNL     1      47.123   0.850   6.334  0.00  0.00    +0.000 OA
ATOM     12  H   UNL     1      47.803   2.588   4.680  0.00  0.00    +0.000 HD
ATOM     13  H   UNL     1      47.067   3.910   5.500  0.00  0.00    +0.000 HD
ENDBRANCH   1  10
BRANCH   5  14
ATOM     14  C   UNL     1      44.422   4.444  12.056  0.00  0.00    +0.000 C 
ATOM     15  C   UNL     1      43.387   3.496  12.637  0.00  0.00    +0.000 C 
ATOM     16  C   UNL     1      43.173   4.965  12.779  0.00  0.00    +0.000 C 
BRANCH  14  17
ATOM     17  C   UNL     1      45.730   4.647  12.855  0.00  0.00    +0.000 A 
ATOM     18  N   UNL     1      46.076   3.641  13.711  0.00  0.00    +0.000 NA
ATOM     19  C   UNL     1      46.965   3.883  14.694  0.00  0.00    +0.000 A 
ATOM     20  C   UNL     1      47.558   5.109  14.893  0.00  0.00    +0.000 A 
ATOM     21  C   UNL     1      47.295   6.107  13.968  0.00  0.00    +0.000 A 
ATOM     22  C   UNL     1      46.404   5.876  12.903  0.00  0.00    +0.000 A 
BRANCH  22  23
ATOM     23  C   UNL     1      46.168   6.993  11.928  0.00  0.00    +0.000 C 
ATOM     24  F   UNL     1      46.307   6.684  10.612  0.00  0.00    +0.000 F 
ATOM     25  F   UNL     1      44.930   7.547  12.058  0.00  0.00    +0.000 F 
ATOM     26  F   UNL     1      47.047   8.023  12.125  0.00  0.00    +0.000 F 
ENDBRANCH  22  23
ENDBRANCH  14  17
ENDBRANCH   5  14
TORSDOF 4
ENDMDL
MODEL 4
REMARK VINA RESULT:    -6.230      1.874      2.514
REMARK INTER + INTRA:          -7.586
REMARK INTER:                  -8.056
REMARK INTRA:                   0.470
REMARK UNBOUND:                 0.100
REMARK  Name = 
REMARK  4 active torsions:
REMARK  status: ('A' for Active; 'I' for Inactive)
REMARK    1  A    between atoms: C_2  and  C_4
REMARK    2  A    between atoms: N_8  and  C_9
REMARK    3  A    between atoms: C_9  and  C_10
REMARK    4  A    between atoms: C_15  and  C_16
REMARK                            x       y       z     vdW  Elec       q    Type
REMARK                         _______ _______ _______ _____ _____    ______ ____
ROOT
ATOM      1  C   UNL     1      46.187   2.291   8.065  0.00  0.00    +0.000 A 
ATOM      2  C   UNL     1      46.162   3.453   7.301  0.00  0.00    +0.000 A 
ATOM      3  C   UNL     1      45.841   4.646   7.932  0.00  0.00    +0.000 A 
ATOM      4  C   UNL     1      45.534   4.654   9.296  0.00  0.00    +0.000 A 
ATOM      5  N   UNL     1      45.489   5.926   9.898  0.00  0.00    +0.000 N 
ATOM      6  N   UNL     1      45.433   3.518  10.011  0.00  0.00    +0.000 NA
ATOM      7  C   UNL     1      45.759   2.358   9.381  0.00  0.00    +0.000 A 
ATOM      8  H   UNL     1      46.429   6.313   9.866  0.00  0.00    +0.000 HD
ENDROOT
BRANCH   1  10
ATOM      9  N   UNL     1      47.658   1.159   6.525  0.00  0.00    +0.000 N 
ATOM     10  C   UNL     1      46.733   1.039   7.531  0.00  0.00    +0.000 C 
ATOM     11  O   UNL     1      46.417  -0.043   8.006  0.00  0.00    +0.000 OA
ATOM     12  H   UNL     1      48.162   0.319   6.262  0.00  0.00    +0.000 HD
ATOM     13  H   UNL     1      48.104   2.039   6.309  0.00  0.00    +0.000 HD
ENDBRANCH   1  10
BRANCH   5  14
ATOM     14  C   UNL     1      44.718   6.244  11.109  0.00  0.00    +0.000 C 
ATOM     15  C   UNL     1      43.215   6.454  11.050  0.00  0.00    +0.000 C 
ATOM     16  C   UNL     1      44.104   7.650  11.108  0.00  0.00    +0.000 C 
BRANCH  14  17
ATOM     17  C   UNL     1      45.327   5.836  12.470  0.00  0.00    +0.000 A 
ATOM     18  N   UNL     1      46.537   6.388  12.780  0.00  0.00    +0.000 NA
ATOM     19  C   UNL     1      47.299   5.824  13.738  0.00  0.00    +0.000 A 
ATOM     20  C   UNL     1      46.924   4.699  14.437  0.00  0.00    +0.000 A 
ATOM     21  C   UNL     1      45.655   4.192  14.205  0.00  0.00    +0.000 A 
ATOM     22  C   UNL     1      44.815   4.782  13.242  0.00  0.00    +0.000 A 
BRANCH  22  23
ATOM     23  C   UNL     1      43.448   4.194  13.044  0.00  0.00    +0.000 C 
ATOM     24  F   UNL     1      43.200   3.643  11.827  0.00  0.00    +0.000 F 
ATOM     25  F   UNL     1      43.157   3.230  13.962  0.00  0.00    +0.000 F 
ATOM     26  F   UNL     1      42.471   5.139  13.190  0.00  0.00    +0.000 F 
ENDBRANCH  22  23
ENDBRANCH  14  17
ENDBRANCH   5  14
TORSDOF 4
ENDMDL
MODEL 5
REMARK VINA RESULT:    -6.175      4.640      6.379
REMARK INTER + INTRA:          -7.519
REMARK INTER:                  -7.588
REMARK INTRA:                   0.070
REMARK UNBOUND:                 0.100
REMARK  Name = 
REMARK  4 active torsions:
REMARK  status: ('A' for Active; 'I' for Inactive)
REMARK    1  A    between atoms: C_2  and  C_4
REMARK    2  A    between atoms: N_8  and  C_9
REMARK    3  A    between atoms: C_9  and  C_10
REMARK    4  A    between atoms: C_15  and  C_16
REMARK                            x       y       z     vdW  Elec       q    Type
REMARK                         _______ _______ _______ _____ _____    ______ ____
ROOT
ATOM      1  C   UNL     1      45.383   4.253  11.980  0.00  0.00    +0.000 A 
ATOM      2  C   UNL     1      45.409   5.560  12.456  0.00  0.00    +0.000 A 
ATOM      3  C   UNL     1      46.068   5.811  13.650  0.00  0.00    +0.000 A 
ATOM      4  C   UNL     1      46.668   4.760  14.351  0.00  0.00    +0.000 A 
ATOM      5  N   UNL     1      47.533   5.144  15.393  0.00  0.00    +0.000 N 
ATOM      6  N   UNL     1      46.538   3.478  13.962  0.00  0.00    +0.000 NA
ATOM      7  C   UNL     1      45.896   3.249  12.785  0.00  0.00    +0.000 A 
ATOM      8  H   UNL     1      48.323   5.626  14.973  0.00  0.00    +0.000 HD
ENDROOT
BRANCH   1  10
ATOM      9  N   UNL     1      44.429   4.999   9.894  0.00  0.00    +0.000 N 
ATOM     10  C   UNL     1      44.911   3.944  10.627  0.00  0.00    +0.000 C 
ATOM     11  O   UNL     1      45.001   2.813  10.168  0.00  0.00    +0.000 OA
ATOM     12  H   UNL     1      44.255   4.833   8.909  0.00  0.00    +0.000 HD
ATOM     13  H   UNL     1      44.586   5.959  10.169  0.00  0.00    +0.000 HD
ENDBRANCH   1  10
BRANCH   5  14
ATOM     14  C   UNL     1      47.855   4.303  16.556  0.00  0.00    +0.000 C 
ATOM     15  C   UNL     1      46.791   3.456  17.232  0.00  0.00    +0.000 C 
ATOM     16  C   UNL     1      47.180   4.752  17.858  0.00  0.00    +0.000 C 
BRANCH  14  17
ATOM     17  C   UNL     1      49.329   3.873  16.740  0.00  0.00    +0.000 A 
ATOM     18  N   UNL     1      49.580   2.533  16.665  0.00  0.00    +0.000 NA
ATOM     19  C   UNL     1      50.730   2.044  17.169  0.00  0.00    +0.000 A 
ATOM     20  C   UNL     1      51.688   2.831  17.768  0.00  0.00    +0.000 A 
ATOM     21  C   UNL     1      51.492   4.203  17.755  0.00  0.00    +0.000 A 
ATOM     22  C   UNL     1      50.322   4.751  17.199  0.00  0.00    +0.000 A 
BRANCH  22  23
ATOM     23  C   UNL     1      50.173   6.245  17.205  0.00  0.00    +0.000 C 
ATOM     24  F   UNL     1      49.675   6.806  16.072  0.00  0.00    +0.000 F 
ATOM     25  F   UNL     1      49.383   6.687  18.224  0.00  0.00    +0.000 F 
ATOM     26  F   UNL     1      51.377   6.867  17.385  0.00  0.00    +0.000 F 
ENDBRANCH  22  23
ENDBRANCH  14  17
ENDBRANCH   5  14
TORSDOF 4
ENDMDL
MODEL 6
REMARK VINA RESULT:    -6.006      3.777      5.281
REMARK INTER + INTRA:          -7.310
REMARK INTER:                  -7.300
REMARK INTRA:                  -0.011
REMARK UNBOUND:                 0.100
REMARK  Name = 
REMARK  4 active torsions:
REMARK  status: ('A' for Active; 'I' for Inactive)
REMARK    1  A    between atoms: C_2  and  C_4
REMARK    2  A    between atoms: N_8  and  C_9
REMARK    3  A    between atoms: C_9  and  C_10
REMARK    4  A    between atoms: C_15  and  C_16
REMARK                            x       y       z     vdW  Elec       q    Type
REMARK                         _______ _______ _______ _____ _____    ______ ____
ROOT
ATOM      1  C   UNL     1      44.626   3.967  10.979  0.00  0.00    +0.000 A 
ATOM      2  C   UNL     1      45.028   4.752   9.903  0.00  0.00    +0.000 A 
ATOM      3  C   UNL     1      45.868   5.827  10.152  0.00  0.00    +0.000 A 
ATOM      4  C   UNL     1      46.273   6.108  11.461  0.00  0.00    +0.000 A 
ATOM      5  N   UNL     1      47.325   7.035  11.582  0.00  0.00    +0.000 N 
ATOM      6  N   UNL     1      45.787   5.431  12.519  0.00  0.00    +0.000 NA
ATOM      7  C   UNL     1      44.972   4.374  12.257  0.00  0.00    +0.000 A 
ATOM      8  H   UNL     1      48.152   6.615  11.165  0.00  0.00    +0.000 HD
ENDROOT
BRANCH   1  10
ATOM      9  N   UNL     1      44.392   1.905   9.750  0.00  0.00    +0.000 N 
ATOM     10  C   UNL     1      43.932   2.692  10.775  0.00  0.00    +0.000 C 
ATOM     11  O   UNL     1      43.031   2.334  11.523  0.00  0.00    +0.000 OA
ATOM     12  H   UNL     1      44.035   0.957   9.702  0.00  0.00    +0.000 HD
ATOM     13  H   UNL     1      45.281   2.075   9.301  0.00  0.00    +0.000 HD
ENDBRANCH   1  10
BRANCH   5  14
ATOM     14  C   UNL     1      47.571   7.860  12.775  0.00  0.00    +0.000 C 
ATOM     15  C   UNL     1      46.448   8.646  13.430  0.00  0.00    +0.000 C 
ATOM     16  C   UNL     1      47.402   9.366  12.538  0.00  0.00    +0.000 C 
BRANCH  14  17
ATOM     17  C   UNL     1      48.795   7.505  13.649  0.00  0.00    +0.000 A 
ATOM     18  N   UNL     1      48.526   7.029  14.900  0.00  0.00    +0.000 NA
ATOM     19  C   UNL     1      49.492   7.047  15.840  0.00  0.00    +0.000 A 
ATOM     20  C   UNL     1      50.761   7.527  15.610  0.00  0.00    +0.000 A 
ATOM     21  C   UNL     1      51.077   7.914  14.317  0.00  0.00    +0.000 A 
ATOM     22  C   UNL     1      50.105   7.868  13.301  0.00  0.00    +0.000 A 
BRANCH  22  23
ATOM     23  C   UNL     1      50.511   8.291  11.919  0.00  0.00    +0.000 C 
ATOM     24  F   UNL     1      50.087   7.501  10.898  0.00  0.00    +0.000 F 
ATOM     25  F   UNL     1      50.099   9.554  11.616  0.00  0.00    +0.000 F 
ATOM     26  F   UNL     1      51.872   8.312  11.782  0.00  0.00    +0.000 F 
ENDBRANCH  22  23
ENDBRANCH  14  17
ENDBRANCH   5  14
TORSDOF 4
ENDMDL
MODEL 7
REMARK VINA RESULT:    -5.887      3.376      5.799
REMARK INTER + INTRA:          -7.163
REMARK INTER:                  -7.332
REMARK INTRA:                   0.169
REMARK UNBOUND:                 0.100
REMARK  Name = 
REMARK  4 active torsions:
REMARK  status: ('A' for Active; 'I' for Inactive)
REMARK    1  A    between atoms: C_2  and  C_4
REMARK    2  A    between atoms: N_8  and  C_9
REMARK    3  A    between atoms: C_9  and  C_10
REMARK    4  A    between atoms: C_15  and  C_16
REMARK                            x       y       z     vdW  Elec       q    Type
REMARK                         _______ _______ _______ _____ _____    ______ ____
ROOT
ATOM      1  C   UNL     1      49.956   7.844  13.349  0.00  0.00    +0.000 A 
ATOM      2  C   UNL     1      49.184   7.425  14.428  0.00  0.00    +0.000 A 
ATOM      3  C   UNL     1      47.944   6.860  14.168  0.00  0.00    +0.000 A 
ATOM      4  C   UNL     1      47.493   6.744  12.850  0.00  0.00    +0.000 A 
ATOM      5  N   UNL     1      46.362   5.925  12.668  0.00  0.00    +0.000 N 
ATOM      6  N   UNL     1      48.177   7.262  11.813  0.00  0.00    +0.000 NA
ATOM      7  C   UNL     1      49.395   7.803  12.083  0.00  0.00    +0.000 A 
ATOM      8  H   UNL     1      46.631   4.974  12.909  0.00  0.00    +0.000 HD
ENDROOT
BRANCH   1  10
ATOM      9  N   UNL     1      52.009   7.708  14.607  0.00  0.00    +0.000 N 
ATOM     10  C   UNL     1      51.358   8.236  13.521  0.00  0.00    +0.000 C 
ATOM     11  O   UNL     1      51.921   8.949  12.702  0.00  0.00    +0.000 OA
ATOM     12  H   UNL     1      53.014   7.836  14.647  0.00  0.00    +0.000 HD
ATOM     13  H   UNL     1      51.632   6.932  15.133  0.00  0.00    +0.000 HD
ENDBRANCH   1  10
BRANCH   5  14
ATOM     14  C   UNL     1      45.420   6.046  11.545  0.00  0.00    +0.000 C 
ATOM     15  C   UNL     1      44.939   7.406  11.069  0.00  0.00    +0.000 C 
ATOM     16  C   UNL     1      44.043   6.594  11.941  0.00  0.00    +0.000 C 
BRANCH  14  17
ATOM     17  C   UNL     1      45.356   4.876  10.538  0.00  0.00    +0.000 A 
ATOM     18  N   UNL     1      45.734   5.160   9.257  0.00  0.00    +0.000 NA
ATOM     19  C   UNL     1      45.367   4.334   8.257  0.00  0.00    +0.000 A 
ATOM     20  C   UNL     1      44.616   3.197   8.453  0.00  0.00    +0.000 A 
ATOM     21  C   UNL     1      44.316   2.843   9.759  0.00  0.00    +0.000 A 
ATOM     22  C   UNL     1      44.720   3.660  10.831  0.00  0.00    +0.000 A 
BRANCH  22  23
ATOM     23  C   UNL     1      44.374   3.217  12.223  0.00  0.00    +0.000 C 
ATOM     24  F   UNL     1      43.686   4.107  12.985  0.00  0.00    +0.000 F 
ATOM     25  F   UNL     1      43.647   2.064  12.238  0.00  0.00    +0.000 F 
ATOM     26  F   UNL     1      45.497   2.946  12.955  0.00  0.00    +0.000 F 
ENDBRANCH  22  23
ENDBRANCH  14  17
ENDBRANCH   5  14
TORSDOF 4
ENDMDL
MODEL 8
REMARK VINA RESULT:    -5.720      5.053      7.098
REMARK INTER + INTRA:          -6.958
REMARK INTER:                  -7.107
REMARK INTRA:                   0.149
REMARK UNBOUND:                 0.100
REMARK  Name = 
REMARK  4 active torsions:
REMARK  status: ('A' for Active; 'I' for Inactive)
REMARK    1  A    between atoms: C_2  and  C_4
REMARK    2  A    between atoms: N_8  and  C_9
REMARK    3  A    between atoms: C_9  and  C_10
REMARK    4  A    between atoms: C_15  and  C_16
REMARK                            x       y       z     vdW  Elec       q    Type
REMARK                         _______ _______ _______ _____ _____    ______ ____
ROOT
ATOM      1  C   UNL     1      47.911   4.578  16.699  0.00  0.00    +0.000 A 
ATOM      2  C   UNL     1      48.639   5.668  17.166  0.00  0.00    +0.000 A 
ATOM      3  C   UNL     1      48.838   6.740  16.310  0.00  0.00    +0.000 A 
ATOM      4  C   UNL     1      48.327   6.698  15.009  0.00  0.00    +0.000 A 
ATOM      5  N   UNL     1      48.342   7.923  14.314  0.00  0.00    +0.000 N 
ATOM      6  N   UNL     1      47.733   5.598  14.510  0.00  0.00    +0.000 NA
ATOM      7  C   UNL     1      47.538   4.558  15.365  0.00  0.00    +0.000 A 
ATOM      8  H   UNL     1      47.707   8.555  14.795  0.00  0.00    +0.000 HD
ENDROOT
BRANCH   1  10
ATOM      9  N   UNL     1      48.224   3.314  18.729  0.00  0.00    +0.000 N 
ATOM     10  C   UNL     1      47.465   3.515  17.604  0.00  0.00    +0.000 C 
ATOM     11  O   UNL     1      46.437   2.887  17.386  0.00  0.00    +0.000 OA
ATOM     12  H   UNL     1      47.840   2.701  19.440  0.00  0.00    +0.000 HD
ATOM     13  H   UNL     1      48.913   3.985  19.037  0.00  0.00    +0.000 HD
ENDBRANCH   1  10
BRANCH   5  14
ATOM     14  C   UNL     1      48.362   8.046  12.849  0.00  0.00    +0.000 C 
ATOM     15  C   UNL     1      48.995   6.972  11.980  0.00  0.00    +0.000 C 
ATOM     16  C   UNL     1      49.766   8.218  12.255  0.00  0.00    +0.000 C 
BRANCH  14  17
ATOM     17  C   UNL     1      47.297   8.955  12.194  0.00  0.00    +0.000 A 
ATOM     18  N   UNL     1      47.644  10.265  12.024  0.00  0.00    +0.000 NA
ATOM     19  C   UNL     1      46.681  11.185  11.817  0.00  0.00    +0.000 A 
ATOM     20  C   UNL     1      45.340  10.878  11.766  0.00  0.00    +0.000 A 
ATOM     21  C   UNL     1      44.985   9.540  11.831  0.00  0.00    +0.000 A 
ATOM     22  C   UNL     1      45.968   8.548  12.005  0.00  0.00    +0.000 A 
BRANCH  22  23
ATOM     23  C   UNL     1      45.521   7.116  12.058  0.00  0.00    +0.000 C 
ATOM     24  F   UNL     1      46.306   6.216  11.409  0.00  0.00    +0.000 F 
ATOM     25  F   UNL     1      45.393   6.656  13.334  0.00  0.00    +0.000 F 
ATOM     26  F   UNL     1      44.288   6.956  11.490  0.00  0.00    +0.000 F 
ENDBRANCH  22  23
ENDBRANCH  14  17
ENDBRANCH   5  14
TORSDOF 4
ENDMDL
MODEL 9
REMARK VINA RESULT:    -5.503      5.027      6.685
REMARK INTER + INTRA:          -6.690
REMARK INTER:                  -6.969
REMARK INTRA:                   0.279
REMARK UNBOUND:                 0.100
REMARK  Name = 
REMARK  4 active torsions:
REMARK  status: ('A' for Active; 'I' for Inactive)
REMARK    1  A    between atoms: C_2  and  C_4
REMARK    2  A    between atoms: N_8  and  C_9
REMARK    3  A    between atoms: C_9  and  C_10
REMARK    4  A    between atoms: C_15  and  C_16
REMARK                            x       y       z     vdW  Elec       q    Type
REMARK                         _______ _______ _______ _____ _____    ______ ____
ROOT
ATOM      1  C   UNL     1      46.337   5.728  12.567  0.00  0.00    +0.000 A 
ATOM      2  C   UNL     1      45.550   4.679  13.033  0.00  0.00    +0.000 A 
ATOM      3  C   UNL     1      45.897   4.083  14.236  0.00  0.00    +0.000 A 
ATOM      4  C   UNL     1      47.023   4.527  14.936  0.00  0.00    +0.000 A 
ATOM      5  N   UNL     1      47.138   4.055  16.258  0.00  0.00    +0.000 N 
ATOM      6  N   UNL     1      47.859   5.452  14.429  0.00  0.00    +0.000 NA
ATOM      7  C   UNL     1      47.501   6.034  13.253  0.00  0.00    +0.000 A 
ATOM      8  H   UNL     1      46.363   4.443  16.789  0.00  0.00    +0.000 HD
ENDROOT
BRANCH   1  10
ATOM      9  N   UNL     1      45.628   5.888  10.267  0.00  0.00    +0.000 N 
ATOM     10  C   UNL     1      45.912   6.554  11.432  0.00  0.00    +0.000 C 
ATOM     11  O   UNL     1      45.767   7.763  11.549  0.00  0.00    +0.000 OA
ATOM     12  H   UNL     1      45.179   6.422   9.531  0.00  0.00    +0.000 HD
ATOM     13  H   UNL     1      45.501   4.886  10.239  0.00  0.00    +0.000 HD
ENDBRANCH   1  10
BRANCH   5  14
ATOM     14  C   UNL     1      48.408   3.938  16.990  0.00  0.00    +0.000 C 
ATOM     15  C   UNL     1      49.207   2.646  16.975  0.00  0.00    +0.000 C 
ATOM     16  C   UNL     1      48.364   2.954  18.165  0.00  0.00    +0.000 C 
BRANCH  14  17
ATOM     17  C   UNL     1      49.173   5.244  17.304  0.00  0.00    +0.000 A 
ATOM     18  N   UNL     1      50.343   5.437  16.625  0.00  0.00    +0.000 NA
ATOM     19  C   UNL     1      51.240   6.330  17.088  0.00  0.00    +0.000 A 
ATOM     20  C   UNL     1      51.046   7.075  18.230  0.00  0.00    +0.000 A 
ATOM     21  C   UNL     1      49.820   6.964  18.868  0.00  0.00    +0.000 A 
ATOM     22  C   UNL     1      48.843   6.073  18.387  0.00  0.00    +0.000 A 
BRANCH  22  23
ATOM     23  C   UNL     1      47.532   6.006  19.115  0.00  0.00    +0.000 C 
ATOM     24  F   UNL     1      46.466   5.563  18.398  0.00  0.00    +0.000 F 
ATOM     25  F   UNL     1      47.592   5.222  20.227  0.00  0.00    +0.000 F 
ATOM     26  F   UNL     1      47.145   7.240  19.563  0.00  0.00    +0.000 F 
ENDBRANCH  22  23
ENDBRANCH  14  17
ENDBRANCH   5  14
TORSDOF 4
ENDMDL
