MODEL 1
REMARK VINA RESULT:    -8.137      0.000      0.000
REMARK INTER + INTRA:         -11.983
REMARK INTER:                 -10.992
REMARK INTRA:                  -0.991
REMARK UNBOUND:                -0.991
REMARK  Name = 
REMARK  7 active torsions:
REMARK  status: ('A' for Active; 'I' for Inactive)
REMARK    1  A    between atoms: C_1  and  C_2
REMARK    2  A    between atoms: C_2  and  N_3
REMARK    3  A    between atoms: C_2  and  C_16
REMARK    4  A    between atoms: C_4  and  C_6
REMARK    5  A    between atoms: C_19  and  C_20
REMARK    6  A    between atoms: C_20  and  N_21
REMARK    7  A    between atoms: C_22  and  C_24
REMARK                            x       y       z     vdW  Elec       q    Type
REMARK                         _______ _______ _______ _____ _____    ______ ____
ROOT
ATOM      1  C   UNL     1      47.525   8.791  13.756  0.00  0.00    +0.000 C 
ATOM      2  C   UNL     1      47.872   7.297  13.784  0.00  0.00    +0.000 C 
ENDROOT
BRANCH   2   3
ATOM      3  C   UNL     1      46.882   6.510  12.929  0.00  0.00    +0.000 A 
ATOM      4  C   UNL     1      46.415   7.016  11.708  0.00  0.00    +0.000 A 
ATOM      5  C   UNL     1      45.546   6.261  10.905  0.00  0.00    +0.000 A 
ATOM      6  C   UNL     1      45.120   4.987  11.307  0.00  0.00    +0.000 A 
ATOM      7  C   UNL     1      45.580   4.484  12.529  0.00  0.00    +0.000 A 
ATOM      8  C   UNL     1      46.442   5.238  13.330  0.00  0.00    +0.000 A 
BRANCH   6   9
ATOM      9  C   UNL     1      44.214   4.151  10.435  0.00  0.00    +0.000 C 
BRANCH   9  10
ATOM     10  N   UNL     1      44.965   3.177   9.678  0.00  0.00    +0.000 N 
ATOM     11  C   UNL     1      45.597   3.510   8.499  0.00  0.00    +0.000 C 
ATOM     12  O   UNL     1      45.556   4.639   8.024  0.00  0.00    +0.000 OA
ATOM     13  H   UNL     1      45.052   2.249  10.057  0.00  0.00    +0.000 HD
BRANCH  11  14
ATOM     14  C   UNL     1      46.317   2.434   7.863  0.00  0.00    +0.000 A 
ATOM     15  C   UNL     1      47.277   2.400   6.873  0.00  0.00    +0.000 A 
ATOM     16  N   UNL     1      47.674   1.117   6.601  0.00  0.00    +0.000 NA
ATOM     17  C   UNL     1      46.969   0.359   7.409  0.00  0.00    +0.000 A 
ATOM     18  N   UNL     1      46.138   1.106   8.191  0.00  0.00    +0.000 N 
ATOM     19  H   UNL     1      45.497   0.759   8.895  0.00  0.00    +0.000 HD
ENDBRANCH  11  14
ENDBRANCH   9  10
ENDBRANCH   6   9
ENDBRANCH   2   3
BRANCH   2  20
ATOM     20  N   UNL     1      47.871   6.744  15.133  0.00  0.00    +0.000 N 
ATOM     21  C   UNL     1      49.009   6.411  15.824  0.00  0.00    +0.000 C 
ATOM     22  O   UNL     1      50.137   6.589  15.376  0.00  0.00    +0.000 OA
ATOM     23  H   UNL     1      47.007   6.291  15.415  0.00  0.00    +0.000 HD
BRANCH  21  24
ATOM     24  C   UNL     1      48.811   5.884  17.181  0.00  0.00    +0.000 A 
ATOM     25  C   UNL     1      49.052   4.541  17.441  0.00  0.00    +0.000 A 
ATOM     26  S   UNL     1      48.771   4.097  19.064  0.00  0.00    +0.000 S 
ATOM     27  C   UNL     1      48.277   5.674  19.466  0.00  0.00    +0.000 A 
ATOM     28  N   UNL     1      47.849   5.975  20.723  0.00  0.00    +0.000 NA
ATOM     29  C   UNL     1      47.472   7.201  20.878  0.00  0.00    +0.000 A 
ATOM     30  N   UNL     1      47.502   8.158  19.897  0.00  0.00    +0.000 N 
ATOM     31  C   UNL     1      47.974   7.911  18.630  0.00  0.00    +0.000 A 
ATOM     32  O   UNL     1      48.069   8.808  17.797  0.00  0.00    +0.000 OA
ATOM     33  C   UNL     1      48.366   6.537  18.389  0.00  0.00    +0.000 A 
ATOM     34  H   UNL     1      47.217   9.106  20.091  0.00  0.00    +0.000 HD
ENDBRANCH  21  24
ENDBRANCH   2  20
TORSDOF 6
ENDMDL
MODEL 2
REMARK VINA RESULT:    -7.799      1.353      2.031
REMARK INTER + INTRA:         -11.526
REMARK INTER:                 -10.576
REMARK INTRA:                  -0.949
REMARK UNBOUND:                -0.991
REMARK  Name = 
REMARK  7 active torsions:
REMARK  status: ('A' for Active; 'I' for Inactive)
REMARK    1  A    between atoms: C_1  and  C_2
REMARK    2  A    between atoms: C_2  and  N_3
REMARK    3  A    between atoms: C_2  and  C_16
REMARK    4  A    between atoms: C_4  and  C_6
REMARK    5  A    between atoms: C_19  and  C_20
REMARK    6  A    between atoms: C_20  and  N_21
REMARK    7  A    between atoms: C_22  and  C_24
REMARK                            x       y       z     vdW  Elec       q    Type
REMARK                         _______ _______ _______ _____ _____    ______ ____
ROOT
ATOM      1  C   UNL     1      47.786   9.050  13.167  0.00  0.00    +0.000 C 
ATOM      2  C   UNL     1      48.056   7.608  13.616  0.00  0.00    +0.000 C 
ENDROOT
BRANCH   2   3
ATOM      3  C   UNL     1      47.072   6.654  12.943  0.00  0.00    +0.000 A 
ATOM      4  C   UNL     1      46.360   7.035  11.797  0.00  0.00    +0.000 A 
ATOM      5  C   UNL     1      45.498   6.132  11.156  0.00  0.00    +0.000 A 
ATOM      6  C   UNL     1      45.324   4.831  11.650  0.00  0.00    +0.000 A 
ATOM      7  C   UNL     1      46.029   4.452  12.797  0.00  0.00    +0.000 A 
ATOM      8  C   UNL     1      46.884   5.353  13.438  0.00  0.00    +0.000 A 
BRANCH   6   9
ATOM      9  C   UNL     1      44.427   3.839  10.949  0.00  0.00    +0.000 C 
BRANCH   9  10
ATOM     10  N   UNL     1      45.168   3.033  10.007  0.00  0.00    +0.000 N 
ATOM     11  C   UNL     1      45.314   3.412   8.690  0.00  0.00    +0.000 C 
ATOM     12  O   UNL     1      44.824   4.443   8.241  0.00  0.00    +0.000 OA
ATOM     13  H   UNL     1      45.616   2.199  10.349  0.00  0.00    +0.000 HD
BRANCH  11  14
ATOM     14  C   UNL     1      46.090   2.512   7.874  0.00  0.00    +0.000 A 
ATOM     15  C   UNL     1      46.373   1.164   7.966  0.00  0.00    +0.000 A 
ATOM     16  N   UNL     1      47.166   0.744   6.931  0.00  0.00    +0.000 NA
ATOM     17  C   UNL     1      47.378   1.817   6.202  0.00  0.00    +0.000 A 
ATOM     18  N   UNL     1      46.749   2.906   6.728  0.00  0.00    +0.000 N 
ATOM     19  H   UNL     1      46.755   3.847   6.353  0.00  0.00    +0.000 HD
ENDBRANCH  11  14
ENDBRANCH   9  10
ENDBRANCH   6   9
ENDBRANCH   2   3
BRANCH   2  20
ATOM     20  N   UNL     1      47.959   7.441  15.060  0.00  0.00    +0.000 N 
ATOM     21  C   UNL     1      48.985   6.980  15.848  0.00  0.00    +0.000 C 
ATOM     22  O   UNL     1      50.094   6.704  15.404  0.00  0.00    +0.000 OA
ATOM     23  H   UNL     1      47.016   7.345  15.424  0.00  0.00    +0.000 HD
BRANCH  21  24
ATOM     24  C   UNL     1      48.706   6.896  17.289  0.00  0.00    +0.000 A 
ATOM     25  C   UNL     1      48.369   8.044  17.993  0.00  0.00    +0.000 A 
ATOM     26  S   UNL     1      48.080   7.769  19.653  0.00  0.00    +0.000 S 
ATOM     27  C   UNL     1      48.437   6.113  19.494  0.00  0.00    +0.000 A 
ATOM     28  N   UNL     1      48.422   5.287  20.576  0.00  0.00    +0.000 NA
ATOM     29  C   UNL     1      48.746   4.063  20.316  0.00  0.00    +0.000 A 
ATOM     30  N   UNL     1      49.064   3.587  19.071  0.00  0.00    +0.000 N 
ATOM     31  C   UNL     1      49.042   4.373  17.944  0.00  0.00    +0.000 A 
ATOM     32  O   UNL     1      49.248   3.901  16.830  0.00  0.00    +0.000 OA
ATOM     33  C   UNL     1      48.730   5.767  18.187  0.00  0.00    +0.000 A 
ATOM     34  H   UNL     1      49.283   2.612  18.932  0.00  0.00    +0.000 HD
ENDBRANCH  21  24
ENDBRANCH   2  20
TORSDOF 6
ENDMDL
MODEL 3
REMARK VINA RESULT:    -7.490      2.878      4.494
REMARK INTER + INTRA:         -11.109
REMARK INTER:                  -9.912
REMARK INTRA:                  -1.196
REMARK UNBOUND:                -0.991
REMARK  Name = 
REMARK  7 active torsions:
REMARK  status: ('A' for Active; 'I' for Inactive)
REMARK    1  A    between atoms: C_1  and  C_2
REMARK    2  A    between atoms: C_2  and  N_3
REMARK    3  A    between atoms: C_2  and  C_16
REMARK    4  A    between atoms: C_4  and  C_6
REMARK    5  A    between atoms: C_19  and  C_20
REMARK    6  A    between atoms: C_20  and  N_21
REMARK    7  A    between atoms: C_22  and  C_24
REMARK                            x       y       z     vdW  Elec       q    Type
REMARK                         _______ _______ _______ _____ _____    ______ ____
ROOT
ATOM      1  C   UNL     1      47.467   4.004  15.643  0.00  0.00    +0.000 C 
ATOM      2  C   UNL     1      47.152   5.314  14.910  0.00  0.00    +0.000 C 
ENDROOT
BRANCH   2   3
ATOM      3  C   UNL     1      46.302   5.034  13.674  0.00  0.00    +0.000 A 
ATOM      4  C   UNL     1      45.758   6.079  12.914  0.00  0.00    +0.000 A 
ATOM      5  C   UNL     1      45.022   5.810  11.750  0.00  0.00    +0.000 A 
ATOM      6  C   UNL     1      44.808   4.492  11.322  0.00  0.00    +0.000 A 
ATOM      7  C   UNL     1      45.345   3.448  12.083  0.00  0.00    +0.000 A 
ATOM      8  C   UNL     1      46.075   3.715  13.245  0.00  0.00    +0.000 A 
BRANCH   6   9
ATOM      9  C   UNL     1      44.049   4.193  10.052  0.00  0.00    +0.000 C 
BRANCH   9  10
ATOM     10  N   UNL     1      44.842   3.403   9.139  0.00  0.00    +0.000 N 
ATOM     11  C   UNL     1      45.782   3.981   8.313  0.00  0.00    +0.000 C 
ATOM     12  O   UNL     1      45.996   5.188   8.300  0.00  0.00    +0.000 OA
ATOM     13  H   UNL     1      44.720   2.404   9.149  0.00  0.00    +0.000 HD
BRANCH  11  14
ATOM     14  C   UNL     1      46.503   3.063   7.465  0.00  0.00    +0.000 A 
ATOM     15  C   UNL     1      46.788   1.717   7.564  0.00  0.00    +0.000 A 
ATOM     16  N   UNL     1      47.512   1.275   6.488  0.00  0.00    +0.000 NA
ATOM     17  C   UNL     1      47.679   2.334   5.729  0.00  0.00    +0.000 A 
ATOM     18  N   UNL     1      47.088   3.435   6.273  0.00  0.00    +0.000 N 
ATOM     19  H   UNL     1      47.072   4.369   5.881  0.00  0.00    +0.000 HD
ENDBRANCH  11  14
ENDBRANCH   9  10
ENDBRANCH   6   9
ENDBRANCH   2   3
BRANCH   2  20
ATOM     20  N   UNL     1      48.353   6.033  14.501  0.00  0.00    +0.000 N 
ATOM     21  C   UNL     1      49.012   6.937  15.297  0.00  0.00    +0.000 C 
ATOM     22  O   UNL     1      48.664   7.191  16.445  0.00  0.00    +0.000 OA
ATOM     23  H   UNL     1      48.493   6.108  13.498  0.00  0.00    +0.000 HD
BRANCH  21  24
ATOM     24  C   UNL     1      50.217   7.549  14.720  0.00  0.00    +0.000 A 
ATOM     25  C   UNL     1      51.414   7.509  15.422  0.00  0.00    +0.000 A 
ATOM     26  S   UNL     1      52.710   8.266  14.610  0.00  0.00    +0.000 S 
ATOM     27  C   UNL     1      51.705   8.711  13.310  0.00  0.00    +0.000 A 
ATOM     28  N   UNL     1      52.189   9.441  12.269  0.00  0.00    +0.000 NA
ATOM     29  C   UNL     1      51.309   9.736  11.371  0.00  0.00    +0.000 A 
ATOM     30  N   UNL     1      49.994   9.351  11.409  0.00  0.00    +0.000 N 
ATOM     31  C   UNL     1      49.475   8.571  12.415  0.00  0.00    +0.000 A 
ATOM     32  O   UNL     1      48.315   8.171  12.380  0.00  0.00    +0.000 OA
ATOM     33  C   UNL     1      50.410   8.250  13.474  0.00  0.00    +0.000 A 
ATOM     34  H   UNL     1      49.363   9.594  10.660  0.00  0.00    +0.000 HD
ENDBRANCH  21  24
ENDBRANCH   2  20
TORSDOF 6
ENDMDL
MODEL 4
REMARK VINA RESULT:    -7.344      4.037      8.683
REMARK INTER + INTRA:         -10.911
REMARK INTER:                  -9.938
REMARK INTRA:                  -0.973
REMARK UNBOUND:                -0.991
REMARK  Name = 
REMARK  7 active torsions:
REMARK  status: ('A' for Active; 'I' for Inactive)
REMARK    1  A    between atoms: C_1  and  C_2
REMARK    2  A    between atoms: C_2  and  N_3
REMARK    3  A    between atoms: C_2  and  C_16
REMARK    4  A    between atoms: C_4  and  C_6
REMARK    5  A    between atoms: C_19  and  C_20
REMARK    6  A    between atoms: C_20  and  N_21
REMARK    7  A    between atoms: C_22  and  C_24
REMARK                            x       y       z     vdW  Elec       q    Type
REMARK                         _______ _______ _______ _____ _____    ______ ____
ROOT
ATOM      1  C   UNL     1      49.333   7.501  13.059  0.00  0.00    +0.000 C 
ATOM      2  C   UNL     1      48.019   6.965  13.643  0.00  0.00    +0.000 C 
ENDROOT
BRANCH   2   3
ATOM      3  C   UNL     1      48.292   6.199  14.935  0.00  0.00    +0.000 A 
ATOM      4  C   UNL     1      47.527   5.079  15.290  0.00  0.00    +0.000 A 
ATOM      5  C   UNL     1      47.820   4.351  16.453  0.00  0.00    +0.000 A 
ATOM      6  C   UNL     1      48.880   4.729  17.290  0.00  0.00    +0.000 A 
ATOM      7  C   UNL     1      49.641   5.849  16.939  0.00  0.00    +0.000 A 
ATOM      8  C   UNL     1      49.346   6.577  15.783  0.00  0.00    +0.000 A 
BRANCH   6   9
ATOM      9  C   UNL     1      49.228   3.932  18.524  0.00  0.00    +0.000 C 
BRANCH   9  10
ATOM     10  N   UNL     1      50.530   3.319  18.406  0.00  0.00    +0.000 N 
ATOM     11  C   UNL     1      50.751   2.247  17.568  0.00  0.00    +0.000 C 
ATOM     12  O   UNL     1      49.863   1.750  16.884  0.00  0.00    +0.000 OA
ATOM     13  H   UNL     1      51.292   3.724  18.924  0.00  0.00    +0.000 HD
BRANCH  11  14
ATOM     14  C   UNL     1      52.105   1.751  17.548  0.00  0.00    +0.000 A 
ATOM     15  C   UNL     1      53.328   2.345  17.781  0.00  0.00    +0.000 A 
ATOM     16  N   UNL     1      54.356   1.449  17.646  0.00  0.00    +0.000 NA
ATOM     17  C   UNL     1      53.782   0.311  17.331  0.00  0.00    +0.000 A 
ATOM     18  N   UNL     1      52.427   0.441  17.262  0.00  0.00    +0.000 N 
ATOM     19  H   UNL     1      51.760  -0.289  17.041  0.00  0.00    +0.000 HD
ENDBRANCH  11  14
ENDBRANCH   9  10
ENDBRANCH   6   9
ENDBRANCH   2   3
BRANCH   2  20
ATOM     20  N   UNL     1      47.308   6.091  12.719  0.00  0.00    +0.000 N 
ATOM     21  C   UNL     1      46.337   6.523  11.849  0.00  0.00    +0.000 C 
ATOM     22  O   UNL     1      46.010   7.701  11.749  0.00  0.00    +0.000 OA
ATOM     23  H   UNL     1      47.300   5.107  12.971  0.00  0.00    +0.000 HD
BRANCH  21  24
ATOM     24  C   UNL     1      45.744   5.498  10.980  0.00  0.00    +0.000 A 
ATOM     25  C   UNL     1      45.871   5.605   9.602  0.00  0.00    +0.000 A 
ATOM     26  S   UNL     1      45.123   4.333   8.744  0.00  0.00    +0.000 S 
ATOM     27  C   UNL     1      44.568   3.617  10.184  0.00  0.00    +0.000 A 
ATOM     28  N   UNL     1      43.803   2.493  10.157  0.00  0.00    +0.000 NA
ATOM     29  C   UNL     1      43.424   2.078  11.320  0.00  0.00    +0.000 A 
ATOM     30  N   UNL     1      43.756   2.674  12.509  0.00  0.00    +0.000 N 
ATOM     31  C   UNL     1      44.568   3.781  12.586  0.00  0.00    +0.000 A 
ATOM     32  O   UNL     1      44.919   4.243  13.668  0.00  0.00    +0.000 OA
ATOM     33  C   UNL     1      44.984   4.315  11.305  0.00  0.00    +0.000 A 
ATOM     34  H   UNL     1      43.448   2.284  13.387  0.00  0.00    +0.000 HD
ENDBRANCH  21  24
ENDBRANCH   2  20
TORSDOF 6
ENDMDL
MODEL 5
REMARK VINA RESULT:    -7.130      3.076      4.091
REMARK INTER + INTRA:         -10.623
REMARK INTER:                  -9.809
REMARK INTRA:                  -0.813
REMARK UNBOUND:                -0.991
REMARK  Name = 
REMARK  7 active torsions:
REMARK  status: ('A' for Active; 'I' for Inactive)
REMARK    1  A    between atoms: C_1  and  C_2
REMARK    2  A    between atoms: C_2  and  N_3
REMARK    3  A    between atoms: C_2  and  C_16
REMARK    4  A    between atoms: C_4  and  C_6
REMARK    5  A    between atoms: C_19  and  C_20
REMARK    6  A    between atoms: C_20  and  N_21
REMARK    7  A    between atoms: C_22  and  C_24
REMARK                            x       y       z     vdW  Elec       q    Type
REMARK                         _______ _______ _______ _____ _____    ______ ____
ROOT
ATOM      1  C   UNL     1      47.249   4.161  15.313  0.00  0.00    +0.000 C 
ATOM      2  C   UNL     1      46.990   5.484  14.581  0.00  0.00    +0.000 C 
ENDROOT
BRANCH   2   3
ATOM      3  C   UNL     1      46.261   5.224  13.266  0.00  0.00    +0.000 A 
ATOM      4  C   UNL     1      46.474   6.038  12.144  0.00  0.00    +0.000 A 
ATOM      5  C   UNL     1      45.839   5.758  10.925  0.00  0.00    +0.000 A 
ATOM      6  C   UNL     1      44.973   4.662  10.801  0.00  0.00    +0.000 A 
ATOM      7  C   UNL     1      44.754   3.853  11.921  0.00  0.00    +0.000 A 
ATOM      8  C   UNL     1      45.384   4.134  13.136  0.00  0.00    +0.000 A 
BRANCH   6   9
ATOM      9  C   UNL     1      44.312   4.330   9.484  0.00  0.00    +0.000 C 
BRANCH   9  10
ATOM     10  N   UNL     1      45.283   3.926   8.495  0.00  0.00    +0.000 N 
ATOM     11  C   UNL     1      45.601   2.600   8.294  0.00  0.00    +0.000 C 
ATOM     12  O   UNL     1      45.089   1.693   8.941  0.00  0.00    +0.000 OA
ATOM     13  H   UNL     1      45.696   4.640   7.919  0.00  0.00    +0.000 HD
BRANCH  11  14
ATOM     14  C   UNL     1      46.579   2.352   7.263  0.00  0.00    +0.000 A 
ATOM     15  C   UNL     1      47.608   1.441   7.142  0.00  0.00    +0.000 A 
ATOM     16  N   UNL     1      48.275   1.590   5.954  0.00  0.00    +0.000 NA
ATOM     17  C   UNL     1      47.670   2.582   5.342  0.00  0.00    +0.000 A 
ATOM     18  N   UNL     1      46.641   3.073   6.089  0.00  0.00    +0.000 N 
ATOM     19  H   UNL     1      46.021   3.834   5.839  0.00  0.00    +0.000 HD
ENDBRANCH  11  14
ENDBRANCH   9  10
ENDBRANCH   6   9
ENDBRANCH   2   3
BRANCH   2  20
ATOM     20  N   UNL     1      48.216   6.221  14.302  0.00  0.00    +0.000 N 
ATOM     21  C   UNL     1      48.923   6.919  15.250  0.00  0.00    +0.000 C 
ATOM     22  O   UNL     1      48.600   6.950  16.433  0.00  0.00    +0.000 OA
ATOM     23  H   UNL     1      48.348   6.492  13.332  0.00  0.00    +0.000 HD
BRANCH  21  24
ATOM     24  C   UNL     1      50.147   7.586  14.784  0.00  0.00    +0.000 A 
ATOM     25  C   UNL     1      50.073   8.526  13.765  0.00  0.00    +0.000 A 
ATOM     26  S   UNL     1      51.584   9.200  13.346  0.00  0.00    +0.000 S 
ATOM     27  C   UNL     1      52.393   8.229  14.484  0.00  0.00    +0.000 A 
ATOM     28  N   UNL     1      53.747   8.278  14.610  0.00  0.00    +0.000 NA
ATOM     29  C   UNL     1      54.231   7.463  15.487  0.00  0.00    +0.000 A 
ATOM     30  N   UNL     1      53.483   6.617  16.264  0.00  0.00    +0.000 N 
ATOM     31  C   UNL     1      52.110   6.570  16.206  0.00  0.00    +0.000 A 
ATOM     32  O   UNL     1      51.461   5.864  16.972  0.00  0.00    +0.000 OA
ATOM     33  C   UNL     1      51.519   7.433  15.203  0.00  0.00    +0.000 A 
ATOM     34  H   UNL     1      53.921   6.022  16.951  0.00  0.00    +0.000 HD
ENDBRANCH  21  24
ENDBRANCH   2  20
TORSDOF 6
ENDMDL
MODEL 6
REMARK VINA RESULT:    -6.872      4.056      5.729
REMARK INTER + INTRA:         -10.274
REMARK INTER:                  -9.200
REMARK INTRA:                  -1.074
REMARK UNBOUND:                -0.991
REMARK  Name = 
REMARK  7 active torsions:
REMARK  status: ('A' for Active; 'I' for Inactive)
REMARK    1  A    between atoms: C_1  and  C_2
REMARK    2  A    between atoms: C_2  and  N_3
REMARK    3  A    between atoms: C_2  and  C_16
REMARK    4  A    between atoms: C_4  and  C_6
REMARK    5  A    between atoms: C_19  and  C_20
REMARK    6  A    between atoms: C_20  and  N_21
REMARK    7  A    between atoms: C_22  and  C_24
REMARK                            x       y       z     vdW  Elec       q    Type
REMARK                         _______ _______ _______ _____ _____    ______ ____
ROOT
ATOM      1  C   UNL     1      47.829   2.797  18.030  0.00  0.00    +0.000 C 
ATOM      2  C   UNL     1      48.694   4.032  17.746  0.00  0.00    +0.000 C 
ENDROOT
BRANCH   2   3
ATOM      3  C   UNL     1      48.215   4.729  16.476  0.00  0.00    +0.000 A 
ATOM      4  C   UNL     1      48.767   5.951  16.066  0.00  0.00    +0.000 A 
ATOM      5  C   UNL     1      48.356   6.556  14.869  0.00  0.00    +0.000 A 
ATOM      6  C   UNL     1      47.381   5.958  14.057  0.00  0.00    +0.000 A 
ATOM      7  C   UNL     1      46.826   4.742  14.469  0.00  0.00    +0.000 A 
ATOM      8  C   UNL     1      47.232   4.140  15.663  0.00  0.00    +0.000 A 
BRANCH   6   9
ATOM      9  C   UNL     1      46.958   6.582  12.749  0.00  0.00    +0.000 C 
BRANCH   9  10
ATOM     10  N   UNL     1      46.497   5.583  11.814  0.00  0.00    +0.000 N 
ATOM     11  C   UNL     1      45.331   5.747  11.098  0.00  0.00    +0.000 C 
ATOM     12  O   UNL     1      44.619   6.739  11.214  0.00  0.00    +0.000 OA
ATOM     13  H   UNL     1      47.075   4.772  11.665  0.00  0.00    +0.000 HD
BRANCH  11  14
ATOM     14  C   UNL     1      45.008   4.670  10.195  0.00  0.00    +0.000 A 
ATOM     15  C   UNL     1      44.729   3.333  10.387  0.00  0.00    +0.000 A 
ATOM     16  N   UNL     1      44.470   2.697   9.200  0.00  0.00    +0.000 NA
ATOM     17  C   UNL     1      44.589   3.626   8.279  0.00  0.00    +0.000 A 
ATOM     18  N   UNL     1      44.909   4.832   8.828  0.00  0.00    +0.000 N 
ATOM     19  H   UNL     1      45.052   5.704   8.332  0.00  0.00    +0.000 HD
ENDBRANCH  11  14
ENDBRANCH   9  10
ENDBRANCH   6   9
ENDBRANCH   2   3
BRANCH   2  20
ATOM     20  N   UNL     1      50.107   3.706  17.600  0.00  0.00    +0.000 N 
ATOM     21  C   UNL     1      51.080   4.106  18.482  0.00  0.00    +0.000 C 
ATOM     22  O   UNL     1      50.835   4.745  19.500  0.00  0.00    +0.000 OA
ATOM     23  H   UNL     1      50.403   3.474  16.657  0.00  0.00    +0.000 HD
BRANCH  21  24
ATOM     24  C   UNL     1      52.449   3.666  18.178  0.00  0.00    +0.000 A 
ATOM     25  C   UNL     1      53.499   4.570  18.269  0.00  0.00    +0.000 A 
ATOM     26  S   UNL     1      55.018   3.896  17.881  0.00  0.00    +0.000 S 
ATOM     27  C   UNL     1      54.319   2.383  17.540  0.00  0.00    +0.000 A 
ATOM     28  N   UNL     1      55.079   1.344  17.098  0.00  0.00    +0.000 NA
ATOM     29  C   UNL     1      54.413   0.266  16.846  0.00  0.00    +0.000 A 
ATOM     30  N   UNL     1      53.059   0.127  17.012  0.00  0.00    +0.000 N 
ATOM     31  C   UNL     1      52.261   1.133  17.503  0.00  0.00    +0.000 A 
ATOM     32  O   UNL     1      51.067   0.953  17.722  0.00  0.00    +0.000 OA
ATOM     33  C   UNL     1      52.953   2.381  17.759  0.00  0.00    +0.000 A 
ATOM     34  H   UNL     1      52.603  -0.752  16.821  0.00  0.00    +0.000 HD
ENDBRANCH  21  24
ENDBRANCH   2  20
TORSDOF 6
ENDMDL
MODEL 7
REMARK VINA RESULT:    -6.871      4.648      7.792
REMARK INTER + INTRA:         -10.272
REMARK INTER:                  -9.326
REMARK INTRA:                  -0.947
REMARK UNBOUND:                -0.991
REMARK  Name = 
REMARK  7 active torsions:
REMARK  status: ('A' for Active; 'I' for Inactive)
REMARK    1  A    between atoms: C_1  and  C_2
REMARK    2  A    between atoms: C_2  and  N_3
REMARK    3  A    between atoms: C_2  and  C_16
REMARK    4  A    between atoms: C_4  and  C_6
REMARK    5  A    between atoms: C_19  and  C_20
REMARK    6  A    between atoms: C_20  and  N_21
REMARK    7  A    between atoms: C_22  and  C_24
REMARK                            x       y       z     vdW  Elec       q    Type
REMARK                         _______ _______ _______ _____ _____    ______ ____
ROOT
ATOM      1  C   UNL     1      45.298   9.504  12.335  0.00  0.00    +0.000 C 
ATOM      2  C   UNL     1      46.092   8.241  12.693  0.00  0.00    +0.000 C 
ENDROOT
BRANCH   2   3
ATOM      3  C   UNL     1      47.534   8.371  12.211  0.00  0.00    +0.000 A 
ATOM      4  C   UNL     1      48.070   9.615  11.852  0.00  0.00    +0.000 A 
ATOM      5  C   UNL     1      49.413   9.730  11.461  0.00  0.00    +0.000 A 
ATOM      6  C   UNL     1      50.248   8.604  11.414  0.00  0.00    +0.000 A 
ATOM      7  C   UNL     1      49.711   7.361  11.765  0.00  0.00    +0.000 A 
ATOM      8  C   UNL     1      48.373   7.245  12.151  0.00  0.00    +0.000 A 
BRANCH   6   9
ATOM      9  C   UNL     1      51.703   8.722  11.029  0.00  0.00    +0.000 C 
BRANCH   9  10
ATOM     10  N   UNL     1      52.006   7.925   9.864  0.00  0.00    +0.000 N 
ATOM     11  C   UNL     1      53.060   7.038   9.850  0.00  0.00    +0.000 C 
ATOM     12  O   UNL     1      53.801   6.877  10.814  0.00  0.00    +0.000 OA
ATOM     13  H   UNL     1      51.396   8.002   9.067  0.00  0.00    +0.000 HD
BRANCH  11  14
ATOM     14  C   UNL     1      53.230   6.304   8.620  0.00  0.00    +0.000 A 
ATOM     15  C   UNL     1      52.937   6.594   7.303  0.00  0.00    +0.000 A 
ATOM     16  N   UNL     1      53.293   5.566   6.470  0.00  0.00    +0.000 NA
ATOM     17  C   UNL     1      53.799   4.645   7.258  0.00  0.00    +0.000 A 
ATOM     18  N   UNL     1      53.785   5.043   8.561  0.00  0.00    +0.000 N 
ATOM     19  H   UNL     1      54.122   4.515   9.358  0.00  0.00    +0.000 HD
ENDBRANCH  11  14
ENDBRANCH   9  10
ENDBRANCH   6   9
ENDBRANCH   2   3
BRANCH   2  20
ATOM     20  N   UNL     1      45.512   7.031  12.122  0.00  0.00    +0.000 N 
ATOM     21  C   UNL     1      45.518   5.809  12.748  0.00  0.00    +0.000 C 
ATOM     22  O   UNL     1      45.983   5.639  13.870  0.00  0.00    +0.000 OA
ATOM     23  H   UNL     1      45.411   7.034  11.111  0.00  0.00    +0.000 HD
BRANCH  21  24
ATOM     24  C   UNL     1      44.869   4.708  12.024  0.00  0.00    +0.000 A 
ATOM     25  C   UNL     1      44.042   3.827  12.708  0.00  0.00    +0.000 A 
ATOM     26  S   UNL     1      43.372   2.609  11.717  0.00  0.00    +0.000 S 
ATOM     27  C   UNL     1      44.198   3.193  10.349  0.00  0.00    +0.000 A 
ATOM     28  N   UNL     1      44.097   2.561   9.149  0.00  0.00    +0.000 NA
ATOM     29  C   UNL     1      44.803   3.092   8.206  0.00  0.00    +0.000 A 
ATOM     30  N   UNL     1      45.586   4.208   8.350  0.00  0.00    +0.000 N 
ATOM     31  C   UNL     1      45.677   4.907   9.531  0.00  0.00    +0.000 A 
ATOM     32  O   UNL     1      46.317   5.951   9.608  0.00  0.00    +0.000 OA
ATOM     33  C   UNL     1      44.939   4.326  10.634  0.00  0.00    +0.000 A 
ATOM     34  H   UNL     1      46.094   4.589   7.566  0.00  0.00    +0.000 HD
ENDBRANCH  21  24
ENDBRANCH   2  20
TORSDOF 6
ENDMDL
MODEL 8
REMARK VINA RESULT:    -6.628      3.712      8.430
REMARK INTER + INTRA:          -9.944
REMARK INTER:                  -8.866
REMARK INTRA:                  -1.078
REMARK UNBOUND:                -0.991
REMARK  Name = 
REMARK  7 active torsions:
REMARK  status: ('A' for Active; 'I' for Inactive)
REMARK    1  A    between atoms: C_1  and  C_2
REMARK    2  A    between atoms: C_2  and  N_3
REMARK    3  A    between atoms: C_2  and  C_16
REMARK    4  A    between atoms: C_4  and  C_6
REMARK    5  A    between atoms: C_19  and  C_20
REMARK    6  A    between atoms: C_20  and  N_21
REMARK    7  A    between atoms: C_22  and  C_24
REMARK                            x       y       z     vdW  Elec       q    Type
REMARK                         _______ _______ _______ _____ _____    ______ ____
ROOT
ATOM      1  C   UNL     1      49.207   9.123  11.362  0.00  0.00    +0.000 C 
ATOM      2  C   UNL     1      48.146   8.509  12.284  0.00  0.00    +0.000 C 
ENDROOT
BRANCH   2   3
ATOM      3  C   UNL     1      48.773   8.112  13.618  0.00  0.00    +0.000 A 
ATOM      4  C   UNL     1      48.022   7.467  14.610  0.00  0.00    +0.000 A 
ATOM      5  C   UNL     1      48.623   7.059  15.811  0.00  0.00    +0.000 A 
ATOM      6  C   UNL     1      49.985   7.292  16.050  0.00  0.00    +0.000 A 
ATOM      7  C   UNL     1      50.734   7.942  15.062  0.00  0.00    +0.000 A 
ATOM      8  C   UNL     1      50.135   8.352  13.868  0.00  0.00    +0.000 A 
BRANCH   6   9
ATOM      9  C   UNL     1      50.650   6.826  17.322  0.00  0.00    +0.000 C 
BRANCH   9  10
ATOM     10  N   UNL     1      51.045   5.440  17.232  0.00  0.00    +0.000 N 
ATOM     11  C   UNL     1      50.290   4.436  17.798  0.00  0.00    +0.000 C 
ATOM     12  O   UNL     1      49.250   4.656  18.409  0.00  0.00    +0.000 OA
ATOM     13  H   UNL     1      51.873   5.218  16.705  0.00  0.00    +0.000 HD
BRANCH  11  14
ATOM     14  C   UNL     1      50.806   3.101  17.615  0.00  0.00    +0.000 A 
ATOM     15  C   UNL     1      50.293   1.967  17.019  0.00  0.00    +0.000 A 
ATOM     16  N   UNL     1      51.174   0.920  17.089  0.00  0.00    +0.000 NA
ATOM     17  C   UNL     1      52.222   1.393  17.723  0.00  0.00    +0.000 A 
ATOM     18  N   UNL     1      52.050   2.703  18.058  0.00  0.00    +0.000 N 
ATOM     19  H   UNL     1      52.712   3.294  18.547  0.00  0.00    +0.000 HD
ENDBRANCH  11  14
ENDBRANCH   9  10
ENDBRANCH   6   9
ENDBRANCH   2   3
BRANCH   2  20
ATOM     20  N   UNL     1      47.502   7.339  11.701  0.00  0.00    +0.000 N 
ATOM     21  C   UNL     1      46.148   7.230  11.501  0.00  0.00    +0.000 C 
ATOM     22  O   UNL     1      45.361   8.132  11.765  0.00  0.00    +0.000 OA
ATOM     23  H   UNL     1      48.033   6.476  11.762  0.00  0.00    +0.000 HD
BRANCH  21  24
ATOM     24  C   UNL     1      45.684   5.980  10.882  0.00  0.00    +0.000 A 
ATOM     25  C   UNL     1      45.968   5.726   9.547  0.00  0.00    +0.000 A 
ATOM     26  S   UNL     1      45.356   4.234   8.989  0.00  0.00    +0.000 S 
ATOM     27  C   UNL     1      44.655   3.895  10.502  0.00  0.00    +0.000 A 
ATOM     28  N   UNL     1      43.925   2.764  10.698  0.00  0.00    +0.000 NA
ATOM     29  C   UNL     1      43.423   2.652  11.883  0.00  0.00    +0.000 A 
ATOM     30  N   UNL     1      43.601   3.558  12.896  0.00  0.00    +0.000 N 
ATOM     31  C   UNL     1      44.372   4.688  12.758  0.00  0.00    +0.000 A 
ATOM     32  O   UNL     1      44.583   5.438  13.706  0.00  0.00    +0.000 OA
ATOM     33  C   UNL     1      44.921   4.886  11.431  0.00  0.00    +0.000 A 
ATOM     34  H   UNL     1      43.202   3.398  13.809  0.00  0.00    +0.000 HD
ENDBRANCH  21  24
ENDBRANCH   2  20
TORSDOF 6
ENDMDL
MODEL 9
REMARK VINA RESULT:    -6.503      4.706      7.376
REMARK INTER + INTRA:          -9.775
REMARK INTER:                  -9.547
REMARK INTRA:                  -0.229
REMARK UNBOUND:                -0.991
REMARK  Name = 
REMARK  7 active torsions:
REMARK  status: ('A' for Active; 'I' for Inactive)
REMARK    1  A    between atoms: C_1  and  C_2
REMARK    2  A    between atoms: C_2  and  N_3
REMARK    3  A    between atoms: C_2  and  C_16
REMARK    4  A    between atoms: C_4  and  C_6
REMARK    5  A    between atoms: C_19  and  C_20
REMARK    6  A    between atoms: C_20  and  N_21
REMARK    7  A    between atoms: C_22  and  C_24
REMARK                            x       y       z     vdW  Elec       q    Type
REMARK                         _______ _______ _______ _____ _____    ______ ____
ROOT
ATOM      1  C   UNL     1      48.439   8.908  15.689  0.00  0.00    +0.000 C 
ATOM      2  C   UNL     1      48.690   7.728  14.742  0.00  0.00    +0.000 C 
ENDROOT
BRANCH   2   3
ATOM      3  C   UNL     1      49.850   8.045  13.802  0.00  0.00    +0.000 A 
ATOM      4  C   UNL     1      51.134   8.313  14.298  0.00  0.00    +0.000 A 
ATOM      5  C   UNL     1      52.204   8.551  13.422  0.00  0.00    +0.000 A 
ATOM      6  C   UNL     1      52.015   8.531  12.033  0.00  0.00    +0.000 A 
ATOM      7  C   UNL     1      50.733   8.270  11.537  0.00  0.00    +0.000 A 
ATOM      8  C   UNL     1      49.666   8.037  12.409  0.00  0.00    +0.000 A 
BRANCH   6   9
ATOM      9  C   UNL     1      53.167   8.750  11.081  0.00  0.00    +0.000 C 
BRANCH   9  10
ATOM     10  N   UNL     1      53.041   7.922   9.904  0.00  0.00    +0.000 N 
ATOM     11  C   UNL     1      53.676   6.703   9.808  0.00  0.00    +0.000 C 
ATOM     12  O   UNL     1      54.383   6.253  10.704  0.00  0.00    +0.000 OA
ATOM     13  H   UNL     1      52.439   8.241   9.164  0.00  0.00    +0.000 HD
BRANCH  11  14
ATOM     14  C   UNL     1      53.447   5.986   8.577  0.00  0.00    +0.000 A 
ATOM     15  C   UNL     1      52.715   6.273   7.443  0.00  0.00    +0.000 A 
ATOM     16  N   UNL     1      52.806   5.267   6.518  0.00  0.00    +0.000 NA
ATOM     17  C   UNL     1      53.582   4.362   7.069  0.00  0.00    +0.000 A 
ATOM     18  N   UNL     1      53.996   4.749   8.308  0.00  0.00    +0.000 N 
ATOM     19  H   UNL     1      54.601   4.231   8.934  0.00  0.00    +0.000 HD
ENDBRANCH  11  14
ENDBRANCH   9  10
ENDBRANCH   6   9
ENDBRANCH   2   3
BRANCH   2  20
ATOM     20  N   UNL     1      47.518   7.388  13.944  0.00  0.00    +0.000 N 
ATOM     21  C   UNL     1      47.186   6.107  13.579  0.00  0.00    +0.000 C 
ATOM     22  O   UNL     1      47.833   5.125  13.929  0.00  0.00    +0.000 OA
ATOM     23  H   UNL     1      47.146   8.143  13.377  0.00  0.00    +0.000 HD
BRANCH  21  24
ATOM     24  C   UNL     1      45.957   5.957  12.788  0.00  0.00    +0.000 A 
ATOM     25  C   UNL     1      45.334   7.082  12.265  0.00  0.00    +0.000 A 
ATOM     26  S   UNL     1      43.920   6.730  11.376  0.00  0.00    +0.000 S 
ATOM     27  C   UNL     1      44.069   5.066  11.696  0.00  0.00    +0.000 A 
ATOM     28  N   UNL     1      43.136   4.182  11.251  0.00  0.00    +0.000 NA
ATOM     29  C   UNL     1      43.357   2.956  11.595  0.00  0.00    +0.000 A 
ATOM     30  N   UNL     1      44.436   2.532  12.327  0.00  0.00    +0.000 N 
ATOM     31  C   UNL     1      45.428   3.383  12.753  0.00  0.00    +0.000 A 
ATOM     32  O   UNL     1      46.424   2.964  13.334  0.00  0.00    +0.000 OA
ATOM     33  C   UNL     1      45.204   4.779  12.433  0.00  0.00    +0.000 A 
ATOM     34  H   UNL     1      44.563   1.554  12.541  0.00  0.00    +0.000 HD
ENDBRANCH  21  24
ENDBRANCH   2  20
TORSDOF 6
ENDMDL
