MODEL 1
REMARK VINA RESULT:    -8.116      0.000      0.000
REMARK INTER + INTRA:         -11.928
REMARK INTER:                 -10.963
REMARK INTRA:                  -0.965
REMARK UNBOUND:                -0.965
REMARK  Name = 
REMARK  6 active torsions:
REMARK  status: ('A' for Active; 'I' for Inactive)
REMARK    1  A    between atoms: C_2  and  C_20
REMARK    2  A    between atoms: N_3  and  C_4
REMARK    3  A    between atoms: C_4  and  C_5
REMARK    4  A    between atoms: N_8  and  C_9
REMARK    5  A    between atoms: C_9  and  C_10
REMARK    6  A    between atoms: C_10  and  N_11
REMARK                            x       y       z     vdW  Elec       q    Type
REMARK                         _______ _______ _______ _____ _____    ______ ____
ROOT
ATOM      1  C   UNL     1      46.869   6.446  12.726  0.00  0.00    +0.000 C 
ENDROOT
BRANCH   1   2
ATOM      2  C   UNL     1      45.405   6.779  12.406  0.00  0.00    +0.000 C 
ATOM      3  C   UNL     1      44.373   5.995  13.230  0.00  0.00    +0.000 C 
ATOM      4  C   UNL     1      44.198   4.533  12.802  0.00  0.00    +0.000 C 
ATOM      5  N   UNL     1      43.967   4.376  11.360  0.00  0.00    +0.000 NA
ATOM      6  C   UNL     1      45.012   5.046  10.573  0.00  0.00    +0.000 C 
ATOM      7  C   UNL     1      45.127   6.536  10.917  0.00  0.00    +0.000 C 
BRANCH   5   8
ATOM      8  C   UNL     1      43.875   2.949  10.961  0.00  0.00    +0.000 C 
BRANCH   8   9
ATOM      9  C   UNL     1      44.182   2.647   9.472  0.00  0.00    +0.000 C 
BRANCH   9  10
ATOM     10  N   UNL     1      45.440   1.914   9.355  0.00  0.00    +0.000 N 
ATOM     11  C   UNL     1      46.124   2.144   8.167  0.00  0.00    +0.000 A 
ATOM     12  N   UNL     1      46.070   3.345   7.573  0.00  0.00    +0.000 NA
ATOM     13  C   UNL     1      46.760   3.500   6.431  0.00  0.00    +0.000 A 
ATOM     14  C   UNL     1      47.494   2.491   5.854  0.00  0.00    +0.000 A 
ATOM     15  C   UNL     1      47.478   1.301   6.531  0.00  0.00    +0.000 A 
ATOM     16  N   UNL     1      46.801   1.098   7.674  0.00  0.00    +0.000 NA
ATOM     17  H   UNL     1      45.378   0.906   9.435  0.00  0.00    +0.000 HD
ENDBRANCH   9  10
ENDBRANCH   8   9
ENDBRANCH   5   8
ENDBRANCH   1   2
BRANCH   1  20
ATOM     18  O   UNL     1      49.530   6.706  13.894  0.00  0.00    +0.000 OA
ATOM     19  C   UNL     1      48.525   6.660  14.593  0.00  0.00    +0.000 C 
ATOM     20  N   UNL     1      47.235   6.599  14.111  0.00  0.00    +0.000 N 
ATOM     21  H   UNL     1      46.507   6.379  14.771  0.00  0.00    +0.000 HD
BRANCH  19  22
ATOM     22  C   UNL     1      48.560   6.467  16.042  0.00  0.00    +0.000 A 
ATOM     23  C   UNL     1      49.046   7.412  16.931  0.00  0.00    +0.000 A 
ATOM     24  S   UNL     1      49.454   6.707  18.445  0.00  0.00    +0.000 S 
ATOM     25  C   UNL     1      48.910   5.171  17.942  0.00  0.00    +0.000 A 
ATOM     26  N   UNL     1      49.145   4.033  18.648  0.00  0.00    +0.000 NA
ATOM     27  C   UNL     1      48.662   2.962  18.104  0.00  0.00    +0.000 A 
ATOM     28  N   UNL     1      47.899   2.930  16.961  0.00  0.00    +0.000 N 
ATOM     29  C   UNL     1      47.568   4.066  16.267  0.00  0.00    +0.000 A 
ATOM     30  O   UNL     1      46.770   4.047  15.340  0.00  0.00    +0.000 OA
ATOM     31  C   UNL     1      48.254   5.251  16.734  0.00  0.00    +0.000 A 
ATOM     32  H   UNL     1      47.467   2.077  16.645  0.00  0.00    +0.000 HD
ENDBRANCH  19  22
ENDBRANCH   1  20
TORSDOF 6
ENDMDL
MODEL 2
REMARK VINA RESULT:    -7.756      1.757      2.617
REMARK INTER + INTRA:         -11.442
REMARK INTER:                 -10.527
REMARK INTRA:                  -0.914
REMARK UNBOUND:                -0.965
REMARK  Name = 
REMARK  6 active torsions:
REMARK  status: ('A' for Active; 'I' for Inactive)
REMARK    1  A    between atoms: C_2  and  C_20
REMARK    2  A    between atoms: N_3  and  C_4
REMARK    3  A    between atoms: C_4  and  C_5
REMARK    4  A    between atoms: N_8  and  C_9
REMARK    5  A    between atoms: C_9  and  C_10
REMARK    6  A    between atoms: C_10  and  N_11
REMARK                            x       y       z     vdW  Elec       q    Type
REMARK                         _______ _______ _______ _____ _____    ______ ____
ROOT
ATOM      1  C   UNL     1      47.824   7.727  14.458  0.00  0.00    +0.000 C 
ENDROOT
BRANCH   1   2
ATOM      2  C   UNL     1      47.934   7.269  12.997  0.00  0.00    +0.000 C 
ATOM      3  C   UNL     1      46.970   7.971  12.030  0.00  0.00    +0.000 C 
ATOM      4  C   UNL     1      45.514   7.501  12.132  0.00  0.00    +0.000 C 
ATOM      5  N   UNL     1      45.373   6.040  12.067  0.00  0.00    +0.000 NA
ATOM      6  C   UNL     1      46.226   5.373  13.062  0.00  0.00    +0.000 C 
ATOM      7  C   UNL     1      47.702   5.755  12.905  0.00  0.00    +0.000 C 
BRANCH   5   8
ATOM      8  C   UNL     1      43.964   5.606  12.242  0.00  0.00    +0.000 C 
BRANCH   8   9
ATOM      9  C   UNL     1      43.472   4.509  11.265  0.00  0.00    +0.000 C 
BRANCH   9  10
ATOM     10  N   UNL     1      43.770   4.890   9.887  0.00  0.00    +0.000 N 
ATOM     11  C   UNL     1      44.593   3.994   9.214  0.00  0.00    +0.000 A 
ATOM     12  N   UNL     1      44.523   2.681   9.473  0.00  0.00    +0.000 NA
ATOM     13  C   UNL     1      45.343   1.872   8.781  0.00  0.00    +0.000 A 
ATOM     14  C   UNL     1      46.240   2.331   7.847  0.00  0.00    +0.000 A 
ATOM     15  C   UNL     1      46.242   3.688   7.661  0.00  0.00    +0.000 A 
ATOM     16  N   UNL     1      45.444   4.537   8.332  0.00  0.00    +0.000 NA
ATOM     17  H   UNL     1      44.203   5.797   9.758  0.00  0.00    +0.000 HD
ENDBRANCH   9  10
ENDBRANCH   8   9
ENDBRANCH   5   8
ENDBRANCH   1   2
BRANCH   1  20
ATOM     18  O   UNL     1      48.474   8.191  17.265  0.00  0.00    +0.000 OA
ATOM     19  C   UNL     1      48.698   7.114  16.725  0.00  0.00    +0.000 C 
ATOM     20  N   UNL     1      48.364   6.803  15.424  0.00  0.00    +0.000 N 
ATOM     21  H   UNL     1      48.761   5.964  15.035  0.00  0.00    +0.000 HD
BRANCH  19  22
ATOM     22  C   UNL     1      49.529   6.070  17.324  0.00  0.00    +0.000 A 
ATOM     23  C   UNL     1      50.805   6.293  17.815  0.00  0.00    +0.000 A 
ATOM     24  S   UNL     1      51.701   4.831  17.939  0.00  0.00    +0.000 S 
ATOM     25  C   UNL     1      50.367   3.903  17.418  0.00  0.00    +0.000 A 
ATOM     26  N   UNL     1      50.464   2.588  17.082  0.00  0.00    +0.000 NA
ATOM     27  C   UNL     1      49.348   2.055  16.702  0.00  0.00    +0.000 A 
ATOM     28  N   UNL     1      48.128   2.688  16.699  0.00  0.00    +0.000 N 
ATOM     29  C   UNL     1      47.975   3.988  17.112  0.00  0.00    +0.000 A 
ATOM     30  O   UNL     1      46.870   4.496  17.247  0.00  0.00    +0.000 OA
ATOM     31  C   UNL     1      49.227   4.671  17.352  0.00  0.00    +0.000 A 
ATOM     32  H   UNL     1      47.279   2.188  16.490  0.00  0.00    +0.000 HD
ENDBRANCH  19  22
ENDBRANCH   1  20
TORSDOF 6
ENDMDL
MODEL 3
REMARK VINA RESULT:    -7.609      2.029      3.080
REMARK INTER + INTRA:         -11.243
REMARK INTER:                 -10.434
REMARK INTRA:                  -0.809
REMARK UNBOUND:                -0.965
REMARK  Name = 
REMARK  6 active torsions:
REMARK  status: ('A' for Active; 'I' for Inactive)
REMARK    1  A    between atoms: C_2  and  C_20
REMARK    2  A    between atoms: N_3  and  C_4
REMARK    3  A    between atoms: C_4  and  C_5
REMARK    4  A    between atoms: N_8  and  C_9
REMARK    5  A    between atoms: C_9  and  C_10
REMARK    6  A    between atoms: C_10  and  N_11
REMARK                            x       y       z     vdW  Elec       q    Type
REMARK                         _______ _______ _______ _____ _____    ______ ____
ROOT
ATOM      1  C   UNL     1      46.878   5.208  15.207  0.00  0.00    +0.000 C 
ENDROOT
BRANCH   1   2
ATOM      2  C   UNL     1      47.561   5.004  13.848  0.00  0.00    +0.000 C 
ATOM      3  C   UNL     1      47.432   6.191  12.881  0.00  0.00    +0.000 C 
ATOM      4  C   UNL     1      46.050   6.336  12.234  0.00  0.00    +0.000 C 
ATOM      5  N   UNL     1      45.562   5.090  11.626  0.00  0.00    +0.000 NA
ATOM      6  C   UNL     1      45.595   3.976  12.585  0.00  0.00    +0.000 C 
ATOM      7  C   UNL     1      46.998   3.753  13.162  0.00  0.00    +0.000 C 
BRANCH   5   8
ATOM      8  C   UNL     1      44.193   5.237  11.073  0.00  0.00    +0.000 C 
BRANCH   8   9
ATOM      9  C   UNL     1      43.727   4.105  10.122  0.00  0.00    +0.000 C 
BRANCH   9  10
ATOM     10  N   UNL     1      44.151   4.389   8.753  0.00  0.00    +0.000 N 
ATOM     11  C   UNL     1      45.126   3.525   8.269  0.00  0.00    +0.000 A 
ATOM     12  N   UNL     1      45.145   2.240   8.649  0.00  0.00    +0.000 NA
ATOM     13  C   UNL     1      46.112   1.460   8.137  0.00  0.00    +0.000 A 
ATOM     14  C   UNL     1      47.068   1.923   7.265  0.00  0.00    +0.000 A 
ATOM     15  C   UNL     1      46.969   3.250   6.945  0.00  0.00    +0.000 A 
ATOM     16  N   UNL     1      46.023   4.071   7.435  0.00  0.00    +0.000 NA
ATOM     17  H   UNL     1      44.512   5.321   8.582  0.00  0.00    +0.000 HD
ENDBRANCH   9  10
ENDBRANCH   8   9
ENDBRANCH   5   8
ENDBRANCH   1   2
BRANCH   1  20
ATOM     18  O   UNL     1      46.506   3.308  17.390  0.00  0.00    +0.000 OA
ATOM     19  C   UNL     1      47.450   4.088  17.374  0.00  0.00    +0.000 C 
ATOM     20  N   UNL     1      47.723   4.970  16.350  0.00  0.00    +0.000 N 
ATOM     21  H   UNL     1      48.410   5.685  16.529  0.00  0.00    +0.000 HD
BRANCH  19  22
ATOM     22  C   UNL     1      48.313   4.333  18.529  0.00  0.00    +0.000 A 
ATOM     23  C   UNL     1      47.902   5.018  19.661  0.00  0.00    +0.000 A 
ATOM     24  S   UNL     1      49.241   5.603  20.568  0.00  0.00    +0.000 S 
ATOM     25  C   UNL     1      50.355   4.878  19.499  0.00  0.00    +0.000 A 
ATOM     26  N   UNL     1      51.690   5.137  19.532  0.00  0.00    +0.000 NA
ATOM     27  C   UNL     1      52.375   4.500  18.637  0.00  0.00    +0.000 A 
ATOM     28  N   UNL     1      51.865   3.569  17.764  0.00  0.00    +0.000 N 
ATOM     29  C   UNL     1      50.539   3.217  17.758  0.00  0.00    +0.000 A 
ATOM     30  O   UNL     1      50.121   2.286  17.083  0.00  0.00    +0.000 OA
ATOM     31  C   UNL     1      49.714   4.051  18.605  0.00  0.00    +0.000 A 
ATOM     32  H   UNL     1      52.468   3.032  17.161  0.00  0.00    +0.000 HD
ENDBRANCH  19  22
ENDBRANCH   1  20
TORSDOF 6
ENDMDL
MODEL 4
REMARK VINA RESULT:    -7.299      3.237      8.012
REMARK INTER + INTRA:         -10.824
REMARK INTER:                  -9.438
REMARK INTRA:                  -1.386
REMARK UNBOUND:                -0.965
REMARK  Name = 
REMARK  6 active torsions:
REMARK  status: ('A' for Active; 'I' for Inactive)
REMARK    1  A    between atoms: C_2  and  C_20
REMARK    2  A    between atoms: N_3  and  C_4
REMARK    3  A    between atoms: C_4  and  C_5
REMARK    4  A    between atoms: N_8  and  C_9
REMARK    5  A    between atoms: C_9  and  C_10
REMARK    6  A    between atoms: C_10  and  N_11
REMARK                            x       y       z     vdW  Elec       q    Type
REMARK                         _______ _______ _______ _____ _____    ______ ____
ROOT
ATOM      1  C   UNL     1      46.866   8.056  13.267  0.00  0.00    +0.000 C 
ENDROOT
BRANCH   1   2
ATOM      2  C   UNL     1      48.016   9.036  12.994  0.00  0.00    +0.000 C 
ATOM      3  C   UNL     1      49.260   8.403  12.352  0.00  0.00    +0.000 C 
ATOM      4  C   UNL     1      50.116   7.571  13.314  0.00  0.00    +0.000 C 
ATOM      5  N   UNL     1      50.453   8.283  14.553  0.00  0.00    +0.000 NA
ATOM      6  C   UNL     1      49.250   8.804  15.217  0.00  0.00    +0.000 C 
ATOM      7  C   UNL     1      48.437   9.725  14.298  0.00  0.00    +0.000 C 
BRANCH   5   8
ATOM      8  C   UNL     1      51.219   7.431  15.498  0.00  0.00    +0.000 C 
BRANCH   8   9
ATOM      9  C   UNL     1      50.464   7.006  16.782  0.00  0.00    +0.000 C 
BRANCH   9  10
ATOM     10  N   UNL     1      50.718   5.598  17.075  0.00  0.00    +0.000 N 
ATOM     11  C   UNL     1      49.571   4.816  17.144  0.00  0.00    +0.000 A 
ATOM     12  N   UNL     1      48.515   5.086  16.364  0.00  0.00    +0.000 NA
ATOM     13  C   UNL     1      47.443   4.285  16.478  0.00  0.00    +0.000 A 
ATOM     14  C   UNL     1      47.385   3.228  17.355  0.00  0.00    +0.000 A 
ATOM     15  C   UNL     1      48.508   3.039  18.113  0.00  0.00    +0.000 A 
ATOM     16  N   UNL     1      49.603   3.816  18.037  0.00  0.00    +0.000 NA
ATOM     17  H   UNL     1      51.224   5.404  17.931  0.00  0.00    +0.000 HD
ENDBRANCH   9  10
ENDBRANCH   8   9
ENDBRANCH   5   8
ENDBRANCH   1   2
BRANCH   1  20
ATOM     18  O   UNL     1      44.638   7.774  11.405  0.00  0.00    +0.000 OA
ATOM     19  C   UNL     1      45.553   6.960  11.437  0.00  0.00    +0.000 C 
ATOM     20  N   UNL     1      46.665   7.060  12.245  0.00  0.00    +0.000 N 
ATOM     21  H   UNL     1      47.254   6.247  12.321  0.00  0.00    +0.000 HD
BRANCH  19  22
ATOM     22  C   UNL     1      45.502   5.663  10.763  0.00  0.00    +0.000 A 
ATOM     23  C   UNL     1      45.807   5.483   9.423  0.00  0.00    +0.000 A 
ATOM     24  S   UNL     1      45.146   4.017   8.815  0.00  0.00    +0.000 S 
ATOM     25  C   UNL     1      44.530   3.592  10.348  0.00  0.00    +0.000 A 
ATOM     26  N   UNL     1      43.664   2.561  10.539  0.00  0.00    +0.000 NA
ATOM     27  C   UNL     1      43.300   2.396  11.771  0.00  0.00    +0.000 A 
ATOM     28  N   UNL     1      43.779   3.114  12.841  0.00  0.00    +0.000 N 
ATOM     29  C   UNL     1      44.718   4.104  12.699  0.00  0.00    +0.000 A 
ATOM     30  O   UNL     1      45.246   4.636  13.666  0.00  0.00    +0.000 OA
ATOM     31  C   UNL     1      44.996   4.446  11.321  0.00  0.00    +0.000 A 
ATOM     32  H   UNL     1      43.533   2.869  13.787  0.00  0.00    +0.000 HD
ENDBRANCH  19  22
ENDBRANCH   1  20
TORSDOF 6
ENDMDL
MODEL 5
REMARK VINA RESULT:    -7.288      1.527      2.539
REMARK INTER + INTRA:         -10.808
REMARK INTER:                 -10.245
REMARK INTRA:                  -0.563
REMARK UNBOUND:                -0.965
REMARK  Name = 
REMARK  6 active torsions:
REMARK  status: ('A' for Active; 'I' for Inactive)
REMARK    1  A    between atoms: C_2  and  C_20
REMARK    2  A    between atoms: N_3  and  C_4
REMARK    3  A    between atoms: C_4  and  C_5
REMARK    4  A    between atoms: N_8  and  C_9
REMARK    5  A    between atoms: C_9  and  C_10
REMARK    6  A    between atoms: C_10  and  N_11
REMARK                            x       y       z     vdW  Elec       q    Type
REMARK                         _______ _______ _______ _____ _____    ______ ____
ROOT
ATOM      1  C   UNL     1      47.338   5.854  12.900  0.00  0.00    +0.000 C 
ENDROOT
BRANCH   1   2
ATOM      2  C   UNL     1      46.033   6.615  12.630  0.00  0.00    +0.000 C 
ATOM      3  C   UNL     1      44.799   6.048  13.346  0.00  0.00    +0.000 C 
ATOM      4  C   UNL     1      44.245   4.758  12.730  0.00  0.00    +0.000 C 
ATOM      5  N   UNL     1      44.029   4.855  11.280  0.00  0.00    +0.000 NA
ATOM      6  C   UNL     1      45.244   5.306  10.586  0.00  0.00    +0.000 C 
ATOM      7  C   UNL     1      45.750   6.650  11.123  0.00  0.00    +0.000 C 
BRANCH   5   8
ATOM      8  C   UNL     1      43.564   3.572  10.696  0.00  0.00    +0.000 C 
BRANCH   8   9
ATOM      9  C   UNL     1      44.624   2.773   9.898  0.00  0.00    +0.000 C 
BRANCH   9  10
ATOM     10  N   UNL     1      44.510   3.066   8.472  0.00  0.00    +0.000 N 
ATOM     11  C   UNL     1      45.620   2.691   7.724  0.00  0.00    +0.000 A 
ATOM     12  N   UNL     1      46.331   1.606   8.059  0.00  0.00    +0.000 NA
ATOM     13  C   UNL     1      47.387   1.298   7.288  0.00  0.00    +0.000 A 
ATOM     14  C   UNL     1      47.765   2.046   6.199  0.00  0.00    +0.000 A 
ATOM     15  C   UNL     1      46.982   3.139   5.944  0.00  0.00    +0.000 A 
ATOM     16  N   UNL     1      45.918   3.489   6.688  0.00  0.00    +0.000 NA
ATOM     17  H   UNL     1      44.339   4.034   8.228  0.00  0.00    +0.000 HD
ENDBRANCH   9  10
ENDBRANCH   8   9
ENDBRANCH   5   8
ENDBRANCH   1   2
BRANCH   1  20
ATOM     18  O   UNL     1      47.430   3.606  14.759  0.00  0.00    +0.000 OA
ATOM     19  C   UNL     1      47.718   4.743  15.113  0.00  0.00    +0.000 C 
ATOM     20  N   UNL     1      47.756   5.840  14.279  0.00  0.00    +0.000 N 
ATOM     21  H   UNL     1      47.822   6.746  14.713  0.00  0.00    +0.000 HD
BRANCH  19  22
ATOM     22  C   UNL     1      47.874   5.135  16.513  0.00  0.00    +0.000 A 
ATOM     23  C   UNL     1      47.145   4.577  17.551  0.00  0.00    +0.000 A 
ATOM     24  S   UNL     1      47.151   5.588  18.943  0.00  0.00    +0.000 S 
ATOM     25  C   UNL     1      48.184   6.717  18.190  0.00  0.00    +0.000 A 
ATOM     26  N   UNL     1      48.445   7.946  18.711  0.00  0.00    +0.000 NA
ATOM     27  C   UNL     1      49.245   8.667  17.992  0.00  0.00    +0.000 A 
ATOM     28  N   UNL     1      49.871   8.248  16.843  0.00  0.00    +0.000 N 
ATOM     29  C   UNL     1      49.701   6.986  16.332  0.00  0.00    +0.000 A 
ATOM     30  O   UNL     1      50.371   6.573  15.396  0.00  0.00    +0.000 OA
ATOM     31  C   UNL     1      48.663   6.227  16.996  0.00  0.00    +0.000 A 
ATOM     32  H   UNL     1      50.562   8.821  16.386  0.00  0.00    +0.000 HD
ENDBRANCH  19  22
ENDBRANCH   1  20
TORSDOF 6
ENDMDL
MODEL 6
REMARK VINA RESULT:    -7.039      3.738      5.127
REMARK INTER + INTRA:         -10.473
REMARK INTER:                  -9.546
REMARK INTRA:                  -0.927
REMARK UNBOUND:                -0.965
REMARK  Name = 
REMARK  6 active torsions:
REMARK  status: ('A' for Active; 'I' for Inactive)
REMARK    1  A    between atoms: C_2  and  C_20
REMARK    2  A    between atoms: N_3  and  C_4
REMARK    3  A    between atoms: C_4  and  C_5
REMARK    4  A    between atoms: N_8  and  C_9
REMARK    5  A    between atoms: C_9  and  C_10
REMARK    6  A    between atoms: C_10  and  N_11
REMARK                            x       y       z     vdW  Elec       q    Type
REMARK                         _______ _______ _______ _____ _____    ______ ____
ROOT
ATOM      1  C   UNL     1      47.978   6.344  12.409  0.00  0.00    +0.000 C 
ENDROOT
BRANCH   1   2
ATOM      2  C   UNL     1      46.785   6.434  13.372  0.00  0.00    +0.000 C 
ATOM      3  C   UNL     1      46.048   5.107  13.605  0.00  0.00    +0.000 C 
ATOM      4  C   UNL     1      45.153   4.665  12.441  0.00  0.00    +0.000 C 
ATOM      5  N   UNL     1      44.236   5.717  11.983  0.00  0.00    +0.000 NA
ATOM      6  C   UNL     1      44.959   6.958  11.667  0.00  0.00    +0.000 C 
ATOM      7  C   UNL     1      45.777   7.470  12.859  0.00  0.00    +0.000 C 
BRANCH   5   8
ATOM      8  C   UNL     1      43.435   5.290  10.810  0.00  0.00    +0.000 C 
BRANCH   8   9
ATOM      9  C   UNL     1      43.905   3.988  10.113  0.00  0.00    +0.000 C 
BRANCH   9  10
ATOM     10  N   UNL     1      44.268   4.261   8.725  0.00  0.00    +0.000 N 
ATOM     11  C   UNL     1      45.264   3.432   8.224  0.00  0.00    +0.000 A 
ATOM     12  N   UNL     1      45.355   2.157   8.629  0.00  0.00    +0.000 NA
ATOM     13  C   UNL     1      46.338   1.410   8.098  0.00  0.00    +0.000 A 
ATOM     14  C   UNL     1      47.241   1.896   7.184  0.00  0.00    +0.000 A 
ATOM     15  C   UNL     1      47.071   3.211   6.841  0.00  0.00    +0.000 A 
ATOM     16  N   UNL     1      46.106   3.998   7.347  0.00  0.00    +0.000 NA
ATOM     17  H   UNL     1      44.580   5.204   8.522  0.00  0.00    +0.000 HD
ENDBRANCH   9  10
ENDBRANCH   8   9
ENDBRANCH   5   8
ENDBRANCH   1   2
BRANCH   1  20
ATOM     18  O   UNL     1      49.045   8.918  11.543  0.00  0.00    +0.000 OA
ATOM     19  C   UNL     1      49.638   8.219  12.355  0.00  0.00    +0.000 C 
ATOM     20  N   UNL     1      49.168   7.023  12.855  0.00  0.00    +0.000 N 
ATOM     21  H   UNL     1      49.818   6.451  13.369  0.00  0.00    +0.000 HD
BRANCH  19  22
ATOM     22  C   UNL     1      51.022   8.457  12.764  0.00  0.00    +0.000 A 
ATOM     23  C   UNL     1      51.387   8.854  14.041  0.00  0.00    +0.000 A 
ATOM     24  S   UNL     1      52.954   9.561  14.060  0.00  0.00    +0.000 S 
ATOM     25  C   UNL     1      53.172   9.264  12.394  0.00  0.00    +0.000 A 
ATOM     26  N   UNL     1      54.199   9.791  11.675  0.00  0.00    +0.000 NA
ATOM     27  C   UNL     1      54.192   9.461  10.423  0.00  0.00    +0.000 A 
ATOM     28  N   UNL     1      53.304   8.591   9.838  0.00  0.00    +0.000 N 
ATOM     29  C   UNL     1      52.307   7.971  10.548  0.00  0.00    +0.000 A 
ATOM     30  O   UNL     1      51.615   7.090  10.057  0.00  0.00    +0.000 OA
ATOM     31  C   UNL     1      52.162   8.470  11.899  0.00  0.00    +0.000 A 
ATOM     32  H   UNL     1      53.415   8.295   8.882  0.00  0.00    +0.000 HD
ENDBRANCH  19  22
ENDBRANCH   1  20
TORSDOF 6
ENDMDL
MODEL 7
REMARK VINA RESULT:    -6.974      2.821      3.541
REMARK INTER + INTRA:         -10.385
REMARK INTER:                  -9.366
REMARK INTRA:                  -1.019
REMARK UNBOUND:                -0.965
REMARK  Name = 
REMARK  6 active torsions:
REMARK  status: ('A' for Active; 'I' for Inactive)
REMARK    1  A    between atoms: C_2  and  C_20
REMARK    2  A    between atoms: N_3  and  C_4
REMARK    3  A    between atoms: C_4  and  C_5
REMARK    4  A    between atoms: N_8  and  C_9
REMARK    5  A    between atoms: C_9  and  C_10
REMARK    6  A    between atoms: C_10  and  N_11
REMARK                            x       y       z     vdW  Elec       q    Type
REMARK                         _______ _______ _______ _____ _____    ______ ____
ROOT
ATOM      1  C   UNL     1      46.750   6.629  11.941  0.00  0.00    +0.000 C 
ENDROOT
BRANCH   1   2
ATOM      2  C   UNL     1      45.441   6.532  12.736  0.00  0.00    +0.000 C 
ATOM      3  C   UNL     1      45.301   5.263  13.590  0.00  0.00    +0.000 C 
ATOM      4  C   UNL     1      44.982   3.993  12.792  0.00  0.00    +0.000 C 
ATOM      5  N   UNL     1      43.844   4.155  11.877  0.00  0.00    +0.000 NA
ATOM      6  C   UNL     1      44.026   5.316  10.993  0.00  0.00    +0.000 C 
ATOM      7  C   UNL     1      44.243   6.613  11.782  0.00  0.00    +0.000 C 
BRANCH   5   8
ATOM      8  C   UNL     1      43.602   2.937  11.064  0.00  0.00    +0.000 C 
BRANCH   8   9
ATOM      9  C   UNL     1      44.189   2.959   9.630  0.00  0.00    +0.000 C 
BRANCH   9  10
ATOM     10  N   UNL     1      45.373   2.107   9.556  0.00  0.00    +0.000 N 
ATOM     11  C   UNL     1      46.052   2.180   8.345  0.00  0.00    +0.000 A 
ATOM     12  N   UNL     1      46.095   3.330   7.658  0.00  0.00    +0.000 NA
ATOM     13  C   UNL     1      46.775   3.330   6.499  0.00  0.00    +0.000 A 
ATOM     14  C   UNL     1      47.403   2.217   5.996  0.00  0.00    +0.000 A 
ATOM     15  C   UNL     1      47.293   1.090   6.765  0.00  0.00    +0.000 A 
ATOM     16  N   UNL     1      46.622   1.040   7.930  0.00  0.00    +0.000 NA
ATOM     17  H   UNL     1      45.222   1.119   9.718  0.00  0.00    +0.000 HD
ENDBRANCH   9  10
ENDBRANCH   8   9
ENDBRANCH   5   8
ENDBRANCH   1   2
BRANCH   1  20
ATOM     18  O   UNL     1      49.346   7.380  10.840  0.00  0.00    +0.000 OA
ATOM     19  C   UNL     1      48.855   7.978  11.789  0.00  0.00    +0.000 C 
ATOM     20  N   UNL     1      47.611   7.719  12.323  0.00  0.00    +0.000 N 
ATOM     21  H   UNL     1      47.393   8.143  13.210  0.00  0.00    +0.000 HD
BRANCH  19  22
ATOM     22  C   UNL     1      49.602   8.924  12.618  0.00  0.00    +0.000 A 
ATOM     23  C   UNL     1      49.812  10.249  12.270  0.00  0.00    +0.000 A 
ATOM     24  S   UNL     1      51.136  10.927  13.134  0.00  0.00    +0.000 S 
ATOM     25  C   UNL     1      51.370   9.489  14.020  0.00  0.00    +0.000 A 
ATOM     26  N   UNL     1      52.462   9.267  14.799  0.00  0.00    +0.000 NA
ATOM     27  C   UNL     1      52.468   8.114  15.387  0.00  0.00    +0.000 A 
ATOM     28  N   UNL     1      51.450   7.192  15.334  0.00  0.00    +0.000 N 
ATOM     29  C   UNL     1      50.294   7.415  14.628  0.00  0.00    +0.000 A 
ATOM     30  O   UNL     1      49.336   6.659  14.704  0.00  0.00    +0.000 OA
ATOM     31  C   UNL     1      50.340   8.602  13.802  0.00  0.00    +0.000 A 
ATOM     32  H   UNL     1      51.470   6.357  15.897  0.00  0.00    +0.000 HD
ENDBRANCH  19  22
ENDBRANCH   1  20
TORSDOF 6
ENDMDL
MODEL 8
REMARK VINA RESULT:    -6.881      2.227      3.163
REMARK INTER + INTRA:         -10.260
REMARK INTER:                  -9.400
REMARK INTRA:                  -0.859
REMARK UNBOUND:                -0.965
REMARK  Name = 
REMARK  6 active torsions:
REMARK  status: ('A' for Active; 'I' for Inactive)
REMARK    1  A    between atoms: C_2  and  C_20
REMARK    2  A    between atoms: N_3  and  C_4
REMARK    3  A    between atoms: C_4  and  C_5
REMARK    4  A    between atoms: N_8  and  C_9
REMARK    5  A    between atoms: C_9  and  C_10
REMARK    6  A    between atoms: C_10  and  N_11
REMARK                            x       y       z     vdW  Elec       q    Type
REMARK                         _______ _______ _______ _____ _____    ______ ____
ROOT
ATOM      1  C   UNL     1      48.063   7.619  14.387  0.00  0.00    +0.000 C 
ENDROOT
BRANCH   1   2
ATOM      2  C   UNL     1      48.299   6.603  13.261  0.00  0.00    +0.000 C 
ATOM      3  C   UNL     1      47.865   7.079  11.866  0.00  0.00    +0.000 C 
ATOM      4  C   UNL     1      46.350   7.074  11.636  0.00  0.00    +0.000 C 
ATOM      5  N   UNL     1      45.715   5.797  11.991  0.00  0.00    +0.000 NA
ATOM      6  C   UNL     1      46.054   5.393  13.364  0.00  0.00    +0.000 C 
ATOM      7  C   UNL     1      47.569   5.292  13.578  0.00  0.00    +0.000 C 
BRANCH   5   8
ATOM      8  C   UNL     1      44.240   5.843  11.831  0.00  0.00    +0.000 C 
BRANCH   8   9
ATOM      9  C   UNL     1      43.624   4.717  10.961  0.00  0.00    +0.000 C 
BRANCH   9  10
ATOM     10  N   UNL     1      43.900   4.962   9.549  0.00  0.00    +0.000 N 
ATOM     11  C   UNL     1      44.728   4.015   8.958  0.00  0.00    +0.000 A 
ATOM     12  N   UNL     1      44.681   2.733   9.348  0.00  0.00    +0.000 NA
ATOM     13  C   UNL     1      45.505   1.871   8.730  0.00  0.00    +0.000 A 
ATOM     14  C   UNL     1      46.384   2.246   7.743  0.00  0.00    +0.000 A 
ATOM     15  C   UNL     1      46.364   3.577   7.423  0.00  0.00    +0.000 A 
ATOM     16  N   UNL     1      45.560   4.478   8.015  0.00  0.00    +0.000 NA
ATOM     17  H   UNL     1      44.317   5.858   9.324  0.00  0.00    +0.000 HD
ENDBRANCH   9  10
ENDBRANCH   8   9
ENDBRANCH   5   8
ENDBRANCH   1   2
BRANCH   1  20
ATOM     18  O   UNL     1      49.605   8.486  16.708  0.00  0.00    +0.000 OA
ATOM     19  C   UNL     1      48.882   7.497  16.751  0.00  0.00    +0.000 C 
ATOM     20  N   UNL     1      48.081   7.064  15.716  0.00  0.00    +0.000 N 
ATOM     21  H   UNL     1      47.679   6.144  15.799  0.00  0.00    +0.000 HD
BRANCH  19  22
ATOM     22  C   UNL     1      48.916   6.522  17.840  0.00  0.00    +0.000 A 
ATOM     23  C   UNL     1      47.850   6.290  18.694  0.00  0.00    +0.000 A 
ATOM     24  S   UNL     1      48.359   5.528  20.150  0.00  0.00    +0.000 S 
ATOM     25  C   UNL     1      49.973   5.438  19.606  0.00  0.00    +0.000 A 
ATOM     26  N   UNL     1      51.010   5.094  20.416  0.00  0.00    +0.000 NA
ATOM     27  C   UNL     1      52.163   5.090  19.827  0.00  0.00    +0.000 A 
ATOM     28  N   UNL     1      52.369   5.319  18.487  0.00  0.00    +0.000 N 
ATOM     29  C   UNL     1      51.339   5.584  17.621  0.00  0.00    +0.000 A 
ATOM     30  O   UNL     1      51.511   5.642  16.411  0.00  0.00    +0.000 OA
ATOM     31  C   UNL     1      50.067   5.793  18.279  0.00  0.00    +0.000 A 
ATOM     32  H   UNL     1      53.278   5.200  18.070  0.00  0.00    +0.000 HD
ENDBRANCH  19  22
ENDBRANCH   1  20
TORSDOF 6
ENDMDL
MODEL 9
REMARK VINA RESULT:    -6.837      2.276      2.927
REMARK INTER + INTRA:         -10.199
REMARK INTER:                  -9.061
REMARK INTRA:                  -1.138
REMARK UNBOUND:                -0.965
REMARK  Name = 
REMARK  6 active torsions:
REMARK  status: ('A' for Active; 'I' for Inactive)
REMARK    1  A    between atoms: C_2  and  C_20
REMARK    2  A    between atoms: N_3  and  C_4
REMARK    3  A    between atoms: C_4  and  C_5
REMARK    4  A    between atoms: N_8  and  C_9
REMARK    5  A    between atoms: C_9  and  C_10
REMARK    6  A    between atoms: C_10  and  N_11
REMARK                            x       y       z     vdW  Elec       q    Type
REMARK                         _______ _______ _______ _____ _____    ______ ____
ROOT
ATOM      1  C   UNL     1      46.782   7.961  13.598  0.00  0.00    +0.000 C 
ENDROOT
BRANCH   1   2
ATOM      2  C   UNL     1      47.431   6.747  12.918  0.00  0.00    +0.000 C 
ATOM      3  C   UNL     1      47.155   6.633  11.411  0.00  0.00    +0.000 C 
ATOM      4  C   UNL     1      45.743   6.153  11.059  0.00  0.00    +0.000 C 
ATOM      5  N   UNL     1      45.353   4.928  11.771  0.00  0.00    +0.000 NA
ATOM      6  C   UNL     1      45.526   5.075  13.224  0.00  0.00    +0.000 C 
ATOM      7  C   UNL     1      46.964   5.454  13.598  0.00  0.00    +0.000 C 
BRANCH   5   8
ATOM      8  C   UNL     1      43.957   4.526  11.470  0.00  0.00    +0.000 C 
BRANCH   8   9
ATOM      9  C   UNL     1      43.777   3.578  10.257  0.00  0.00    +0.000 C 
BRANCH   9  10
ATOM     10  N   UNL     1      44.874   2.615  10.202  0.00  0.00    +0.000 N 
ATOM     11  C   UNL     1      45.560   2.602   8.993  0.00  0.00    +0.000 A 
ATOM     12  N   UNL     1      45.716   3.732   8.288  0.00  0.00    +0.000 NA
ATOM     13  C   UNL     1      46.395   3.647   7.132  0.00  0.00    +0.000 A 
ATOM     14  C   UNL     1      46.915   2.471   6.650  0.00  0.00    +0.000 A 
ATOM     15  C   UNL     1      46.694   1.372   7.437  0.00  0.00    +0.000 A 
ATOM     16  N   UNL     1      46.018   1.406   8.598  0.00  0.00    +0.000 NA
ATOM     17  H   UNL     1      44.628   1.648  10.379  0.00  0.00    +0.000 HD
ENDBRANCH   9  10
ENDBRANCH   8   9
ENDBRANCH   5   8
ENDBRANCH   1   2
BRANCH   1  20
ATOM     18  O   UNL     1      49.265   9.489  13.694  0.00  0.00    +0.000 OA
ATOM     19  C   UNL     1      48.694   9.129  14.716  0.00  0.00    +0.000 C 
ATOM     20  N   UNL     1      47.490   8.459  14.750  0.00  0.00    +0.000 N 
ATOM     21  H   UNL     1      47.213   8.054  15.629  0.00  0.00    +0.000 HD
BRANCH  19  22
ATOM     22  C   UNL     1      49.306   9.188  16.044  0.00  0.00    +0.000 A 
ATOM     23  C   UNL     1      49.261  10.306  16.860  0.00  0.00    +0.000 A 
ATOM     24  S   UNL     1      50.489  10.262  18.064  0.00  0.00    +0.000 S 
ATOM     25  C   UNL     1      51.020   8.726  17.546  0.00  0.00    +0.000 A 
ATOM     26  N   UNL     1      52.175   8.155  17.983  0.00  0.00    +0.000 NA
ATOM     27  C   UNL     1      52.416   6.990  17.472  0.00  0.00    +0.000 A 
ATOM     28  N   UNL     1      51.575   6.306  16.626  0.00  0.00    +0.000 N 
ATOM     29  C   UNL     1      50.362   6.812  16.231  0.00  0.00    +0.000 A 
ATOM     30  O   UNL     1      49.557   6.140  15.601  0.00  0.00    +0.000 OA
ATOM     31  C   UNL     1      50.153   8.189  16.622  0.00  0.00    +0.000 A 
ATOM     32  H   UNL     1      51.773   5.360  16.345  0.00  0.00    +0.000 HD
ENDBRANCH  19  22
ENDBRANCH   1  20
TORSDOF 6
ENDMDL
