MODEL 1
REMARK VINA RESULT:    -8.249      0.000      0.000
REMARK INTER + INTRA:         -13.428
REMARK INTER:                 -12.107
REMARK INTRA:                  -1.321
REMARK UNBOUND:                -1.321
REMARK  Name = 
REMARK  9 active torsions:
REMARK  status: ('A' for Active; 'I' for Inactive)
REMARK    1  A    between atoms: C_1  and  O_2
REMARK    2  A    between atoms: O_2  and  C_3
REMARK    3  A    between atoms: C_10  and  C_11
REMARK    4  A    between atoms: N_13  and  C_14
REMARK    5  A    between atoms: C_14  and  C_15
REMARK    6  A    between atoms: C_18  and  N_19
REMARK    7  A    between atoms: N_19  and  C_20
REMARK    8  A    between atoms: C_20  and  C_21
REMARK    9  A    between atoms: C_21  and  C_22
REMARK                            x       y       z     vdW  Elec       q    Type
REMARK                         _______ _______ _______ _____ _____    ______ ____
ROOT
ATOM      1  C   UNL     1      46.837   7.902  12.959  0.00  0.00    +0.000 A 
ATOM      2  C   UNL     1      47.391   6.940  12.108  0.00  0.00    +0.000 A 
ATOM      3  C   UNL     1      46.586   6.262  11.188  0.00  0.00    +0.000 A 
ATOM      4  C   UNL     1      45.211   6.500  11.124  0.00  0.00    +0.000 A 
ATOM      5  C   UNL     1      44.691   7.557  11.876  0.00  0.00    +0.000 A 
ATOM      6  C   UNL     1      45.490   8.245  12.794  0.00  0.00    +0.000 A 
ENDROOT
BRANCH   4   7
ATOM      7  N   UNL     1      44.332   5.776  10.303  0.00  0.00    +0.000 N 
ATOM      8  H   UNL     1      44.088   6.340   9.488  0.00  0.00    +0.000 HD
BRANCH   7   9
ATOM      9  C   UNL     1      44.725   4.413   9.919  0.00  0.00    +0.000 C 
BRANCH   9  10
ATOM     10  C   UNL     1      44.675   4.211   8.394  0.00  0.00    +0.000 C 
BRANCH  10  11
ATOM     11  C   UNL     1      45.717   3.228   7.911  0.00  0.00    +0.000 A 
ATOM     12  C   UNL     1      46.785   3.707   7.134  0.00  0.00    +0.000 A 
ATOM     13  C   UNL     1      47.788   2.846   6.689  0.00  0.00    +0.000 A 
ATOM     14  C   UNL     1      47.745   1.493   7.015  0.00  0.00    +0.000 A 
ATOM     15  C   UNL     1      46.688   0.999   7.777  0.00  0.00    +0.000 A 
ATOM     16  C   UNL     1      45.679   1.858   8.224  0.00  0.00    +0.000 A 
ATOM     17 CL   UNL     1      44.406   1.163   9.161  0.00  0.00    +0.000 Cl
ENDBRANCH  10  11
ENDBRANCH   9  10
ENDBRANCH   7   9
ENDBRANCH   4   7
BRANCH   1  18
ATOM     18  C   UNL     1      47.682   8.570  14.011  0.00  0.00    +0.000 C 
BRANCH  18  21
ATOM     19  C   UNL     1      49.128   6.996  15.226  0.00  0.00    +0.000 C 
ATOM     20  O   UNL     1      50.024   7.126  14.394  0.00  0.00    +0.000 OA
ATOM     21  N   UNL     1      47.949   7.675  15.106  0.00  0.00    +0.000 N 
ATOM     22  H   UNL     1      47.208   7.531  15.776  0.00  0.00    +0.000 HD
BRANCH  19  30
ATOM     23  C   UNL     1      47.371   4.271  16.370  0.00  0.00    +0.000 A 
ATOM     24  N   UNL     1      46.890   3.192  17.019  0.00  0.00    +0.000 NA
ATOM     25  C   UNL     1      47.517   2.800  18.132  0.00  0.00    +0.000 A 
ATOM     26  N   UNL     1      48.584   3.361  18.690  0.00  0.00    +0.000 NA
ATOM     27  C   UNL     1      49.037   4.426  18.006  0.00  0.00    +0.000 A 
ATOM     28  S   UNL     1      50.393   5.274  18.578  0.00  0.00    +0.000 S 
ATOM     29  C   UNL     1      50.322   6.364  17.278  0.00  0.00    +0.000 A 
ATOM     30  C   UNL     1      49.283   6.112  16.390  0.00  0.00    +0.000 A 
ATOM     31  C   UNL     1      48.509   4.957  16.834  0.00  0.00    +0.000 A 
BRANCH  23  33
ATOM     32  C   UNL     1      47.032   3.822  14.096  0.00  0.00    +0.000 C 
ATOM     33  O   UNL     1      46.739   4.663  15.209  0.00  0.00    +0.000 OA
ENDBRANCH  23  33
ENDBRANCH  19  30
ENDBRANCH  18  21
ENDBRANCH   1  18
TORSDOF 8
ENDMDL
MODEL 2
REMARK VINA RESULT:    -8.089      1.699      2.282
REMARK INTER + INTRA:         -13.193
REMARK INTER:                 -11.880
REMARK INTRA:                  -1.313
REMARK UNBOUND:                -1.321
REMARK  Name = 
REMARK  9 active torsions:
REMARK  status: ('A' for Active; 'I' for Inactive)
REMARK    1  A    between atoms: C_1  and  O_2
REMARK    2  A    between atoms: O_2  and  C_3
REMARK    3  A    between atoms: C_10  and  C_11
REMARK    4  A    between atoms: N_13  and  C_14
REMARK    5  A    between atoms: C_14  and  C_15
REMARK    6  A    between atoms: C_18  and  N_19
REMARK    7  A    between atoms: N_19  and  C_20
REMARK    8  A    between atoms: C_20  and  C_21
REMARK    9  A    between atoms: C_21  and  C_22
REMARK                            x       y       z     vdW  Elec       q    Type
REMARK                         _______ _______ _______ _____ _____    ______ ____
ROOT
ATOM      1  C   UNL     1      46.887   6.032  12.727  0.00  0.00    +0.000 A 
ATOM      2  C   UNL     1      46.222   6.227  11.512  0.00  0.00    +0.000 A 
ATOM      3  C   UNL     1      45.344   5.255  11.023  0.00  0.00    +0.000 A 
ATOM      4  C   UNL     1      45.141   4.057  11.711  0.00  0.00    +0.000 A 
ATOM      5  C   UNL     1      45.698   3.930  12.987  0.00  0.00    +0.000 A 
ATOM      6  C   UNL     1      46.572   4.900  13.488  0.00  0.00    +0.000 A 
ENDROOT
BRANCH   4   7
ATOM      7  N   UNL     1      44.361   2.997  11.221  0.00  0.00    +0.000 N 
ATOM      8  H   UNL     1      43.469   2.976  11.715  0.00  0.00    +0.000 HD
BRANCH   7   9
ATOM      9  C   UNL     1      44.177   2.905   9.766  0.00  0.00    +0.000 C 
BRANCH   9  10
ATOM     10  C   UNL     1      44.949   1.716   9.166  0.00  0.00    +0.000 C 
BRANCH  10  11
ATOM     11  C   UNL     1      45.910   2.145   8.081  0.00  0.00    +0.000 A 
ATOM     12  C   UNL     1      46.014   3.512   7.776  0.00  0.00    +0.000 A 
ATOM     13  C   UNL     1      46.908   3.962   6.803  0.00  0.00    +0.000 A 
ATOM     14  C   UNL     1      47.716   3.055   6.122  0.00  0.00    +0.000 A 
ATOM     15  C   UNL     1      47.619   1.695   6.406  0.00  0.00    +0.000 A 
ATOM     16  C   UNL     1      46.724   1.239   7.378  0.00  0.00    +0.000 A 
ATOM     17 CL   UNL     1      46.666  -0.463   7.665  0.00  0.00    +0.000 Cl
ENDBRANCH  10  11
ENDBRANCH   9  10
ENDBRANCH   7   9
ENDBRANCH   4   7
BRANCH   1  18
ATOM     18  C   UNL     1      47.899   7.034  13.214  0.00  0.00    +0.000 C 
BRANCH  18  21
ATOM     19  C   UNL     1      49.082   7.047  15.368  0.00  0.00    +0.000 C 
ATOM     20  O   UNL     1      50.172   6.957  14.807  0.00  0.00    +0.000 OA
ATOM     21  N   UNL     1      47.920   7.092  14.651  0.00  0.00    +0.000 N 
ATOM     22  H   UNL     1      47.031   7.128  15.126  0.00  0.00    +0.000 HD
BRANCH  19  30
ATOM     23  C   UNL     1      48.897   4.659  17.835  0.00  0.00    +0.000 A 
ATOM     24  N   UNL     1      48.833   3.950  18.980  0.00  0.00    +0.000 NA
ATOM     25  C   UNL     1      48.757   4.626  20.130  0.00  0.00    +0.000 A 
ATOM     26  N   UNL     1      48.737   5.945  20.285  0.00  0.00    +0.000 NA
ATOM     27  C   UNL     1      48.813   6.612  19.121  0.00  0.00    +0.000 A 
ATOM     28  S   UNL     1      48.794   8.310  19.126  0.00  0.00    +0.000 S 
ATOM     29  C   UNL     1      48.915   8.367  17.433  0.00  0.00    +0.000 A 
ATOM     30  C   UNL     1      48.975   7.115  16.833  0.00  0.00    +0.000 A 
ATOM     31  C   UNL     1      48.904   6.066  17.844  0.00  0.00    +0.000 A 
BRANCH  23  33
ATOM     32  C   UNL     1      47.954   3.012  16.462  0.00  0.00    +0.000 C 
ATOM     33  O   UNL     1      48.998   3.963  16.649  0.00  0.00    +0.000 OA
ENDBRANCH  23  33
ENDBRANCH  19  30
ENDBRANCH  18  21
ENDBRANCH   1  18
TORSDOF 8
ENDMDL
MODEL 3
REMARK VINA RESULT:    -7.391      1.857      2.618
REMARK INTER + INTRA:         -12.169
REMARK INTER:                 -10.772
REMARK INTRA:                  -1.396
REMARK UNBOUND:                -1.321
REMARK  Name = 
REMARK  9 active torsions:
REMARK  status: ('A' for Active; 'I' for Inactive)
REMARK    1  A    between atoms: C_1  and  O_2
REMARK    2  A    between atoms: O_2  and  C_3
REMARK    3  A    between atoms: C_10  and  C_11
REMARK    4  A    between atoms: N_13  and  C_14
REMARK    5  A    between atoms: C_14  and  C_15
REMARK    6  A    between atoms: C_18  and  N_19
REMARK    7  A    between atoms: N_19  and  C_20
REMARK    8  A    between atoms: C_20  and  C_21
REMARK    9  A    between atoms: C_21  and  C_22
REMARK                            x       y       z     vdW  Elec       q    Type
REMARK                         _______ _______ _______ _____ _____    ______ ____
ROOT
ATOM      1  C   UNL     1      45.324   7.090  12.355  0.00  0.00    +0.000 A 
ATOM      2  C   UNL     1      44.321   6.350  12.988  0.00  0.00    +0.000 A 
ATOM      3  C   UNL     1      43.866   5.152  12.429  0.00  0.00    +0.000 A 
ATOM      4  C   UNL     1      44.372   4.688  11.213  0.00  0.00    +0.000 A 
ATOM      5  C   UNL     1      45.468   5.357  10.660  0.00  0.00    +0.000 A 
ATOM      6  C   UNL     1      45.934   6.553  11.216  0.00  0.00    +0.000 A 
ENDROOT
BRANCH   4   7
ATOM      7  N   UNL     1      43.882   3.555  10.545  0.00  0.00    +0.000 N 
ATOM      8  H   UNL     1      43.436   3.841   9.674  0.00  0.00    +0.000 HD
BRANCH   7   9
ATOM      9  C   UNL     1      44.811   2.435  10.334  0.00  0.00    +0.000 C 
BRANCH   9  10
ATOM     10  C   UNL     1      44.681   1.843   8.919  0.00  0.00    +0.000 C 
BRANCH  10  11
ATOM     11  C   UNL     1      45.837   2.233   8.026  0.00  0.00    +0.000 A 
ATOM     12  C   UNL     1      46.034   3.594   7.736  0.00  0.00    +0.000 A 
ATOM     13  C   UNL     1      47.103   4.008   6.940  0.00  0.00    +0.000 A 
ATOM     14  C   UNL     1      47.996   3.072   6.426  0.00  0.00    +0.000 A 
ATOM     15  C   UNL     1      47.811   1.718   6.696  0.00  0.00    +0.000 A 
ATOM     16  C   UNL     1      46.740   1.298   7.491  0.00  0.00    +0.000 A 
ATOM     17 CL   UNL     1      46.583  -0.399   7.775  0.00  0.00    +0.000 Cl
ENDBRANCH  10  11
ENDBRANCH   9  10
ENDBRANCH   7   9
ENDBRANCH   4   7
BRANCH   1  18
ATOM     18  C   UNL     1      45.754   8.424  12.906  0.00  0.00    +0.000 C 
BRANCH  18  21
ATOM     19  C   UNL     1      47.936   8.858  13.951  0.00  0.00    +0.000 C 
ATOM     20  O   UNL     1      48.281   9.571  13.012  0.00  0.00    +0.000 OA
ATOM     21  N   UNL     1      46.707   8.261  13.971  0.00  0.00    +0.000 N 
ATOM     22  H   UNL     1      46.451   7.648  14.731  0.00  0.00    +0.000 HD
BRANCH  19  30
ATOM     23  C   UNL     1      48.708   6.057  15.789  0.00  0.00    +0.000 A 
ATOM     24  N   UNL     1      49.197   5.135  16.644  0.00  0.00    +0.000 NA
ATOM     25  C   UNL     1      50.077   5.540  17.565  0.00  0.00    +0.000 A 
ATOM     26  N   UNL     1      50.540   6.772  17.743  0.00  0.00    +0.000 NA
ATOM     27  C   UNL     1      50.036   7.656  16.865  0.00  0.00    +0.000 A 
ATOM     28  S   UNL     1      50.511   9.285  16.949  0.00  0.00    +0.000 S 
ATOM     29  C   UNL     1      49.524   9.693  15.629  0.00  0.00    +0.000 A 
ATOM     30  C   UNL     1      48.822   8.617  15.099  0.00  0.00    +0.000 A 
ATOM     31  C   UNL     1      49.123   7.401  15.847  0.00  0.00    +0.000 A 
BRANCH  23  33
ATOM     32  C   UNL     1      47.138   4.433  15.172  0.00  0.00    +0.000 C 
ATOM     33  O   UNL     1      47.818   5.636  14.825  0.00  0.00    +0.000 OA
ENDBRANCH  23  33
ENDBRANCH  19  30
ENDBRANCH  18  21
ENDBRANCH   1  18
TORSDOF 8
ENDMDL
MODEL 4
REMARK VINA RESULT:    -7.072      2.609      3.464
REMARK INTER + INTRA:         -11.700
REMARK INTER:                 -10.548
REMARK INTRA:                  -1.151
REMARK UNBOUND:                -1.321
REMARK  Name = 
REMARK  9 active torsions:
REMARK  status: ('A' for Active; 'I' for Inactive)
REMARK    1  A    between atoms: C_1  and  O_2
REMARK    2  A    between atoms: O_2  and  C_3
REMARK    3  A    between atoms: C_10  and  C_11
REMARK    4  A    between atoms: N_13  and  C_14
REMARK    5  A    between atoms: C_14  and  C_15
REMARK    6  A    between atoms: C_18  and  N_19
REMARK    7  A    between atoms: N_19  and  C_20
REMARK    8  A    between atoms: C_20  and  C_21
REMARK    9  A    between atoms: C_21  and  C_22
REMARK                            x       y       z     vdW  Elec       q    Type
REMARK                         _______ _______ _______ _____ _____    ______ ____
ROOT
ATOM      1  C   UNL     1      47.142   4.910  14.189  0.00  0.00    +0.000 A 
ATOM      2  C   UNL     1      46.191   4.032  13.662  0.00  0.00    +0.000 A 
ATOM      3  C   UNL     1      45.567   4.314  12.442  0.00  0.00    +0.000 A 
ATOM      4  C   UNL     1      45.850   5.491  11.745  0.00  0.00    +0.000 A 
ATOM      5  C   UNL     1      46.899   6.291  12.206  0.00  0.00    +0.000 A 
ATOM      6  C   UNL     1      47.533   6.013  13.422  0.00  0.00    +0.000 A 
ENDROOT
BRANCH   4   7
ATOM      7  N   UNL     1      45.180   5.886  10.576  0.00  0.00    +0.000 N 
ATOM      8  H   UNL     1      44.976   6.884  10.624  0.00  0.00    +0.000 HD
BRANCH   7   9
ATOM      9  C   UNL     1      45.786   5.518   9.289  0.00  0.00    +0.000 C 
BRANCH   9  10
ATOM     10  C   UNL     1      44.971   4.433   8.562  0.00  0.00    +0.000 C 
BRANCH  10  11
ATOM     11  C   UNL     1      45.846   3.324   8.022  0.00  0.00    +0.000 A 
ATOM     12  C   UNL     1      46.912   3.661   7.172  0.00  0.00    +0.000 A 
ATOM     13  C   UNL     1      47.766   2.678   6.671  0.00  0.00    +0.000 A 
ATOM     14  C   UNL     1      47.573   1.342   7.015  0.00  0.00    +0.000 A 
ATOM     15  C   UNL     1      46.515   0.989   7.850  0.00  0.00    +0.000 A 
ATOM     16  C   UNL     1      45.656   1.971   8.353  0.00  0.00    +0.000 A 
ATOM     17 CL   UNL     1      44.370   1.446   9.379  0.00  0.00    +0.000 Cl
ENDBRANCH  10  11
ENDBRANCH   9  10
ENDBRANCH   7   9
ENDBRANCH   4   7
BRANCH   1  18
ATOM     18  C   UNL     1      47.750   4.655  15.542  0.00  0.00    +0.000 C 
BRANCH  18  21
ATOM     19  C   UNL     1      48.967   6.569  16.492  0.00  0.00    +0.000 C 
ATOM     20  O   UNL     1      50.020   6.196  15.979  0.00  0.00    +0.000 OA
ATOM     21  N   UNL     1      47.809   5.864  16.319  0.00  0.00    +0.000 N 
ATOM     22  H   UNL     1      46.960   6.162  16.777  0.00  0.00    +0.000 HD
BRANCH  19  30
ATOM     23  C   UNL     1      47.914   7.209  19.701  0.00  0.00    +0.000 A 
ATOM     24  N   UNL     1      47.595   7.728  20.904  0.00  0.00    +0.000 NA
ATOM     25  C   UNL     1      47.781   9.038  21.090  0.00  0.00    +0.000 A 
ATOM     26  N   UNL     1      48.257   9.912  20.210  0.00  0.00    +0.000 NA
ATOM     27  C   UNL     1      48.571   9.352  19.029  0.00  0.00    +0.000 A 
ATOM     28  S   UNL     1      49.188  10.323  17.780  0.00  0.00    +0.000 S 
ATOM     29  C   UNL     1      49.314   8.988  16.737  0.00  0.00    +0.000 A 
ATOM     30  C   UNL     1      48.900   7.791  17.307  0.00  0.00    +0.000 A 
ATOM     31  C   UNL     1      48.446   8.013  18.676  0.00  0.00    +0.000 A 
BRANCH  23  33
ATOM     32  C   UNL     1      48.297   5.067  20.565  0.00  0.00    +0.000 C 
ATOM     33  O   UNL     1      47.742   5.854  19.515  0.00  0.00    +0.000 OA
ENDBRANCH  23  33
ENDBRANCH  19  30
ENDBRANCH  18  21
ENDBRANCH   1  18
TORSDOF 8
ENDMDL
MODEL 5
REMARK VINA RESULT:    -6.988      2.000      3.480
REMARK INTER + INTRA:         -11.577
REMARK INTER:                 -10.470
REMARK INTRA:                  -1.107
REMARK UNBOUND:                -1.321
REMARK  Name = 
REMARK  9 active torsions:
REMARK  status: ('A' for Active; 'I' for Inactive)
REMARK    1  A    between atoms: C_1  and  O_2
REMARK    2  A    between atoms: O_2  and  C_3
REMARK    3  A    between atoms: C_10  and  C_11
REMARK    4  A    between atoms: N_13  and  C_14
REMARK    5  A    between atoms: C_14  and  C_15
REMARK    6  A    between atoms: C_18  and  N_19
REMARK    7  A    between atoms: N_19  and  C_20
REMARK    8  A    between atoms: C_20  and  C_21
REMARK    9  A    between atoms: C_21  and  C_22
REMARK                            x       y       z     vdW  Elec       q    Type
REMARK                         _______ _______ _______ _____ _____    ______ ____
ROOT
ATOM      1  C   UNL     1      46.754   4.358  13.995  0.00  0.00    +0.000 A 
ATOM      2  C   UNL     1      46.798   5.682  13.547  0.00  0.00    +0.000 A 
ATOM      3  C   UNL     1      46.217   6.035  12.326  0.00  0.00    +0.000 A 
ATOM      4  C   UNL     1      45.617   5.073  11.510  0.00  0.00    +0.000 A 
ATOM      5  C   UNL     1      45.454   3.784  12.026  0.00  0.00    +0.000 A 
ATOM      6  C   UNL     1      46.026   3.423  13.250  0.00  0.00    +0.000 A 
ENDROOT
BRANCH   4   7
ATOM      7  N   UNL     1      45.115   5.340  10.227  0.00  0.00    +0.000 N 
ATOM      8  H   UNL     1      45.887   5.580   9.604  0.00  0.00    +0.000 HD
BRANCH   7   9
ATOM      9  C   UNL     1      44.223   4.340   9.623  0.00  0.00    +0.000 C 
BRANCH   9  10
ATOM     10  C   UNL     1      44.445   4.219   8.104  0.00  0.00    +0.000 C 
BRANCH  10  11
ATOM     11  C   UNL     1      45.534   3.228   7.761  0.00  0.00    +0.000 A 
ATOM     12  C   UNL     1      46.599   3.653   6.948  0.00  0.00    +0.000 A 
ATOM     13  C   UNL     1      47.644   2.785   6.627  0.00  0.00    +0.000 A 
ATOM     14  C   UNL     1      47.646   1.482   7.116  0.00  0.00    +0.000 A 
ATOM     15  C   UNL     1      46.594   1.041   7.916  0.00  0.00    +0.000 A 
ATOM     16  C   UNL     1      45.544   1.906   8.239  0.00  0.00    +0.000 A 
ATOM     17 CL   UNL     1      44.280   1.278   9.235  0.00  0.00    +0.000 Cl
ENDBRANCH  10  11
ENDBRANCH   9  10
ENDBRANCH   7   9
ENDBRANCH   4   7
BRANCH   1  18
ATOM     18  C   UNL     1      47.454   3.958  15.266  0.00  0.00    +0.000 C 
BRANCH  18  21
ATOM     19  C   UNL     1      48.633   5.267  16.981  0.00  0.00    +0.000 C 
ATOM     20  O   UNL     1      49.594   4.501  16.951  0.00  0.00    +0.000 OA
ATOM     21  N   UNL     1      47.545   5.066  16.179  0.00  0.00    +0.000 N 
ATOM     22  H   UNL     1      46.748   5.682  16.240  0.00  0.00    +0.000 HD
BRANCH  19  30
ATOM     23  C   UNL     1      48.561   8.658  16.420  0.00  0.00    +0.000 A 
ATOM     24  N   UNL     1      48.511  10.004  16.488  0.00  0.00    +0.000 NA
ATOM     25  C   UNL     1      48.494  10.569  17.700  0.00  0.00    +0.000 A 
ATOM     26  N   UNL     1      48.520   9.948  18.874  0.00  0.00    +0.000 NA
ATOM     27  C   UNL     1      48.559   8.609  18.760  0.00  0.00    +0.000 A 
ATOM     28  S   UNL     1      48.603   7.651  20.162  0.00  0.00    +0.000 S 
ATOM     29  C   UNL     1      48.634   6.222  19.244  0.00  0.00    +0.000 A 
ATOM     30  C   UNL     1      48.609   6.437  17.871  0.00  0.00    +0.000 A 
ATOM     31  C   UNL     1      48.574   7.867  17.584  0.00  0.00    +0.000 A 
BRANCH  23  33
ATOM     32  C   UNL     1      49.862   7.886  14.633  0.00  0.00    +0.000 C 
ATOM     33  O   UNL     1      48.556   8.074  15.172  0.00  0.00    +0.000 OA
ENDBRANCH  23  33
ENDBRANCH  19  30
ENDBRANCH  18  21
ENDBRANCH   1  18
TORSDOF 8
ENDMDL
MODEL 6
REMARK VINA RESULT:    -6.885      3.847      7.760
REMARK INTER + INTRA:         -11.425
REMARK INTER:                  -9.576
REMARK INTRA:                  -1.849
REMARK UNBOUND:                -1.321
REMARK  Name = 
REMARK  9 active torsions:
REMARK  status: ('A' for Active; 'I' for Inactive)
REMARK    1  A    between atoms: C_1  and  O_2
REMARK    2  A    between atoms: O_2  and  C_3
REMARK    3  A    between atoms: C_10  and  C_11
REMARK    4  A    between atoms: N_13  and  C_14
REMARK    5  A    between atoms: C_14  and  C_15
REMARK    6  A    between atoms: C_18  and  N_19
REMARK    7  A    between atoms: N_19  and  C_20
REMARK    8  A    between atoms: C_20  and  C_21
REMARK    9  A    between atoms: C_21  and  C_22
REMARK                            x       y       z     vdW  Elec       q    Type
REMARK                         _______ _______ _______ _____ _____    ______ ____
ROOT
ATOM      1  C   UNL     1      48.464   7.934  13.398  0.00  0.00    +0.000 A 
ATOM      2  C   UNL     1      48.989   6.779  13.985  0.00  0.00    +0.000 A 
ATOM      3  C   UNL     1      49.177   6.711  15.369  0.00  0.00    +0.000 A 
ATOM      4  C   UNL     1      48.883   7.803  16.189  0.00  0.00    +0.000 A 
ATOM      5  C   UNL     1      48.230   8.898  15.615  0.00  0.00    +0.000 A 
ATOM      6  C   UNL     1      48.032   8.971  14.233  0.00  0.00    +0.000 A 
ENDROOT
BRANCH   4   7
ATOM      7  N   UNL     1      49.151   7.840  17.566  0.00  0.00    +0.000 N 
ATOM      8  H   UNL     1      48.306   7.599  18.083  0.00  0.00    +0.000 HD
BRANCH   7   9
ATOM      9  C   UNL     1      50.315   7.085  18.053  0.00  0.00    +0.000 C 
BRANCH   9  10
ATOM     10  C   UNL     1      49.900   5.935  18.989  0.00  0.00    +0.000 C 
BRANCH  10  11
ATOM     11  C   UNL     1      49.376   4.738  18.229  0.00  0.00    +0.000 A 
ATOM     12  C   UNL     1      50.299   3.828  17.686  0.00  0.00    +0.000 A 
ATOM     13  C   UNL     1      49.865   2.692  17.001  0.00  0.00    +0.000 A 
ATOM     14  C   UNL     1      48.504   2.443  16.852  0.00  0.00    +0.000 A 
ATOM     15  C   UNL     1      47.575   3.338  17.376  0.00  0.00    +0.000 A 
ATOM     16  C   UNL     1      48.004   4.479  18.061  0.00  0.00    +0.000 A 
ATOM     17 CL   UNL     1      46.786   5.537  18.678  0.00  0.00    +0.000 Cl
ENDBRANCH  10  11
ENDBRANCH   9  10
ENDBRANCH   7   9
ENDBRANCH   4   7
BRANCH   1  18
ATOM     18  C   UNL     1      48.343   8.044  11.902  0.00  0.00    +0.000 C 
BRANCH  18  21
ATOM     19  C   UNL     1      46.252   6.886  11.326  0.00  0.00    +0.000 C 
ATOM     20  O   UNL     1      45.578   7.816  11.763  0.00  0.00    +0.000 OA
ATOM     21  N   UNL     1      47.618   6.928  11.358  0.00  0.00    +0.000 N 
ATOM     22  H   UNL     1      48.158   6.141  11.029  0.00  0.00    +0.000 HD
BRANCH  19  30
ATOM     23  C   UNL     1      44.502   4.248  12.666  0.00  0.00    +0.000 A 
ATOM     24  N   UNL     1      43.783   3.135  12.916  0.00  0.00    +0.000 NA
ATOM     25  C   UNL     1      43.458   2.355  11.880  0.00  0.00    +0.000 A 
ATOM     26  N   UNL     1      43.766   2.550  10.603  0.00  0.00    +0.000 NA
ATOM     27  C   UNL     1      44.473   3.674  10.398  0.00  0.00    +0.000 A 
ATOM     28  S   UNL     1      44.961   4.081   8.822  0.00  0.00    +0.000 S 
ATOM     29  C   UNL     1      45.725   5.495   9.371  0.00  0.00    +0.000 A 
ATOM     30  C   UNL     1      45.626   5.691  10.743  0.00  0.00    +0.000 A 
ATOM     31  C   UNL     1      44.885   4.594  11.357  0.00  0.00    +0.000 A 
BRANCH  23  33
ATOM     32  C   UNL     1      46.104   4.797  14.284  0.00  0.00    +0.000 C 
ATOM     33  O   UNL     1      44.819   5.065  13.730  0.00  0.00    +0.000 OA
ENDBRANCH  23  33
ENDBRANCH  19  30
ENDBRANCH  18  21
ENDBRANCH   1  18
TORSDOF 8
ENDMDL
MODEL 7
REMARK VINA RESULT:    -6.852      4.171      8.743
REMARK INTER + INTRA:         -11.377
REMARK INTER:                  -9.244
REMARK INTRA:                  -2.133
REMARK UNBOUND:                -1.321
REMARK  Name = 
REMARK  9 active torsions:
REMARK  status: ('A' for Active; 'I' for Inactive)
REMARK    1  A    between atoms: C_1  and  O_2
REMARK    2  A    between atoms: O_2  and  C_3
REMARK    3  A    between atoms: C_10  and  C_11
REMARK    4  A    between atoms: N_13  and  C_14
REMARK    5  A    between atoms: C_14  and  C_15
REMARK    6  A    between atoms: C_18  and  N_19
REMARK    7  A    between atoms: N_19  and  C_20
REMARK    8  A    between atoms: C_20  and  C_21
REMARK    9  A    between atoms: C_21  and  C_22
REMARK                            x       y       z     vdW  Elec       q    Type
REMARK                         _______ _______ _______ _____ _____    ______ ____
ROOT
ATOM      1  C   UNL     1      47.866   4.202  17.832  0.00  0.00    +0.000 A 
ATOM      2  C   UNL     1      49.132   3.857  18.314  0.00  0.00    +0.000 A 
ATOM      3  C   UNL     1      49.684   4.538  19.403  0.00  0.00    +0.000 A 
ATOM      4  C   UNL     1      49.006   5.598  20.008  0.00  0.00    +0.000 A 
ATOM      5  C   UNL     1      47.687   5.844  19.613  0.00  0.00    +0.000 A 
ATOM      6  C   UNL     1      47.124   5.163  18.528  0.00  0.00    +0.000 A 
ENDROOT
BRANCH   4   7
ATOM      7  N   UNL     1      49.549   6.392  21.030  0.00  0.00    +0.000 N 
ATOM      8  H   UNL     1      49.683   5.823  21.866  0.00  0.00    +0.000 HD
BRANCH   7   9
ATOM      9  C   UNL     1      50.750   7.179  20.713  0.00  0.00    +0.000 C 
BRANCH   9  10
ATOM     10  C   UNL     1      50.428   8.364  19.785  0.00  0.00    +0.000 C 
BRANCH  10  11
ATOM     11  C   UNL     1      50.351   7.951  18.333  0.00  0.00    +0.000 A 
ATOM     12  C   UNL     1      51.423   7.231  17.780  0.00  0.00    +0.000 A 
ATOM     13  C   UNL     1      51.387   6.801  16.453  0.00  0.00    +0.000 A 
ATOM     14  C   UNL     1      50.278   7.079  15.658  0.00  0.00    +0.000 A 
ATOM     15  C   UNL     1      49.211   7.800  16.187  0.00  0.00    +0.000 A 
ATOM     16  C   UNL     1      49.242   8.234  17.516  0.00  0.00    +0.000 A 
ATOM     17 CL   UNL     1      47.878   9.123  18.090  0.00  0.00    +0.000 Cl
ENDBRANCH  10  11
ENDBRANCH   9  10
ENDBRANCH   7   9
ENDBRANCH   4   7
BRANCH   1  18
ATOM     18  C   UNL     1      47.305   3.532  16.606  0.00  0.00    +0.000 C 
BRANCH  18  21
ATOM     19  C   UNL     1      46.812   4.281  14.317  0.00  0.00    +0.000 C 
ATOM     20  O   UNL     1      47.235   3.228  13.846  0.00  0.00    +0.000 OA
ATOM     21  N   UNL     1      46.813   4.502  15.666  0.00  0.00    +0.000 N 
ATOM     22  H   UNL     1      46.496   5.387  16.036  0.00  0.00    +0.000 HD
BRANCH  19  30
ATOM     23  C   UNL     1      43.880   4.659  12.564  0.00  0.00    +0.000 A 
ATOM     24  N   UNL     1      42.835   5.069  11.816  0.00  0.00    +0.000 NA
ATOM     25  C   UNL     1      42.922   6.263  11.221  0.00  0.00    +0.000 A 
ATOM     26  N   UNL     1      43.939   7.116  11.281  0.00  0.00    +0.000 NA
ATOM     27  C   UNL     1      44.953   6.673  12.044  0.00  0.00    +0.000 A 
ATOM     28  S   UNL     1      46.343   7.631  12.229  0.00  0.00    +0.000 S 
ATOM     29  C   UNL     1      47.068   6.473  13.238  0.00  0.00    +0.000 A 
ATOM     30  C   UNL     1      46.281   5.349  13.457  0.00  0.00    +0.000 A 
ATOM     31  C   UNL     1      45.020   5.466  12.733  0.00  0.00    +0.000 A 
BRANCH  23  33
ATOM     32  C   UNL     1      43.549   2.356  12.297  0.00  0.00    +0.000 C 
ATOM     33  O   UNL     1      43.782   3.437  13.195  0.00  0.00    +0.000 OA
ENDBRANCH  23  33
ENDBRANCH  19  30
ENDBRANCH  18  21
ENDBRANCH   1  18
TORSDOF 8
ENDMDL
MODEL 8
REMARK VINA RESULT:    -6.619      4.019      8.002
REMARK INTER + INTRA:         -11.036
REMARK INTER:                  -8.826
REMARK INTRA:                  -2.210
REMARK UNBOUND:                -1.321
REMARK  Name = 
REMARK  9 active torsions:
REMARK  status: ('A' for Active; 'I' for Inactive)
REMARK    1  A    between atoms: C_1  and  O_2
REMARK    2  A    between atoms: O_2  and  C_3
REMARK    3  A    between atoms: C_10  and  C_11
REMARK    4  A    between atoms: N_13  and  C_14
REMARK    5  A    between atoms: C_14  and  C_15
REMARK    6  A    between atoms: C_18  and  N_19
REMARK    7  A    between atoms: N_19  and  C_20
REMARK    8  A    between atoms: C_20  and  C_21
REMARK    9  A    between atoms: C_21  and  C_22
REMARK                            x       y       z     vdW  Elec       q    Type
REMARK                         _______ _______ _______ _____ _____    ______ ____
ROOT
ATOM      1  C   UNL     1      48.915   8.387  15.625  0.00  0.00    +0.000 A 
ATOM      2  C   UNL     1      48.299   8.921  16.761  0.00  0.00    +0.000 A 
ATOM      3  C   UNL     1      48.767   8.597  18.038  0.00  0.00    +0.000 A 
ATOM      4  C   UNL     1      49.830   7.709  18.210  0.00  0.00    +0.000 A 
ATOM      5  C   UNL     1      50.528   7.292  17.073  0.00  0.00    +0.000 A 
ATOM      6  C   UNL     1      50.071   7.616  15.791  0.00  0.00    +0.000 A 
ENDROOT
BRANCH   4   7
ATOM      7  N   UNL     1      50.276   7.258  19.463  0.00  0.00    +0.000 N 
ATOM      8  H   UNL     1      49.565   7.456  20.167  0.00  0.00    +0.000 HD
BRANCH   7   9
ATOM      9  C   UNL     1      50.756   5.871  19.555  0.00  0.00    +0.000 C 
BRANCH   9  10
ATOM     10  C   UNL     1      49.619   4.894  19.905  0.00  0.00    +0.000 C 
BRANCH  10  11
ATOM     11  C   UNL     1      49.017   4.251  18.676  0.00  0.00    +0.000 A 
ATOM     12  C   UNL     1      49.746   3.247  18.017  0.00  0.00    +0.000 A 
ATOM     13  C   UNL     1      49.222   2.602  16.896  0.00  0.00    +0.000 A 
ATOM     14  C   UNL     1      47.960   2.944  16.418  0.00  0.00    +0.000 A 
ATOM     15  C   UNL     1      47.227   3.944  17.055  0.00  0.00    +0.000 A 
ATOM     16  C   UNL     1      47.749   4.594  18.177  0.00  0.00    +0.000 A 
ATOM     17 CL   UNL     1      46.775   5.822  18.903  0.00  0.00    +0.000 Cl
ENDBRANCH  10  11
ENDBRANCH   9  10
ENDBRANCH   7   9
ENDBRANCH   4   7
BRANCH   1  18
ATOM     18  C   UNL     1      48.360   8.662  14.253  0.00  0.00    +0.000 C 
BRANCH  18  21
ATOM     19  C   UNL     1      47.706   6.537  13.204  0.00  0.00    +0.000 C 
ATOM     20  O   UNL     1      48.868   6.303  12.878  0.00  0.00    +0.000 OA
ATOM     21  N   UNL     1      47.380   7.676  13.884  0.00  0.00    +0.000 N 
ATOM     22  H   UNL     1      46.417   7.873  14.114  0.00  0.00    +0.000 HD
BRANCH  19  30
ATOM     23  C   UNL     1      44.607   6.933  11.768  0.00  0.00    +0.000 A 
ATOM     24  N   UNL     1      43.380   6.800  11.227  0.00  0.00    +0.000 NA
ATOM     25  C   UNL     1      42.839   5.578  11.193  0.00  0.00    +0.000 A 
ATOM     26  N   UNL     1      43.381   4.450  11.641  0.00  0.00    +0.000 NA
ATOM     27  C   UNL     1      44.607   4.626  12.162  0.00  0.00    +0.000 A 
ATOM     28  S   UNL     1      45.449   3.291  12.790  0.00  0.00    +0.000 S 
ATOM     29  C   UNL     1      46.777   4.263  13.210  0.00  0.00    +0.000 A 
ATOM     30  C   UNL     1      46.615   5.605  12.885  0.00  0.00    +0.000 A 
ATOM     31  C   UNL     1      45.312   5.821  12.267  0.00  0.00    +0.000 A 
BRANCH  23  33
ATOM     32  C   UNL     1      44.320   9.199  11.255  0.00  0.00    +0.000 C 
ATOM     33  O   UNL     1      45.175   8.189  11.783  0.00  0.00    +0.000 OA
ENDBRANCH  23  33
ENDBRANCH  19  30
ENDBRANCH  18  21
ENDBRANCH   1  18
TORSDOF 8
ENDMDL
MODEL 9
REMARK VINA RESULT:    -6.532      5.515      7.454
REMARK INTER + INTRA:         -10.908
REMARK INTER:                  -9.505
REMARK INTRA:                  -1.403
REMARK UNBOUND:                -1.321
REMARK  Name = 
REMARK  9 active torsions:
REMARK  status: ('A' for Active; 'I' for Inactive)
REMARK    1  A    between atoms: C_1  and  O_2
REMARK    2  A    between atoms: O_2  and  C_3
REMARK    3  A    between atoms: C_10  and  C_11
REMARK    4  A    between atoms: N_13  and  C_14
REMARK    5  A    between atoms: C_14  and  C_15
REMARK    6  A    between atoms: C_18  and  N_19
REMARK    7  A    between atoms: N_19  and  C_20
REMARK    8  A    between atoms: C_20  and  C_21
REMARK    9  A    between atoms: C_21  and  C_22
REMARK                            x       y       z     vdW  Elec       q    Type
REMARK                         _______ _______ _______ _____ _____    ______ ____
ROOT
ATOM      1  C   UNL     1      50.061   7.844  12.360  0.00  0.00    +0.000 A 
ATOM      2  C   UNL     1      49.777   7.386  13.650  0.00  0.00    +0.000 A 
ATOM      3  C   UNL     1      48.481   6.984  13.988  0.00  0.00    +0.000 A 
ATOM      4  C   UNL     1      47.438   7.066  13.063  0.00  0.00    +0.000 A 
ATOM      5  C   UNL     1      47.756   7.390  11.741  0.00  0.00    +0.000 A 
ATOM      6  C   UNL     1      49.051   7.788  11.392  0.00  0.00    +0.000 A 
ENDROOT
BRANCH   4   7
ATOM      7  N   UNL     1      46.098   6.784  13.371  0.00  0.00    +0.000 N 
ATOM      8  H   UNL     1      45.492   7.444  12.883  0.00  0.00    +0.000 HD
BRANCH   7   9
ATOM      9  C   UNL     1      45.637   5.399  13.200  0.00  0.00    +0.000 C 
BRANCH   9  10
ATOM     10  C   UNL     1      44.375   5.320  12.321  0.00  0.00    +0.000 C 
BRANCH  10  11
ATOM     11  C   UNL     1      44.642   4.650  10.993  0.00  0.00    +0.000 A 
ATOM     12  C   UNL     1      45.405   5.337  10.034  0.00  0.00    +0.000 A 
ATOM     13  C   UNL     1      45.704   4.750   8.803  0.00  0.00    +0.000 A 
ATOM     14  C   UNL     1      45.252   3.466   8.512  0.00  0.00    +0.000 A 
ATOM     15  C   UNL     1      44.487   2.774   9.448  0.00  0.00    +0.000 A 
ATOM     16  C   UNL     1      44.183   3.358  10.682  0.00  0.00    +0.000 A 
ATOM     17 CL   UNL     1      43.228   2.431  11.783  0.00  0.00    +0.000 Cl
ENDBRANCH  10  11
ENDBRANCH   9  10
ENDBRANCH   7   9
ENDBRANCH   4   7
BRANCH   1  18
ATOM     18  C   UNL     1      51.432   8.361  12.017  0.00  0.00    +0.000 C 
BRANCH  18  21
ATOM     19  C   UNL     1      52.699   8.769   9.950  0.00  0.00    +0.000 C 
ATOM     20  O   UNL     1      53.280   9.727  10.456  0.00  0.00    +0.000 OA
ATOM     21  N   UNL     1      51.779   8.048  10.656  0.00  0.00    +0.000 N 
ATOM     22  H   UNL     1      51.283   7.287  10.216  0.00  0.00    +0.000 HD
BRANCH  19  30
ATOM     23  C   UNL     1      53.577   5.768   8.522  0.00  0.00    +0.000 A 
ATOM     24  N   UNL     1      53.896   4.737   7.714  0.00  0.00    +0.000 NA
ATOM     25  C   UNL     1      53.997   4.977   6.403  0.00  0.00    +0.000 A 
ATOM     26  N   UNL     1      53.815   6.139   5.785  0.00  0.00    +0.000 NA
ATOM     27  C   UNL     1      53.488   7.136   6.625  0.00  0.00    +0.000 A 
ATOM     28  S   UNL     1      53.224   8.697   6.010  0.00  0.00    +0.000 S 
ATOM     29  C   UNL     1      52.892   9.306   7.560  0.00  0.00    +0.000 A 
ATOM     30  C   UNL     1      52.969   8.351   8.566  0.00  0.00    +0.000 A 
ATOM     31  C   UNL     1      53.336   7.055   8.006  0.00  0.00    +0.000 A 
BRANCH  23  33
ATOM     32  C   UNL     1      54.685   5.603  10.578  0.00  0.00    +0.000 C 
ATOM     33  O   UNL     1      53.451   5.516   9.871  0.00  0.00    +0.000 OA
ENDBRANCH  23  33
ENDBRANCH  19  30
ENDBRANCH  18  21
ENDBRANCH   1  18
TORSDOF 8
ENDMDL
