MODEL 1
REMARK VINA RESULT:    -7.986      0.000      0.000
REMARK INTER + INTRA:         -12.825
REMARK INTER:                 -12.188
REMARK INTRA:                  -0.637
REMARK UNBOUND:                -0.637
REMARK  Name = 
REMARK  10 active torsions:
REMARK  status: ('A' for Active; 'I' for Inactive)
REMARK    1  A    between atoms: C_1  and  O_2
REMARK    2  A    between atoms: O_2  and  C_3
REMARK    3  A    between atoms: C_3  and  C_4
REMARK    4  A    between atoms: C_4  and  N_5
REMARK    5  A    between atoms: N_5  and  C_6
REMARK    6  A    between atoms: C_6  and  C_7
REMARK    7  A    between atoms: C_10  and  O_11
REMARK    8  A    between atoms: O_11  and  C_12
REMARK    9  A    between atoms: C_12  and  C_13
REMARK   10  A    between atoms: C_16  and  C_17
REMARK                            x       y       z     vdW  Elec       q    Type
REMARK                         _______ _______ _______ _____ _____    ______ ____
ROOT
ATOM      1  C   UNL     1      46.813   4.838  14.143  0.00  0.00    +0.000 A 
ATOM      2  C   UNL     1      47.161   5.886  13.291  0.00  0.00    +0.000 A 
ATOM      3  C   UNL     1      46.365   6.134  12.174  0.00  0.00    +0.000 A 
ATOM      4  C   UNL     1      45.247   5.343  11.942  0.00  0.00    +0.000 A 
ATOM      5  C   UNL     1      45.024   4.274  12.800  0.00  0.00    +0.000 A 
ATOM      6  N   UNL     1      45.771   4.008  13.893  0.00  0.00    +0.000 NA
ENDROOT
BRANCH   1   7
ATOM      7  C   UNL     1      47.523   4.654  15.468  0.00  0.00    +0.000 C 
BRANCH   7   8
ATOM      8  N   UNL     1      47.283   3.345  16.104  0.00  0.00    +0.000 NA
ATOM      9  H   UNL     1      46.274   3.215  16.174  0.00  0.00    +0.000 HD
BRANCH   8  10
ATOM     10  C   UNL     1      47.855   3.286  17.460  0.00  0.00    +0.000 C 
BRANCH  10  11
ATOM     11  C   UNL     1      49.384   3.376  17.409  0.00  0.00    +0.000 C 
BRANCH  11  13
ATOM     12  C   UNL     1      51.060   1.732  17.266  0.00  0.00    +0.000 C 
ATOM     13  O   UNL     1      49.897   2.275  16.656  0.00  0.00    +0.000 OA
ENDBRANCH  11  13
ENDBRANCH  10  11
ENDBRANCH   8  10
ENDBRANCH   7   8
ENDBRANCH   1   7
BRANCH   4  14
ATOM     14  O   UNL     1      44.449   5.702  10.891  0.00  0.00    +0.000 OA
BRANCH  14  15
ATOM     15  C   UNL     1      43.753   4.614  10.279  0.00  0.00    +0.000 C 
BRANCH  15  16
ATOM     16  C   UNL     1      44.699   3.870   9.372  0.00  0.00    +0.000 A 
ATOM     17  C   UNL     1      44.769   2.472   9.412  0.00  0.00    +0.000 A 
ATOM     18  C   UNL     1      45.655   1.786   8.579  0.00  0.00    +0.000 A 
ATOM     19  C   UNL     1      46.471   2.490   7.687  0.00  0.00    +0.000 A 
ATOM     20  C   UNL     1      46.409   3.888   7.643  0.00  0.00    +0.000 A 
ATOM     21  C   UNL     1      45.525   4.571   8.481  0.00  0.00    +0.000 A 
BRANCH  19  22
ATOM     22  C   UNL     1      47.413   1.719   6.836  0.00  0.00    +0.000 C 
ATOM     23  N   UNL     1      48.483   2.392   6.314  0.00  0.00    +0.000 N 
ATOM     24  O   UNL     1      47.228   0.536   6.576  0.00  0.00    +0.000 OA
ATOM     25  H   UNL     1      48.541   3.398   6.300  0.00  0.00    +0.000 HD
ATOM     26  H   UNL     1      49.053   1.878   5.657  0.00  0.00    +0.000 HD
ENDBRANCH  19  22
ENDBRANCH  15  16
ENDBRANCH  14  15
ENDBRANCH   4  14
TORSDOF 9
ENDMDL
MODEL 2
REMARK VINA RESULT:    -7.594      1.537      2.125
REMARK INTER + INTRA:         -12.226
REMARK INTER:                 -11.265
REMARK INTRA:                  -0.961
REMARK UNBOUND:                -0.637
REMARK  Name = 
REMARK  10 active torsions:
REMARK  status: ('A' for Active; 'I' for Inactive)
REMARK    1  A    between atoms: C_1  and  O_2
REMARK    2  A    between atoms: O_2  and  C_3
REMARK    3  A    between atoms: C_3  and  C_4
REMARK    4  A    between atoms: C_4  and  N_5
REMARK    5  A    between atoms: N_5  and  C_6
REMARK    6  A    between atoms: C_6  and  C_7
REMARK    7  A    between atoms: C_10  and  O_11
REMARK    8  A    between atoms: O_11  and  C_12
REMARK    9  A    between atoms: C_12  and  C_13
REMARK   10  A    between atoms: C_16  and  C_17
REMARK                            x       y       z     vdW  Elec       q    Type
REMARK                         _______ _______ _______ _____ _____    ______ ____
ROOT
ATOM      1  C   UNL     1      47.046   5.973  13.546  0.00  0.00    +0.000 A 
ATOM      2  C   UNL     1      46.919   4.585  13.515  0.00  0.00    +0.000 A 
ATOM      3  C   UNL     1      45.810   4.025  12.884  0.00  0.00    +0.000 A 
ATOM      4  C   UNL     1      44.866   4.858  12.296  0.00  0.00    +0.000 A 
ATOM      5  C   UNL     1      45.034   6.229  12.444  0.00  0.00    +0.000 A 
ATOM      6  N   UNL     1      46.099   6.803  13.044  0.00  0.00    +0.000 NA
ENDROOT
BRANCH   1   7
ATOM      7  C   UNL     1      48.322   6.621  14.040  0.00  0.00    +0.000 C 
BRANCH   7   8
ATOM      8  N   UNL     1      48.259   7.090  15.436  0.00  0.00    +0.000 NA
ATOM      9  H   UNL     1      48.497   8.081  15.441  0.00  0.00    +0.000 HD
BRANCH   8  10
ATOM     10  C   UNL     1      49.220   6.376  16.294  0.00  0.00    +0.000 C 
BRANCH  10  11
ATOM     11  C   UNL     1      48.521   5.263  17.083  0.00  0.00    +0.000 C 
BRANCH  11  13
ATOM     12  C   UNL     1      47.839   3.023  16.853  0.00  0.00    +0.000 C 
ATOM     13  O   UNL     1      48.790   4.004  16.462  0.00  0.00    +0.000 OA
ENDBRANCH  11  13
ENDBRANCH  10  11
ENDBRANCH   8  10
ENDBRANCH   7   8
ENDBRANCH   1   7
BRANCH   4  14
ATOM     14  O   UNL     1      43.859   4.249  11.602  0.00  0.00    +0.000 OA
BRANCH  14  15
ATOM     15  C   UNL     1      43.727   4.683  10.246  0.00  0.00    +0.000 C 
BRANCH  15  16
ATOM     16  C   UNL     1      44.690   3.907   9.384  0.00  0.00    +0.000 A 
ATOM     17  C   UNL     1      45.569   4.577   8.522  0.00  0.00    +0.000 A 
ATOM     18  C   UNL     1      46.452   3.856   7.717  0.00  0.00    +0.000 A 
ATOM     19  C   UNL     1      46.476   2.457   7.774  0.00  0.00    +0.000 A 
ATOM     20  C   UNL     1      45.599   1.782   8.630  0.00  0.00    +0.000 A 
ATOM     21  C   UNL     1      44.713   2.506   9.431  0.00  0.00    +0.000 A 
BRANCH  19  22
ATOM     22  C   UNL     1      47.418   1.733   6.883  0.00  0.00    +0.000 C 
ATOM     23  N   UNL     1      48.463   2.445   6.361  0.00  0.00    +0.000 N 
ATOM     24  O   UNL     1      47.254   0.555   6.592  0.00  0.00    +0.000 OA
ATOM     25  H   UNL     1      48.498   3.451   6.375  0.00  0.00    +0.000 HD
ATOM     26  H   UNL     1      49.031   1.963   5.678  0.00  0.00    +0.000 HD
ENDBRANCH  19  22
ENDBRANCH  15  16
ENDBRANCH  14  15
ENDBRANCH   4  14
TORSDOF 9
ENDMDL
MODEL 3
REMARK VINA RESULT:    -7.031      2.790      3.450
REMARK INTER + INTRA:         -11.367
REMARK INTER:                 -10.510
REMARK INTRA:                  -0.857
REMARK UNBOUND:                -0.637
REMARK  Name = 
REMARK  10 active torsions:
REMARK  status: ('A' for Active; 'I' for Inactive)
REMARK    1  A    between atoms: C_1  and  O_2
REMARK    2  A    between atoms: O_2  and  C_3
REMARK    3  A    between atoms: C_3  and  C_4
REMARK    4  A    between atoms: C_4  and  N_5
REMARK    5  A    between atoms: N_5  and  C_6
REMARK    6  A    between atoms: C_6  and  C_7
REMARK    7  A    between atoms: C_10  and  O_11
REMARK    8  A    between atoms: O_11  and  C_12
REMARK    9  A    between atoms: C_12  and  C_13
REMARK   10  A    between atoms: C_16  and  C_17
REMARK                            x       y       z     vdW  Elec       q    Type
REMARK                         _______ _______ _______ _____ _____    ______ ____
ROOT
ATOM      1  C   UNL     1      46.770   5.491  13.646  0.00  0.00    +0.000 A 
ATOM      2  C   UNL     1      46.876   4.106  13.532  0.00  0.00    +0.000 A 
ATOM      3  C   UNL     1      45.866   3.407  12.874  0.00  0.00    +0.000 A 
ATOM      4  C   UNL     1      44.788   4.104  12.342  0.00  0.00    +0.000 A 
ATOM      5  C   UNL     1      44.727   5.472  12.572  0.00  0.00    +0.000 A 
ATOM      6  N   UNL     1      45.690   6.180  13.201  0.00  0.00    +0.000 NA
ENDROOT
BRANCH   1   7
ATOM      7  C   UNL     1      47.928   6.313  14.172  0.00  0.00    +0.000 C 
BRANCH   7   8
ATOM      8  N   UNL     1      49.104   6.335  13.283  0.00  0.00    +0.000 NA
ATOM      9  H   UNL     1      49.915   6.058  13.835  0.00  0.00    +0.000 HD
BRANCH   8  10
ATOM     10  C   UNL     1      49.350   7.682  12.740  0.00  0.00    +0.000 C 
BRANCH  10  11
ATOM     11  C   UNL     1      50.123   8.542  13.747  0.00  0.00    +0.000 C 
BRANCH  11  13
ATOM     12  C   UNL     1      49.660  10.003  15.531  0.00  0.00    +0.000 C 
ATOM     13  O   UNL     1      49.272   9.583  14.230  0.00  0.00    +0.000 OA
ENDBRANCH  11  13
ENDBRANCH  10  11
ENDBRANCH   8  10
ENDBRANCH   7   8
ENDBRANCH   1   7
BRANCH   4  14
ATOM     14  O   UNL     1      43.885   3.377  11.617  0.00  0.00    +0.000 OA
BRANCH  14  15
ATOM     15  C   UNL     1      43.584   3.922  10.330  0.00  0.00    +0.000 C 
BRANCH  15  16
ATOM     16  C   UNL     1      44.632   3.472   9.346  0.00  0.00    +0.000 A 
ATOM     17  C   UNL     1      44.953   2.114   9.222  0.00  0.00    +0.000 A 
ATOM     18  C   UNL     1      45.932   1.700   8.318  0.00  0.00    +0.000 A 
ATOM     19  C   UNL     1      46.593   2.638   7.517  0.00  0.00    +0.000 A 
ATOM     20  C   UNL     1      46.280   3.998   7.637  0.00  0.00    +0.000 A 
ATOM     21  C   UNL     1      45.303   4.409   8.547  0.00  0.00    +0.000 A 
BRANCH  19  22
ATOM     22  C   UNL     1      47.643   2.154   6.585  0.00  0.00    +0.000 C 
ATOM     23  N   UNL     1      47.892   2.910   5.472  0.00  0.00    +0.000 N 
ATOM     24  O   UNL     1      48.241   1.103   6.776  0.00  0.00    +0.000 OA
ATOM     25  H   UNL     1      47.269   3.635   5.154  0.00  0.00    +0.000 HD
ATOM     26  H   UNL     1      48.534   2.512   4.800  0.00  0.00    +0.000 HD
ENDBRANCH  19  22
ENDBRANCH  15  16
ENDBRANCH  14  15
ENDBRANCH   4  14
TORSDOF 9
ENDMDL
MODEL 4
REMARK VINA RESULT:    -6.803      3.047      4.104
REMARK INTER + INTRA:         -11.019
REMARK INTER:                 -10.168
REMARK INTRA:                  -0.851
REMARK UNBOUND:                -0.637
REMARK  Name = 
REMARK  10 active torsions:
REMARK  status: ('A' for Active; 'I' for Inactive)
REMARK    1  A    between atoms: C_1  and  O_2
REMARK    2  A    between atoms: O_2  and  C_3
REMARK    3  A    between atoms: C_3  and  C_4
REMARK    4  A    between atoms: C_4  and  N_5
REMARK    5  A    between atoms: N_5  and  C_6
REMARK    6  A    between atoms: C_6  and  C_7
REMARK    7  A    between atoms: C_10  and  O_11
REMARK    8  A    between atoms: O_11  and  C_12
REMARK    9  A    between atoms: C_12  and  C_13
REMARK   10  A    between atoms: C_16  and  C_17
REMARK                            x       y       z     vdW  Elec       q    Type
REMARK                         _______ _______ _______ _____ _____    ______ ____
ROOT
ATOM      1  C   UNL     1      46.865   6.879  13.243  0.00  0.00    +0.000 A 
ATOM      2  C   UNL     1      46.956   5.506  13.469  0.00  0.00    +0.000 A 
ATOM      3  C   UNL     1      45.963   4.673  12.957  0.00  0.00    +0.000 A 
ATOM      4  C   UNL     1      44.917   5.225  12.229  0.00  0.00    +0.000 A 
ATOM      5  C   UNL     1      44.866   6.609  12.121  0.00  0.00    +0.000 A 
ATOM      6  N   UNL     1      45.812   7.444  12.601  0.00  0.00    +0.000 NA
ENDROOT
BRANCH   1   7
ATOM      7  C   UNL     1      48.012   7.798  13.603  0.00  0.00    +0.000 C 
BRANCH   7   8
ATOM      8  N   UNL     1      48.751   8.325  12.441  0.00  0.00    +0.000 NA
ATOM      9  H   UNL     1      48.085   8.446  11.679  0.00  0.00    +0.000 HD
BRANCH   8  10
ATOM     10  C   UNL     1      49.802   7.393  11.996  0.00  0.00    +0.000 C 
BRANCH  10  11
ATOM     11  C   UNL     1      51.053   8.158  11.548  0.00  0.00    +0.000 C 
BRANCH  11  13
ATOM     12  C   UNL     1      52.459   8.248   9.665  0.00  0.00    +0.000 C 
ATOM     13  O   UNL     1      51.736   7.401  10.547  0.00  0.00    +0.000 OA
ENDBRANCH  11  13
ENDBRANCH  10  11
ENDBRANCH   8  10
ENDBRANCH   7   8
ENDBRANCH   1   7
BRANCH   4  14
ATOM     14  O   UNL     1      44.034   4.348  11.663  0.00  0.00    +0.000 OA
BRANCH  14  15
ATOM     15  C   UNL     1      43.723   4.622  10.294  0.00  0.00    +0.000 C 
BRANCH  15  16
ATOM     16  C   UNL     1      44.688   3.874   9.410  0.00  0.00    +0.000 A 
ATOM     17  C   UNL     1      45.521   4.567   8.523  0.00  0.00    +0.000 A 
ATOM     18  C   UNL     1      46.407   3.871   7.698  0.00  0.00    +0.000 A 
ATOM     19  C   UNL     1      46.478   2.475   7.760  0.00  0.00    +0.000 A 
ATOM     20  C   UNL     1      45.646   1.776   8.642  0.00  0.00    +0.000 A 
ATOM     21  C   UNL     1      44.758   2.474   9.463  0.00  0.00    +0.000 A 
BRANCH  19  22
ATOM     22  C   UNL     1      47.419   1.777   6.848  0.00  0.00    +0.000 C 
ATOM     23  N   UNL     1      48.490   2.491   6.384  0.00  0.00    +0.000 N 
ATOM     24  O   UNL     1      47.234   0.621   6.491  0.00  0.00    +0.000 OA
ATOM     25  H   UNL     1      48.548   3.494   6.454  0.00  0.00    +0.000 HD
ATOM     26  H   UNL     1      49.060   2.033   5.686  0.00  0.00    +0.000 HD
ENDBRANCH  19  22
ENDBRANCH  15  16
ENDBRANCH  14  15
ENDBRANCH   4  14
TORSDOF 9
ENDMDL
MODEL 5
REMARK VINA RESULT:    -6.346      2.269      8.812
REMARK INTER + INTRA:         -10.322
REMARK INTER:                  -9.804
REMARK INTRA:                  -0.518
REMARK UNBOUND:                -0.637
REMARK  Name = 
REMARK  10 active torsions:
REMARK  status: ('A' for Active; 'I' for Inactive)
REMARK    1  A    between atoms: C_1  and  O_2
REMARK    2  A    between atoms: O_2  and  C_3
REMARK    3  A    between atoms: C_3  and  C_4
REMARK    4  A    between atoms: C_4  and  N_5
REMARK    5  A    between atoms: N_5  and  C_6
REMARK    6  A    between atoms: C_6  and  C_7
REMARK    7  A    between atoms: C_10  and  O_11
REMARK    8  A    between atoms: O_11  and  C_12
REMARK    9  A    between atoms: C_12  and  C_13
REMARK   10  A    between atoms: C_16  and  C_17
REMARK                            x       y       z     vdW  Elec       q    Type
REMARK                         _______ _______ _______ _____ _____    ______ ____
ROOT
ATOM      1  C   UNL     1      44.909   4.209  10.055  0.00  0.00    +0.000 A 
ATOM      2  C   UNL     1      45.443   5.393  10.563  0.00  0.00    +0.000 A 
ATOM      3  C   UNL     1      45.739   5.466  11.923  0.00  0.00    +0.000 A 
ATOM      4  C   UNL     1      45.506   4.363  12.734  0.00  0.00    +0.000 A 
ATOM      5  C   UNL     1      44.898   3.255  12.157  0.00  0.00    +0.000 A 
ATOM      6  N   UNL     1      44.603   3.149  10.844  0.00  0.00    +0.000 NA
ENDROOT
BRANCH   1   7
ATOM      7  C   UNL     1      44.756   4.010   8.562  0.00  0.00    +0.000 C 
BRANCH   7   8
ATOM      8  N   UNL     1      46.002   4.207   7.797  0.00  0.00    +0.000 NA
ATOM      9  H   UNL     1      45.895   5.055   7.244  0.00  0.00    +0.000 HD
BRANCH   8  10
ATOM     10  C   UNL     1      46.261   3.083   6.881  0.00  0.00    +0.000 C 
BRANCH  10  11
ATOM     11  C   UNL     1      47.750   2.719   6.876  0.00  0.00    +0.000 C 
BRANCH  11  13
ATOM     12  C   UNL     1      46.841   0.678   7.612  0.00  0.00    +0.000 C 
ATOM     13  O   UNL     1      47.888   1.296   6.876  0.00  0.00    +0.000 OA
ENDBRANCH  11  13
ENDBRANCH  10  11
ENDBRANCH   8  10
ENDBRANCH   7   8
ENDBRANCH   1   7
BRANCH   4  14
ATOM     14  O   UNL     1      45.915   4.460  14.035  0.00  0.00    +0.000 OA
BRANCH  14  15
ATOM     15  C   UNL     1      47.320   4.673  14.198  0.00  0.00    +0.000 C 
BRANCH  15  16
ATOM     16  C   UNL     1      47.646   4.705  15.669  0.00  0.00    +0.000 A 
ATOM     17  C   UNL     1      48.348   5.786  16.217  0.00  0.00    +0.000 A 
ATOM     18  C   UNL     1      48.658   5.809  17.578  0.00  0.00    +0.000 A 
ATOM     19  C   UNL     1      48.259   4.756  18.409  0.00  0.00    +0.000 A 
ATOM     20  C   UNL     1      47.560   3.671  17.868  0.00  0.00    +0.000 A 
ATOM     21  C   UNL     1      47.255   3.649  16.505  0.00  0.00    +0.000 A 
BRANCH  19  22
ATOM     22  C   UNL     1      48.630   4.813  19.846  0.00  0.00    +0.000 C 
ATOM     23  N   UNL     1      47.627   5.054  20.744  0.00  0.00    +0.000 N 
ATOM     24  O   UNL     1      49.789   4.687  20.219  0.00  0.00    +0.000 OA
ATOM     25  H   UNL     1      46.721   5.400  20.472  0.00  0.00    +0.000 HD
ATOM     26  H   UNL     1      47.915   5.192  21.704  0.00  0.00    +0.000 HD
ENDBRANCH  19  22
ENDBRANCH  15  16
ENDBRANCH  14  15
ENDBRANCH   4  14
TORSDOF 9
ENDMDL
MODEL 6
REMARK VINA RESULT:    -6.148      2.185      8.315
REMARK INTER + INTRA:         -10.019
REMARK INTER:                  -9.415
REMARK INTRA:                  -0.604
REMARK UNBOUND:                -0.637
REMARK  Name = 
REMARK  10 active torsions:
REMARK  status: ('A' for Active; 'I' for Inactive)
REMARK    1  A    between atoms: C_1  and  O_2
REMARK    2  A    between atoms: O_2  and  C_3
REMARK    3  A    between atoms: C_3  and  C_4
REMARK    4  A    between atoms: C_4  and  N_5
REMARK    5  A    between atoms: N_5  and  C_6
REMARK    6  A    between atoms: C_6  and  C_7
REMARK    7  A    between atoms: C_10  and  O_11
REMARK    8  A    between atoms: O_11  and  C_12
REMARK    9  A    between atoms: C_12  and  C_13
REMARK   10  A    between atoms: C_16  and  C_17
REMARK                            x       y       z     vdW  Elec       q    Type
REMARK                         _______ _______ _______ _____ _____    ______ ____
ROOT
ATOM      1  C   UNL     1      44.985   4.262  11.930  0.00  0.00    +0.000 A 
ATOM      2  C   UNL     1      45.363   5.595  12.088  0.00  0.00    +0.000 A 
ATOM      3  C   UNL     1      46.268   5.921  13.096  0.00  0.00    +0.000 A 
ATOM      4  C   UNL     1      46.777   4.916  13.909  0.00  0.00    +0.000 A 
ATOM      5  C   UNL     1      46.284   3.630  13.730  0.00  0.00    +0.000 A 
ATOM      6  N   UNL     1      45.412   3.279  12.761  0.00  0.00    +0.000 NA
ENDROOT
BRANCH   1   7
ATOM      7  C   UNL     1      44.165   3.829  10.733  0.00  0.00    +0.000 C 
BRANCH   7   8
ATOM      8  N   UNL     1      44.356   4.669   9.536  0.00  0.00    +0.000 NA
ATOM      9  H   UNL     1      43.437   4.860   9.141  0.00  0.00    +0.000 HD
BRANCH   8  10
ATOM     10  C   UNL     1      45.168   3.984   8.515  0.00  0.00    +0.000 C 
BRANCH  10  11
ATOM     11  C   UNL     1      45.284   2.487   8.828  0.00  0.00    +0.000 C 
BRANCH  11  13
ATOM     12  C   UNL     1      46.974   2.894   7.243  0.00  0.00    +0.000 C 
ATOM     13  O   UNL     1      46.262   1.900   7.967  0.00  0.00    +0.000 OA
ENDBRANCH  11  13
ENDBRANCH  10  11
ENDBRANCH   8  10
ENDBRANCH   7   8
ENDBRANCH   1   7
BRANCH   4  14
ATOM     14  O   UNL     1      47.739   5.283  14.808  0.00  0.00    +0.000 OA
BRANCH  14  15
ATOM     15  C   UNL     1      47.506   4.826  16.143  0.00  0.00    +0.000 C 
BRANCH  15  16
ATOM     16  C   UNL     1      48.688   4.007  16.597  0.00  0.00    +0.000 A 
ATOM     17  C   UNL     1      48.677   2.612  16.464  0.00  0.00    +0.000 A 
ATOM     18  C   UNL     1      49.767   1.855  16.895  0.00  0.00    +0.000 A 
ATOM     19  C   UNL     1      50.887   2.484  17.451  0.00  0.00    +0.000 A 
ATOM     20  C   UNL     1      50.903   3.877  17.589  0.00  0.00    +0.000 A 
ATOM     21  C   UNL     1      49.808   4.632  17.162  0.00  0.00    +0.000 A 
BRANCH  19  22
ATOM     22  C   UNL     1      52.014   1.636  17.915  0.00  0.00    +0.000 C 
ATOM     23  N   UNL     1      51.779   0.294  18.040  0.00  0.00    +0.000 N 
ATOM     24  O   UNL     1      53.102   2.112  18.210  0.00  0.00    +0.000 OA
ATOM     25  H   UNL     1      50.852  -0.100  18.045  0.00  0.00    +0.000 HD
ATOM     26  H   UNL     1      52.524  -0.250  18.454  0.00  0.00    +0.000 HD
ENDBRANCH  19  22
ENDBRANCH  15  16
ENDBRANCH  14  15
ENDBRANCH   4  14
TORSDOF 9
ENDMDL
MODEL 7
REMARK VINA RESULT:    -5.650      2.556      8.750
REMARK INTER + INTRA:          -9.260
REMARK INTER:                  -8.683
REMARK INTRA:                  -0.578
REMARK UNBOUND:                -0.637
REMARK  Name = 
REMARK  10 active torsions:
REMARK  status: ('A' for Active; 'I' for Inactive)
REMARK    1  A    between atoms: C_1  and  O_2
REMARK    2  A    between atoms: O_2  and  C_3
REMARK    3  A    between atoms: C_3  and  C_4
REMARK    4  A    between atoms: C_4  and  N_5
REMARK    5  A    between atoms: N_5  and  C_6
REMARK    6  A    between atoms: C_6  and  C_7
REMARK    7  A    between atoms: C_10  and  O_11
REMARK    8  A    between atoms: O_11  and  C_12
REMARK    9  A    between atoms: C_12  and  C_13
REMARK   10  A    between atoms: C_16  and  C_17
REMARK                            x       y       z     vdW  Elec       q    Type
REMARK                         _______ _______ _______ _____ _____    ______ ____
ROOT
ATOM      1  C   UNL     1      44.669   4.893  11.690  0.00  0.00    +0.000 A 
ATOM      2  C   UNL     1      45.273   6.142  11.554  0.00  0.00    +0.000 A 
ATOM      3  C   UNL     1      46.446   6.400  12.261  0.00  0.00    +0.000 A 
ATOM      4  C   UNL     1      46.988   5.411  13.071  0.00  0.00    +0.000 A 
ATOM      5  C   UNL     1      46.275   4.226  13.207  0.00  0.00    +0.000 A 
ATOM      6  N   UNL     1      45.140   3.942  12.534  0.00  0.00    +0.000 NA
ENDROOT
BRANCH   1   7
ATOM      7  C   UNL     1      43.512   4.494  10.798  0.00  0.00    +0.000 C 
BRANCH   7   8
ATOM      8  N   UNL     1      43.741   4.750   9.363  0.00  0.00    +0.000 NA
ATOM      9  H   UNL     1      42.879   4.530   8.868  0.00  0.00    +0.000 HD
BRANCH   8  10
ATOM     10  C   UNL     1      44.818   3.900   8.825  0.00  0.00    +0.000 C 
BRANCH  10  11
ATOM     11  C   UNL     1      44.523   2.419   9.087  0.00  0.00    +0.000 C 
BRANCH  11  13
ATOM     12  C   UNL     1      46.447   2.281   7.741  0.00  0.00    +0.000 C 
ATOM     13  O   UNL     1      45.673   1.641   8.747  0.00  0.00    +0.000 OA
ENDBRANCH  11  13
ENDBRANCH  10  11
ENDBRANCH   8  10
ENDBRANCH   7   8
ENDBRANCH   1   7
BRANCH   4  14
ATOM     14  O   UNL     1      48.194   5.687  13.653  0.00  0.00    +0.000 OA
BRANCH  14  15
ATOM     15  C   UNL     1      48.158   6.748  14.611  0.00  0.00    +0.000 C 
BRANCH  15  16
ATOM     16  C   UNL     1      48.651   6.231  15.939  0.00  0.00    +0.000 A 
ATOM     17  C   UNL     1      49.715   6.862  16.595  0.00  0.00    +0.000 A 
ATOM     18  C   UNL     1      50.176   6.375  17.820  0.00  0.00    +0.000 A 
ATOM     19  C   UNL     1      49.570   5.259  18.408  0.00  0.00    +0.000 A 
ATOM     20  C   UNL     1      48.507   4.622  17.755  0.00  0.00    +0.000 A 
ATOM     21  C   UNL     1      48.051   5.109  16.528  0.00  0.00    +0.000 A 
BRANCH  19  22
ATOM     22  C   UNL     1      50.108   4.764  19.700  0.00  0.00    +0.000 C 
ATOM     23  N   UNL     1      49.205   4.336  20.634  0.00  0.00    +0.000 N 
ATOM     24  O   UNL     1      51.308   4.767  19.943  0.00  0.00    +0.000 OA
ATOM     25  H   UNL     1      48.220   4.539  20.574  0.00  0.00    +0.000 HD
ATOM     26  H   UNL     1      49.584   4.101  21.541  0.00  0.00    +0.000 HD
ENDBRANCH  19  22
ENDBRANCH  15  16
ENDBRANCH  14  15
ENDBRANCH   4  14
TORSDOF 9
ENDMDL
MODEL 8
REMARK VINA RESULT:    -5.618      4.115      7.235
REMARK INTER + INTRA:          -9.211
REMARK INTER:                  -8.565
REMARK INTRA:                  -0.646
REMARK UNBOUND:                -0.637
REMARK  Name = 
REMARK  10 active torsions:
REMARK  status: ('A' for Active; 'I' for Inactive)
REMARK    1  A    between atoms: C_1  and  O_2
REMARK    2  A    between atoms: O_2  and  C_3
REMARK    3  A    between atoms: C_3  and  C_4
REMARK    4  A    between atoms: C_4  and  N_5
REMARK    5  A    between atoms: N_5  and  C_6
REMARK    6  A    between atoms: C_6  and  C_7
REMARK    7  A    between atoms: C_10  and  O_11
REMARK    8  A    between atoms: O_11  and  C_12
REMARK    9  A    between atoms: C_12  and  C_13
REMARK   10  A    between atoms: C_16  and  C_17
REMARK                            x       y       z     vdW  Elec       q    Type
REMARK                         _______ _______ _______ _____ _____    ______ ____
ROOT
ATOM      1  C   UNL     1      44.189   4.186  12.212  0.00  0.00    +0.000 A 
ATOM      2  C   UNL     1      43.929   5.538  11.992  0.00  0.00    +0.000 A 
ATOM      3  C   UNL     1      44.862   6.481  12.419  0.00  0.00    +0.000 A 
ATOM      4  C   UNL     1      46.028   6.053  13.043  0.00  0.00    +0.000 A 
ATOM      5  C   UNL     1      46.166   4.693  13.291  0.00  0.00    +0.000 A 
ATOM      6  N   UNL     1      45.284   3.755  12.886  0.00  0.00    +0.000 NA
ENDROOT
BRANCH   1   7
ATOM      7  C   UNL     1      43.309   3.120  11.594  0.00  0.00    +0.000 C 
BRANCH   7   8
ATOM      8  N   UNL     1      44.035   2.158  10.745  0.00  0.00    +0.000 NA
ATOM      9  H   UNL     1      44.813   1.789  11.289  0.00  0.00    +0.000 HD
BRANCH   8  10
ATOM     10  C   UNL     1      44.577   2.801   9.535  0.00  0.00    +0.000 C 
BRANCH  10  11
ATOM     11  C   UNL     1      45.478   1.830   8.762  0.00  0.00    +0.000 C 
BRANCH  11  13
ATOM     12  C   UNL     1      47.264   1.746   7.234  0.00  0.00    +0.000 C 
ATOM     13  O   UNL     1      46.255   2.563   7.812  0.00  0.00    +0.000 OA
ENDBRANCH  11  13
ENDBRANCH  10  11
ENDBRANCH   8  10
ENDBRANCH   7   8
ENDBRANCH   1   7
BRANCH   4  14
ATOM     14  O   UNL     1      46.951   7.016  13.343  0.00  0.00    +0.000 OA
BRANCH  14  15
ATOM     15  C   UNL     1      46.878   8.182  12.518  0.00  0.00    +0.000 C 
BRANCH  15  16
ATOM     16  C   UNL     1      48.262   8.527  12.030  0.00  0.00    +0.000 A 
ATOM     17  C   UNL     1      48.615   9.860  11.783  0.00  0.00    +0.000 A 
ATOM     18  C   UNL     1      49.894  10.176  11.320  0.00  0.00    +0.000 A 
ATOM     19  C   UNL     1      50.838   9.164  11.112  0.00  0.00    +0.000 A 
ATOM     20  C   UNL     1      50.491   7.830  11.354  0.00  0.00    +0.000 A 
ATOM     21  C   UNL     1      49.209   7.516  11.812  0.00  0.00    +0.000 A 
BRANCH  19  22
ATOM     22  C   UNL     1      52.178   9.547  10.598  0.00  0.00    +0.000 C 
ATOM     23  N   UNL     1      52.222  10.286   9.448  0.00  0.00    +0.000 N 
ATOM     24  O   UNL     1      53.209   9.189  11.155  0.00  0.00    +0.000 OA
ATOM     25  H   UNL     1      51.429  10.392   8.837  0.00  0.00    +0.000 HD
ATOM     26  H   UNL     1      53.141  10.448   9.060  0.00  0.00    +0.000 HD
ENDBRANCH  19  22
ENDBRANCH  15  16
ENDBRANCH  14  15
ENDBRANCH   4  14
TORSDOF 9
ENDMDL
MODEL 9
REMARK VINA RESULT:    -5.413      4.119      7.383
REMARK INTER + INTRA:          -8.898
REMARK INTER:                  -8.160
REMARK INTRA:                  -0.739
REMARK UNBOUND:                -0.637
REMARK  Name = 
REMARK  10 active torsions:
REMARK  status: ('A' for Active; 'I' for Inactive)
REMARK    1  A    between atoms: C_1  and  O_2
REMARK    2  A    between atoms: O_2  and  C_3
REMARK    3  A    between atoms: C_3  and  C_4
REMARK    4  A    between atoms: C_4  and  N_5
REMARK    5  A    between atoms: N_5  and  C_6
REMARK    6  A    between atoms: C_6  and  C_7
REMARK    7  A    between atoms: C_10  and  O_11
REMARK    8  A    between atoms: O_11  and  C_12
REMARK    9  A    between atoms: C_12  and  C_13
REMARK   10  A    between atoms: C_16  and  C_17
REMARK                            x       y       z     vdW  Elec       q    Type
REMARK                         _______ _______ _______ _____ _____    ______ ____
ROOT
ATOM      1  C   UNL     1      44.732   3.818  12.364  0.00  0.00    +0.000 A 
ATOM      2  C   UNL     1      44.766   5.206  12.496  0.00  0.00    +0.000 A 
ATOM      3  C   UNL     1      45.865   5.794  13.120  0.00  0.00    +0.000 A 
ATOM      4  C   UNL     1      46.897   4.990  13.586  0.00  0.00    +0.000 A 
ATOM      5  C   UNL     1      46.740   3.614  13.483  0.00  0.00    +0.000 A 
ATOM      6  N   UNL     1      45.692   3.012  12.880  0.00  0.00    +0.000 NA
ENDROOT
BRANCH   1   7
ATOM      7  C   UNL     1      43.665   3.149  11.523  0.00  0.00    +0.000 C 
BRANCH   7   8
ATOM      8  N   UNL     1      43.735   3.478  10.087  0.00  0.00    +0.000 NA
ATOM      9  H   UNL     1      42.852   3.199   9.662  0.00  0.00    +0.000 HD
BRANCH   8  10
ATOM     10  C   UNL     1      44.826   2.750   9.415  0.00  0.00    +0.000 C 
BRANCH  10  11
ATOM     11  C   UNL     1      45.382   3.567   8.243  0.00  0.00    +0.000 C 
BRANCH  11  13
ATOM     12  C   UNL     1      46.370   1.444   8.027  0.00  0.00    +0.000 C 
ATOM     13  O   UNL     1      46.263   2.747   7.472  0.00  0.00    +0.000 OA
ENDBRANCH  11  13
ENDBRANCH  10  11
ENDBRANCH   8  10
ENDBRANCH   7   8
ENDBRANCH   1   7
BRANCH   4  14
ATOM     14  O   UNL     1      47.993   5.631  14.093  0.00  0.00    +0.000 OA
BRANCH  14  15
ATOM     15  C   UNL     1      47.952   7.056  13.972  0.00  0.00    +0.000 C 
BRANCH  15  16
ATOM     16  C   UNL     1      49.198   7.527  13.267  0.00  0.00    +0.000 A 
ATOM     17  C   UNL     1      49.309   7.421  11.875  0.00  0.00    +0.000 A 
ATOM     18  C   UNL     1      50.468   7.848  11.226  0.00  0.00    +0.000 A 
ATOM     19  C   UNL     1      51.526   8.398  11.960  0.00  0.00    +0.000 A 
ATOM     20  C   UNL     1      51.423   8.504  13.352  0.00  0.00    +0.000 A 
ATOM     21  C   UNL     1      50.263   8.072  13.999  0.00  0.00    +0.000 A 
BRANCH  19  22
ATOM     22  C   UNL     1      52.747   8.818  11.228  0.00  0.00    +0.000 C 
ATOM     23  N   UNL     1      53.226  10.076  11.475  0.00  0.00    +0.000 N 
ATOM     24  O   UNL     1      53.292   8.090  10.408  0.00  0.00    +0.000 OA
ATOM     25  H   UNL     1      52.684  10.783  11.945  0.00  0.00    +0.000 HD
ATOM     26  H   UNL     1      53.994  10.380  10.893  0.00  0.00    +0.000 HD
ENDBRANCH  19  22
ENDBRANCH  15  16
ENDBRANCH  14  15
ENDBRANCH   4  14
TORSDOF 9
ENDMDL
