MODEL 1
REMARK VINA RESULT:    -8.033      0.000      0.000
REMARK INTER + INTRA:         -11.700
REMARK INTER:                 -10.851
REMARK INTRA:                  -0.849
REMARK UNBOUND:                -0.849
REMARK  Name = 
REMARK  6 active torsions:
REMARK  status: ('A' for Active; 'I' for Inactive)
REMARK    1  A    between atoms: C_2  and  C_3
REMARK    2  A    between atoms: N_7  and  C_8
REMARK    3  A    between atoms: C_8  and  C_9
REMARK    4  A    between atoms: C_9  and  C_12
REMARK    5  A    between atoms: C_16  and  C_17
REMARK    6  A    between atoms: C_17  and  C_18
REMARK                            x       y       z     vdW  Elec       q    Type
REMARK                         _______ _______ _______ _____ _____    ______ ____
ROOT
ATOM      1  C   UNL     1      44.076   4.839  12.332  0.00  0.00    +0.000 C 
ATOM      2  F   UNL     1      43.123   5.616  12.927  0.00  0.00    +0.000 F 
ATOM      3  F   UNL     1      43.886   3.582  12.839  0.00  0.00    +0.000 F 
ENDROOT
BRANCH   1   4
ATOM      4  C   UNL     1      45.480   5.366  12.593  0.00  0.00    +0.000 A 
ATOM      5  C   UNL     1      46.116   6.212  11.673  0.00  0.00    +0.000 A 
ATOM      6  C   UNL     1      47.379   6.734  11.956  0.00  0.00    +0.000 A 
ATOM      7  C   UNL     1      48.017   6.432  13.164  0.00  0.00    +0.000 A 
ATOM      8  C   UNL     1      47.403   5.592  14.102  0.00  0.00    +0.000 A 
ATOM      9  C   UNL     1      46.143   5.051  13.795  0.00  0.00    +0.000 A 
BRANCH   8  10
ATOM     10  C   UNL     1      48.078   5.256  15.419  0.00  0.00    +0.000 C 
BRANCH  10  11
ATOM     11  C   UNL     1      47.211   4.344  16.287  0.00  0.00    +0.000 C 
ATOM     12  C   UNL     1      47.081   4.587  17.808  0.00  0.00    +0.000 C 
ATOM     13  N   UNL     1      47.241   3.136  18.037  0.00  0.00    +0.000 NA
ATOM     14  C   UNL     1      47.848   2.994  16.700  0.00  0.00    +0.000 C 
ATOM     15  H   UNL     1      46.357   2.638  18.137  0.00  0.00    +0.000 HD
ENDBRANCH  10  11
ENDBRANCH   8  10
ENDBRANCH   1   4
BRANCH   1  16
ATOM     16  C   UNL     1      43.809   4.793  10.807  0.00  0.00    +0.000 C 
BRANCH  16  21
ATOM     17  C   UNL     1      46.552   2.426   7.522  0.00  0.00    +0.000 A 
ATOM     18  C   UNL     1      45.949   1.501   8.342  0.00  0.00    +0.000 A 
ATOM     19  N   UNL     1      44.993   1.816   9.252  0.00  0.00    +0.000 NA
ATOM     20  C   UNL     1      44.625   3.103   9.329  0.00  0.00    +0.000 A 
ATOM     21  N   UNL     1      43.651   3.436  10.259  0.00  0.00    +0.000 N 
ATOM     22  N   UNL     1      45.160   4.069   8.566  0.00  0.00    +0.000 NA
ATOM     23  C   UNL     1      46.107   3.713   7.676  0.00  0.00    +0.000 A 
ATOM     24  H   UNL     1      43.571   2.685  10.939  0.00  0.00    +0.000 HD
BRANCH  17  26
ATOM     25  N   UNL     1      48.412   1.795   5.846  0.00  0.00    +0.000 NA
ATOM     26  C   UNL     1      47.570   2.087   6.595  0.00  0.00    +0.000 C 
ENDBRANCH  17  26
ENDBRANCH  16  21
ENDBRANCH   1  16
TORSDOF 6
ENDMDL
MODEL 2
REMARK VINA RESULT:    -7.790      2.066      7.887
REMARK INTER + INTRA:         -11.372
REMARK INTER:                 -10.753
REMARK INTRA:                  -0.619
REMARK UNBOUND:                -0.849
REMARK  Name = 
REMARK  6 active torsions:
REMARK  status: ('A' for Active; 'I' for Inactive)
REMARK    1  A    between atoms: C_2  and  C_3
REMARK    2  A    between atoms: N_7  and  C_8
REMARK    3  A    between atoms: C_8  and  C_9
REMARK    4  A    between atoms: C_9  and  C_12
REMARK    5  A    between atoms: C_16  and  C_17
REMARK    6  A    between atoms: C_17  and  C_18
REMARK                            x       y       z     vdW  Elec       q    Type
REMARK                         _______ _______ _______ _____ _____    ______ ____
ROOT
ATOM      1  C   UNL     1      44.761   5.798  11.731  0.00  0.00    +0.000 C 
ATOM      2  F   UNL     1      43.712   5.642  12.592  0.00  0.00    +0.000 F 
ATOM      3  F   UNL     1      44.572   7.022  11.149  0.00  0.00    +0.000 F 
ENDROOT
BRANCH   1   4
ATOM      4  C   UNL     1      44.829   4.671  10.709  0.00  0.00    +0.000 A 
ATOM      5  C   UNL     1      44.092   3.491  10.886  0.00  0.00    +0.000 A 
ATOM      6  C   UNL     1      44.120   2.494   9.910  0.00  0.00    +0.000 A 
ATOM      7  C   UNL     1      44.869   2.666   8.741  0.00  0.00    +0.000 A 
ATOM      8  C   UNL     1      45.612   3.836   8.537  0.00  0.00    +0.000 A 
ATOM      9  C   UNL     1      45.598   4.822   9.539  0.00  0.00    +0.000 A 
BRANCH   8  10
ATOM     10  C   UNL     1      46.428   4.042   7.275  0.00  0.00    +0.000 C 
BRANCH  10  11
ATOM     11  C   UNL     1      46.777   2.717   6.599  0.00  0.00    +0.000 C 
ATOM     12  C   UNL     1      48.094   1.980   6.931  0.00  0.00    +0.000 C 
ATOM     13  N   UNL     1      48.296   1.725   5.490  0.00  0.00    +0.000 NA
ATOM     14  C   UNL     1      47.360   2.818   5.167  0.00  0.00    +0.000 C 
ATOM     15  H   UNL     1      47.970   0.807   5.187  0.00  0.00    +0.000 HD
ENDBRANCH  10  11
ENDBRANCH   8  10
ENDBRANCH   1   4
BRANCH   1  16
ATOM     16  C   UNL     1      46.078   5.846  12.545  0.00  0.00    +0.000 C 
BRANCH  16  21
ATOM     17  C   UNL     1      48.393   5.181  16.800  0.00  0.00    +0.000 A 
ATOM     18  C   UNL     1      47.540   4.123  16.592  0.00  0.00    +0.000 A 
ATOM     19  N   UNL     1      46.874   3.915  15.428  0.00  0.00    +0.000 NA
ATOM     20  C   UNL     1      47.082   4.796  14.440  0.00  0.00    +0.000 A 
ATOM     21  N   UNL     1      46.403   4.595  13.248  0.00  0.00    +0.000 N 
ATOM     22  N   UNL     1      47.898   5.856  14.558  0.00  0.00    +0.000 NA
ATOM     23  C   UNL     1      48.540   6.026  15.731  0.00  0.00    +0.000 A 
ATOM     24  H   UNL     1      45.628   3.959  13.412  0.00  0.00    +0.000 HD
BRANCH  17  26
ATOM     25  N   UNL     1      49.595   5.594  19.048  0.00  0.00    +0.000 NA
ATOM     26  C   UNL     1      49.061   5.402  18.032  0.00  0.00    +0.000 C 
ENDBRANCH  17  26
ENDBRANCH  16  21
ENDBRANCH   1  16
TORSDOF 6
ENDMDL
MODEL 3
REMARK VINA RESULT:    -7.563      3.097      7.119
REMARK INTER + INTRA:         -11.065
REMARK INTER:                 -10.255
REMARK INTRA:                  -0.811
REMARK UNBOUND:                -0.849
REMARK  Name = 
REMARK  6 active torsions:
REMARK  status: ('A' for Active; 'I' for Inactive)
REMARK    1  A    between atoms: C_2  and  C_3
REMARK    2  A    between atoms: N_7  and  C_8
REMARK    3  A    between atoms: C_8  and  C_9
REMARK    4  A    between atoms: C_9  and  C_12
REMARK    5  A    between atoms: C_16  and  C_17
REMARK    6  A    between atoms: C_17  and  C_18
REMARK                            x       y       z     vdW  Elec       q    Type
REMARK                         _______ _______ _______ _____ _____    ______ ____
ROOT
ATOM      1  C   UNL     1      43.634   5.623  11.447  0.00  0.00    +0.000 C 
ATOM      2  F   UNL     1      42.315   5.468  11.768  0.00  0.00    +0.000 F 
ATOM      3  F   UNL     1      43.708   6.823  10.794  0.00  0.00    +0.000 F 
ENDROOT
BRANCH   1   4
ATOM      4  C   UNL     1      44.151   4.467  10.603  0.00  0.00    +0.000 A 
ATOM      5  C   UNL     1      43.750   3.148  10.861  0.00  0.00    +0.000 A 
ATOM      6  C   UNL     1      44.188   2.108  10.040  0.00  0.00    +0.000 A 
ATOM      7  C   UNL     1      45.017   2.370   8.944  0.00  0.00    +0.000 A 
ATOM      8  C   UNL     1      45.430   3.679   8.661  0.00  0.00    +0.000 A 
ATOM      9  C   UNL     1      45.005   4.715   9.510  0.00  0.00    +0.000 A 
BRANCH   8  10
ATOM     10  C   UNL     1      46.326   3.983   7.475  0.00  0.00    +0.000 C 
BRANCH  10  11
ATOM     11  C   UNL     1      46.743   2.713   6.735  0.00  0.00    +0.000 C 
ATOM     12  C   UNL     1      48.172   2.144   6.877  0.00  0.00    +0.000 C 
ATOM     13  N   UNL     1      48.212   1.920   5.418  0.00  0.00    +0.000 NA
ATOM     14  C   UNL     1      47.115   2.889   5.241  0.00  0.00    +0.000 C 
ATOM     15  H   UNL     1      47.964   0.970   5.143  0.00  0.00    +0.000 HD
ENDBRANCH  10  11
ENDBRANCH   8  10
ENDBRANCH   1   4
BRANCH   1  16
ATOM     16  C   UNL     1      44.462   5.729  12.752  0.00  0.00    +0.000 C 
BRANCH  16  21
ATOM     17  C   UNL     1      48.882   7.740  12.177  0.00  0.00    +0.000 A 
ATOM     18  C   UNL     1      47.934   8.734  12.117  0.00  0.00    +0.000 A 
ATOM     19  N   UNL     1      46.623   8.538  12.406  0.00  0.00    +0.000 NA
ATOM     20  C   UNL     1      46.258   7.303  12.778  0.00  0.00    +0.000 A 
ATOM     21  N   UNL     1      44.919   7.092  13.071  0.00  0.00    +0.000 N 
ATOM     22  N   UNL     1      47.118   6.276  12.865  0.00  0.00    +0.000 NA
ATOM     23  C   UNL     1      48.411   6.513  12.568  0.00  0.00    +0.000 A 
ATOM     24  H   UNL     1      44.370   7.852  12.680  0.00  0.00    +0.000 HD
BRANCH  17  26
ATOM     25  N   UNL     1      51.362   8.111  11.559  0.00  0.00    +0.000 NA
ATOM     26  C   UNL     1      50.245   7.952  11.845  0.00  0.00    +0.000 C 
ENDBRANCH  17  26
ENDBRANCH  16  21
ENDBRANCH   1  16
TORSDOF 6
ENDMDL
MODEL 4
REMARK VINA RESULT:    -7.340      2.866      3.407
REMARK INTER + INTRA:         -10.764
REMARK INTER:                 -10.074
REMARK INTRA:                  -0.689
REMARK UNBOUND:                -0.849
REMARK  Name = 
REMARK  6 active torsions:
REMARK  status: ('A' for Active; 'I' for Inactive)
REMARK    1  A    between atoms: C_2  and  C_3
REMARK    2  A    between atoms: N_7  and  C_8
REMARK    3  A    between atoms: C_8  and  C_9
REMARK    4  A    between atoms: C_9  and  C_12
REMARK    5  A    between atoms: C_16  and  C_17
REMARK    6  A    between atoms: C_17  and  C_18
REMARK                            x       y       z     vdW  Elec       q    Type
REMARK                         _______ _______ _______ _____ _____    ______ ____
ROOT
ATOM      1  C   UNL     1      44.905   5.372  12.052  0.00  0.00    +0.000 C 
ATOM      2  F   UNL     1      44.030   5.258  13.095  0.00  0.00    +0.000 F 
ATOM      3  F   UNL     1      45.703   4.262  12.127  0.00  0.00    +0.000 F 
ENDROOT
BRANCH   1   4
ATOM      4  C   UNL     1      45.702   6.667  12.119  0.00  0.00    +0.000 A 
ATOM      5  C   UNL     1      45.119   7.849  12.598  0.00  0.00    +0.000 A 
ATOM      6  C   UNL     1      45.882   9.013  12.708  0.00  0.00    +0.000 A 
ATOM      7  C   UNL     1      47.236   9.010  12.357  0.00  0.00    +0.000 A 
ATOM      8  C   UNL     1      47.844   7.842  11.878  0.00  0.00    +0.000 A 
ATOM      9  C   UNL     1      47.060   6.683  11.746  0.00  0.00    +0.000 A 
BRANCH   8  10
ATOM     10  C   UNL     1      49.312   7.819  11.495  0.00  0.00    +0.000 C 
BRANCH  10  11
ATOM     11  C   UNL     1      50.187   8.498  12.548  0.00  0.00    +0.000 C 
ATOM     12  C   UNL     1      51.726   8.513  12.411  0.00  0.00    +0.000 C 
ATOM     13  N   UNL     1      51.841   8.178  13.845  0.00  0.00    +0.000 NA
ATOM     14  C   UNL     1      50.451   7.685  13.840  0.00  0.00    +0.000 C 
ATOM     15  H   UNL     1      51.981   8.991  14.445  0.00  0.00    +0.000 HD
ENDBRANCH  10  11
ENDBRANCH   8  10
ENDBRANCH   1   4
BRANCH   1  16
ATOM     16  C   UNL     1      44.114   5.312  10.721  0.00  0.00    +0.000 C 
BRANCH  16  21
ATOM     17  C   UNL     1      46.552   2.490   7.559  0.00  0.00    +0.000 A 
ATOM     18  C   UNL     1      45.871   1.681   8.437  0.00  0.00    +0.000 A 
ATOM     19  N   UNL     1      44.966   2.144   9.335  0.00  0.00    +0.000 NA
ATOM     20  C   UNL     1      44.732   3.464   9.340  0.00  0.00    +0.000 A 
ATOM     21  N   UNL     1      43.811   3.948  10.257  0.00  0.00    +0.000 N 
ATOM     22  N   UNL     1      45.351   4.325   8.516  0.00  0.00    +0.000 NA
ATOM     23  C   UNL     1      46.243   3.822   7.640  0.00  0.00    +0.000 A 
ATOM     24  H   UNL     1      43.665   3.250  10.981  0.00  0.00    +0.000 HD
BRANCH  17  26
ATOM     25  N   UNL     1      48.298   1.597   5.878  0.00  0.00    +0.000 NA
ATOM     26  C   UNL     1      47.517   1.995   6.644  0.00  0.00    +0.000 C 
ENDBRANCH  17  26
ENDBRANCH  16  21
ENDBRANCH   1  16
TORSDOF 6
ENDMDL
MODEL 5
REMARK VINA RESULT:    -7.306      2.791      4.831
REMARK INTER + INTRA:         -10.718
REMARK INTER:                  -9.949
REMARK INTRA:                  -0.769
REMARK UNBOUND:                -0.849
REMARK  Name = 
REMARK  6 active torsions:
REMARK  status: ('A' for Active; 'I' for Inactive)
REMARK    1  A    between atoms: C_2  and  C_3
REMARK    2  A    between atoms: N_7  and  C_8
REMARK    3  A    between atoms: C_8  and  C_9
REMARK    4  A    between atoms: C_9  and  C_12
REMARK    5  A    between atoms: C_16  and  C_17
REMARK    6  A    between atoms: C_17  and  C_18
REMARK                            x       y       z     vdW  Elec       q    Type
REMARK                         _______ _______ _______ _____ _____    ______ ____
ROOT
ATOM      1  C   UNL     1      44.566   5.203  12.239  0.00  0.00    +0.000 C 
ATOM      2  F   UNL     1      43.499   5.159  13.090  0.00  0.00    +0.000 F 
ATOM      3  F   UNL     1      45.276   4.060  12.490  0.00  0.00    +0.000 F 
ENDROOT
BRANCH   1   4
ATOM      4  C   UNL     1      45.398   6.462  12.437  0.00  0.00    +0.000 A 
ATOM      5  C   UNL     1      46.694   6.395  12.970  0.00  0.00    +0.000 A 
ATOM      6  C   UNL     1      47.464   7.553  13.089  0.00  0.00    +0.000 A 
ATOM      7  C   UNL     1      46.960   8.787  12.665  0.00  0.00    +0.000 A 
ATOM      8  C   UNL     1      45.671   8.882  12.126  0.00  0.00    +0.000 A 
ATOM      9  C   UNL     1      44.894   7.715  12.035  0.00  0.00    +0.000 A 
BRANCH   8  10
ATOM     10  C   UNL     1      45.109  10.211  11.658  0.00  0.00    +0.000 C 
BRANCH  10  11
ATOM     11  C   UNL     1      43.801  10.037  10.886  0.00  0.00    +0.000 C 
ATOM     12  C   UNL     1      43.637  10.616   9.463  0.00  0.00    +0.000 C 
ATOM     13  N   UNL     1      42.295  11.108   9.834  0.00  0.00    +0.000 NA
ATOM     14  C   UNL     1      42.657  11.012  11.261  0.00  0.00    +0.000 C 
ATOM     15  H   UNL     1      41.539  10.480   9.563  0.00  0.00    +0.000 HD
ENDBRANCH  10  11
ENDBRANCH   8  10
ENDBRANCH   1   4
BRANCH   1  16
ATOM     16  C   UNL     1      44.050   5.141  10.779  0.00  0.00    +0.000 C 
BRANCH  16  21
ATOM     17  C   UNL     1      46.585   2.542   7.504  0.00  0.00    +0.000 A 
ATOM     18  C   UNL     1      45.958   1.674   8.366  0.00  0.00    +0.000 A 
ATOM     19  N   UNL     1      45.042   2.064   9.288  0.00  0.00    +0.000 NA
ATOM     20  C   UNL     1      44.741   3.369   9.335  0.00  0.00    +0.000 A 
ATOM     21  N   UNL     1      43.810   3.778  10.278  0.00  0.00    +0.000 N 
ATOM     22  N   UNL     1      45.304   4.284   8.530  0.00  0.00    +0.000 NA
ATOM     23  C   UNL     1      46.210   3.855   7.629  0.00  0.00    +0.000 A 
ATOM     24  H   UNL     1      43.710   3.053  10.982  0.00  0.00    +0.000 HD
BRANCH  17  26
ATOM     25  N   UNL     1      48.354   1.765   5.791  0.00  0.00    +0.000 NA
ATOM     26  C   UNL     1      47.561   2.125   6.563  0.00  0.00    +0.000 C 
ENDBRANCH  17  26
ENDBRANCH  16  21
ENDBRANCH   1  16
TORSDOF 6
ENDMDL
MODEL 6
REMARK VINA RESULT:    -7.295      3.028      8.078
REMARK INTER + INTRA:         -10.703
REMARK INTER:                 -10.001
REMARK INTRA:                  -0.702
REMARK UNBOUND:                -0.849
REMARK  Name = 
REMARK  6 active torsions:
REMARK  status: ('A' for Active; 'I' for Inactive)
REMARK    1  A    between atoms: C_2  and  C_3
REMARK    2  A    between atoms: N_7  and  C_8
REMARK    3  A    between atoms: C_8  and  C_9
REMARK    4  A    between atoms: C_9  and  C_12
REMARK    5  A    between atoms: C_16  and  C_17
REMARK    6  A    between atoms: C_17  and  C_18
REMARK                            x       y       z     vdW  Elec       q    Type
REMARK                         _______ _______ _______ _____ _____    ______ ____
ROOT
ATOM      1  C   UNL     1      45.738   6.162  11.215  0.00  0.00    +0.000 C 
ATOM      2  F   UNL     1      44.864   7.175  10.940  0.00  0.00    +0.000 F 
ATOM      3  F   UNL     1      46.960   6.614  10.795  0.00  0.00    +0.000 F 
ENDROOT
BRANCH   1   4
ATOM      4  C   UNL     1      45.332   4.863  10.534  0.00  0.00    +0.000 A 
ATOM      5  C   UNL     1      44.582   3.894  11.216  0.00  0.00    +0.000 A 
ATOM      6  C   UNL     1      44.168   2.735  10.558  0.00  0.00    +0.000 A 
ATOM      7  C   UNL     1      44.482   2.534   9.210  0.00  0.00    +0.000 A 
ATOM      8  C   UNL     1      45.228   3.487   8.503  0.00  0.00    +0.000 A 
ATOM      9  C   UNL     1      45.662   4.637   9.184  0.00  0.00    +0.000 A 
BRANCH   8  10
ATOM     10  C   UNL     1      45.576   3.288   7.040  0.00  0.00    +0.000 C 
BRANCH  10  11
ATOM     11  C   UNL     1      47.062   2.993   6.842  0.00  0.00    +0.000 C 
ATOM     12  C   UNL     1      47.641   2.745   5.432  0.00  0.00    +0.000 C 
ATOM     13  N   UNL     1      48.416   1.607   5.966  0.00  0.00    +0.000 NA
ATOM     14  C   UNL     1      47.509   1.537   7.126  0.00  0.00    +0.000 C 
ATOM     15  H   UNL     1      49.376   1.846   6.214  0.00  0.00    +0.000 HD
ENDBRANCH  10  11
ENDBRANCH   8  10
ENDBRANCH   1   4
BRANCH   1  16
ATOM     16  C   UNL     1      45.800   5.952  12.749  0.00  0.00    +0.000 C 
BRANCH  16  21
ATOM     17  C   UNL     1      49.058   8.130  15.673  0.00  0.00    +0.000 A 
ATOM     18  C   UNL     1      49.176   6.768  15.818  0.00  0.00    +0.000 A 
ATOM     19  N   UNL     1      48.535   5.872  15.028  0.00  0.00    +0.000 NA
ATOM     20  C   UNL     1      47.759   6.364  14.052  0.00  0.00    +0.000 A 
ATOM     21  N   UNL     1      47.095   5.455  13.241  0.00  0.00    +0.000 N 
ATOM     22  N   UNL     1      47.588   7.678  13.839  0.00  0.00    +0.000 NA
ATOM     23  C   UNL     1      48.243   8.535  14.648  0.00  0.00    +0.000 A 
ATOM     24  H   UNL     1      47.082   4.549  13.700  0.00  0.00    +0.000 HD
BRANCH  17  26
ATOM     25  N   UNL     1      50.234   9.828  17.223  0.00  0.00    +0.000 NA
ATOM     26  C   UNL     1      49.713   9.057  16.525  0.00  0.00    +0.000 C 
ENDBRANCH  17  26
ENDBRANCH  16  21
ENDBRANCH   1  16
TORSDOF 6
ENDMDL
MODEL 7
REMARK VINA RESULT:    -7.174      1.891      2.496
REMARK INTER + INTRA:         -10.539
REMARK INTER:                  -9.903
REMARK INTRA:                  -0.636
REMARK UNBOUND:                -0.849
REMARK  Name = 
REMARK  6 active torsions:
REMARK  status: ('A' for Active; 'I' for Inactive)
REMARK    1  A    between atoms: C_2  and  C_3
REMARK    2  A    between atoms: N_7  and  C_8
REMARK    3  A    between atoms: C_8  and  C_9
REMARK    4  A    between atoms: C_9  and  C_12
REMARK    5  A    between atoms: C_16  and  C_17
REMARK    6  A    between atoms: C_17  and  C_18
REMARK                            x       y       z     vdW  Elec       q    Type
REMARK                         _______ _______ _______ _____ _____    ______ ____
ROOT
ATOM      1  C   UNL     1      44.825   5.484  12.031  0.00  0.00    +0.000 C 
ATOM      2  F   UNL     1      43.968   5.155  13.042  0.00  0.00    +0.000 F 
ATOM      3  F   UNL     1      45.812   4.536  12.070  0.00  0.00    +0.000 F 
ENDROOT
BRANCH   1   4
ATOM      4  C   UNL     1      45.369   6.897  12.185  0.00  0.00    +0.000 A 
ATOM      5  C   UNL     1      44.701   7.994  11.620  0.00  0.00    +0.000 A 
ATOM      6  C   UNL     1      45.182   9.288  11.822  0.00  0.00    +0.000 A 
ATOM      7  C   UNL     1      46.322   9.508  12.602  0.00  0.00    +0.000 A 
ATOM      8  C   UNL     1      47.007   8.431  13.181  0.00  0.00    +0.000 A 
ATOM      9  C   UNL     1      46.530   7.130  12.948  0.00  0.00    +0.000 A 
BRANCH   8  10
ATOM     10  C   UNL     1      48.243   8.650  14.032  0.00  0.00    +0.000 C 
BRANCH  10  11
ATOM     11  C   UNL     1      48.952   7.336  14.357  0.00  0.00    +0.000 C 
ATOM     12  C   UNL     1      48.746   6.640  15.721  0.00  0.00    +0.000 C 
ATOM     13  N   UNL     1      50.200   6.391  15.796  0.00  0.00    +0.000 NA
ATOM     14  C   UNL     1      50.432   7.454  14.801  0.00  0.00    +0.000 C 
ATOM     15  H   UNL     1      50.473   5.463  15.472  0.00  0.00    +0.000 HD
ENDBRANCH  10  11
ENDBRANCH   8  10
ENDBRANCH   1   4
BRANCH   1  16
ATOM     16  C   UNL     1      44.082   5.354  10.678  0.00  0.00    +0.000 C 
BRANCH  16  21
ATOM     17  C   UNL     1      46.533   2.520   7.536  0.00  0.00    +0.000 A 
ATOM     18  C   UNL     1      45.904   1.716   8.457  0.00  0.00    +0.000 A 
ATOM     19  N   UNL     1      45.007   2.176   9.365  0.00  0.00    +0.000 NA
ATOM     20  C   UNL     1      44.727   3.486   9.336  0.00  0.00    +0.000 A 
ATOM     21  N   UNL     1      43.814   3.967  10.263  0.00  0.00    +0.000 N 
ATOM     22  N   UNL     1      45.294   4.342   8.470  0.00  0.00    +0.000 NA
ATOM     23  C   UNL     1      46.180   3.843   7.586  0.00  0.00    +0.000 A 
ATOM     24  H   UNL     1      43.712   3.288  11.011  0.00  0.00    +0.000 HD
BRANCH  17  26
ATOM     25  N   UNL     1      48.267   1.611   5.852  0.00  0.00    +0.000 NA
ATOM     26  C   UNL     1      47.490   2.030   6.611  0.00  0.00    +0.000 C 
ENDBRANCH  17  26
ENDBRANCH  16  21
ENDBRANCH   1  16
TORSDOF 6
ENDMDL
MODEL 8
REMARK VINA RESULT:    -7.024      2.272      7.274
REMARK INTER + INTRA:         -10.337
REMARK INTER:                  -9.774
REMARK INTRA:                  -0.563
REMARK UNBOUND:                -0.849
REMARK  Name = 
REMARK  6 active torsions:
REMARK  status: ('A' for Active; 'I' for Inactive)
REMARK    1  A    between atoms: C_2  and  C_3
REMARK    2  A    between atoms: N_7  and  C_8
REMARK    3  A    between atoms: C_8  and  C_9
REMARK    4  A    between atoms: C_9  and  C_12
REMARK    5  A    between atoms: C_16  and  C_17
REMARK    6  A    between atoms: C_17  and  C_18
REMARK                            x       y       z     vdW  Elec       q    Type
REMARK                         _______ _______ _______ _____ _____    ______ ____
ROOT
ATOM      1  C   UNL     1      43.579   4.024  11.910  0.00  0.00    +0.000 C 
ATOM      2  F   UNL     1      43.469   2.672  12.069  0.00  0.00    +0.000 F 
ATOM      3  F   UNL     1      42.295   4.480  11.784  0.00  0.00    +0.000 F 
ENDROOT
BRANCH   1   4
ATOM      4  C   UNL     1      44.446   4.386  10.712  0.00  0.00    +0.000 A 
ATOM      5  C   UNL     1      45.106   5.622  10.644  0.00  0.00    +0.000 A 
ATOM      6  C   UNL     1      45.943   5.911   9.566  0.00  0.00    +0.000 A 
ATOM      7  C   UNL     1      46.146   4.970   8.552  0.00  0.00    +0.000 A 
ATOM      8  C   UNL     1      45.502   3.727   8.596  0.00  0.00    +0.000 A 
ATOM      9  C   UNL     1      44.640   3.456   9.672  0.00  0.00    +0.000 A 
BRANCH   8  10
ATOM     10  C   UNL     1      45.711   2.692   7.507  0.00  0.00    +0.000 C 
BRANCH  10  11
ATOM     11  C   UNL     1      47.039   2.893   6.776  0.00  0.00    +0.000 C 
ATOM     12  C   UNL     1      47.136   2.719   5.245  0.00  0.00    +0.000 C 
ATOM     13  N   UNL     1      48.392   1.963   5.426  0.00  0.00    +0.000 NA
ATOM     14  C   UNL     1      48.031   1.705   6.833  0.00  0.00    +0.000 C 
ATOM     15  H   UNL     1      49.231   2.532   5.319  0.00  0.00    +0.000 HD
ENDBRANCH  10  11
ENDBRANCH   8  10
ENDBRANCH   1   4
BRANCH   1  16
ATOM     16  C   UNL     1      44.186   4.635  13.198  0.00  0.00    +0.000 C 
BRANCH  16  21
ATOM     17  C   UNL     1      48.380   6.547  14.832  0.00  0.00    +0.000 A 
ATOM     18  C   UNL     1      48.203   5.313  15.412  0.00  0.00    +0.000 A 
ATOM     19  N   UNL     1      47.225   4.447  15.045  0.00  0.00    +0.000 NA
ATOM     20  C   UNL     1      46.407   4.832  14.057  0.00  0.00    +0.000 A 
ATOM     21  N   UNL     1      45.401   3.956  13.678  0.00  0.00    +0.000 N 
ATOM     22  N   UNL     1      46.510   6.019  13.436  0.00  0.00    +0.000 NA
ATOM     23  C   UNL     1      47.494   6.850  13.831  0.00  0.00    +0.000 A 
ATOM     24  H   UNL     1      45.268   3.266  14.412  0.00  0.00    +0.000 HD
BRANCH  17  26
ATOM     25  N   UNL     1      50.227   8.196  15.565  0.00  0.00    +0.000 NA
ATOM     26  C   UNL     1      49.389   7.455  15.244  0.00  0.00    +0.000 C 
ENDBRANCH  17  26
ENDBRANCH  16  21
ENDBRANCH   1  16
TORSDOF 6
ENDMDL
MODEL 9
REMARK VINA RESULT:    -6.887      2.168      7.839
REMARK INTER + INTRA:         -10.153
REMARK INTER:                  -9.776
REMARK INTRA:                  -0.376
REMARK UNBOUND:                -0.849
REMARK  Name = 
REMARK  6 active torsions:
REMARK  status: ('A' for Active; 'I' for Inactive)
REMARK    1  A    between atoms: C_2  and  C_3
REMARK    2  A    between atoms: N_7  and  C_8
REMARK    3  A    between atoms: C_8  and  C_9
REMARK    4  A    between atoms: C_9  and  C_12
REMARK    5  A    between atoms: C_16  and  C_17
REMARK    6  A    between atoms: C_17  and  C_18
REMARK                            x       y       z     vdW  Elec       q    Type
REMARK                         _______ _______ _______ _____ _____    ______ ____
ROOT
ATOM      1  C   UNL     1      44.549   3.751  12.519  0.00  0.00    +0.000 C 
ATOM      2  F   UNL     1      43.967   2.519  12.415  0.00  0.00    +0.000 F 
ATOM      3  F   UNL     1      43.600   4.553  13.092  0.00  0.00    +0.000 F 
ENDROOT
BRANCH   1   4
ATOM      4  C   UNL     1      45.014   4.273  11.166  0.00  0.00    +0.000 A 
ATOM      5  C   UNL     1      45.451   5.597  11.015  0.00  0.00    +0.000 A 
ATOM      6  C   UNL     1      45.930   6.041   9.781  0.00  0.00    +0.000 A 
ATOM      7  C   UNL     1      45.993   5.169   8.689  0.00  0.00    +0.000 A 
ATOM      8  C   UNL     1      45.566   3.840   8.813  0.00  0.00    +0.000 A 
ATOM      9  C   UNL     1      45.060   3.411  10.053  0.00  0.00    +0.000 A 
BRANCH   8  10
ATOM     10  C   UNL     1      45.630   2.880   7.641  0.00  0.00    +0.000 C 
BRANCH  10  11
ATOM     11  C   UNL     1      46.987   2.924   6.941  0.00  0.00    +0.000 C 
ATOM     12  C   UNL     1      47.098   2.731   5.412  0.00  0.00    +0.000 C 
ATOM     13  N   UNL     1      48.255   1.838   5.624  0.00  0.00    +0.000 NA
ATOM     14  C   UNL     1      47.837   1.631   7.023  0.00  0.00    +0.000 C 
ATOM     15  H   UNL     1      49.156   2.307   5.534  0.00  0.00    +0.000 HD
ENDBRANCH  10  11
ENDBRANCH   8  10
ENDBRANCH   1   4
BRANCH   1  16
ATOM     16  C   UNL     1      45.755   3.659  13.487  0.00  0.00    +0.000 C 
BRANCH  16  21
ATOM     17  C   UNL     1      48.927   4.586  17.091  0.00  0.00    +0.000 A 
ATOM     18  C   UNL     1      48.902   5.664  16.237  0.00  0.00    +0.000 A 
ATOM     19  N   UNL     1      48.006   5.799  15.228  0.00  0.00    +0.000 NA
ATOM     20  C   UNL     1      47.100   4.823  15.081  0.00  0.00    +0.000 A 
ATOM     21  N   UNL     1      46.182   4.950  14.049  0.00  0.00    +0.000 N 
ATOM     22  N   UNL     1      47.052   3.738  15.870  0.00  0.00    +0.000 NA
ATOM     23  C   UNL     1      47.961   3.642  16.860  0.00  0.00    +0.000 A 
ATOM     24  H   UNL     1      46.524   5.638  13.384  0.00  0.00    +0.000 HD
BRANCH  17  26
ATOM     25  N   UNL     1      50.666   4.310  18.980  0.00  0.00    +0.000 NA
ATOM     26  C   UNL     1      49.888   4.443  18.125  0.00  0.00    +0.000 C 
ENDBRANCH  17  26
ENDBRANCH  16  21
ENDBRANCH   1  16
TORSDOF 6
ENDMDL
