MODEL 1
REMARK VINA RESULT:    -8.471      0.000      0.000
REMARK INTER + INTRA:         -12.081
REMARK INTER:                 -10.946
REMARK INTRA:                  -1.134
REMARK UNBOUND:                -1.134
REMARK  Name = 
REMARK  8 active torsions:
REMARK  status: ('A' for Active; 'I' for Inactive)
REMARK    1  A    between atoms: C_1  and  C_2
REMARK    2  A    between atoms: N_4  and  C_5
REMARK    3  A    between atoms: C_8  and  C_9
REMARK    4  A    between atoms: C_9  and  O_10
REMARK    5  A    between atoms: O_10  and  C_11
REMARK    6  A    between atoms: C_14  and  C_15
REMARK    7  A    between atoms: C_23  and  C_24
REMARK    8  A    between atoms: C_23  and  C_25
REMARK                            x       y       z     vdW  Elec       q    Type
REMARK                         _______ _______ _______ _____ _____    ______ ____
ROOT
ATOM      1  C   UNL     1      46.969   6.843  12.953  0.00  0.00    +0.000 A 
ATOM      2  C   UNL     1      45.998   7.359  12.082  0.00  0.00    +0.000 A 
ATOM      3  C   UNL     1      44.952   6.571  11.582  0.00  0.00    +0.000 A 
ATOM      4  C   UNL     1      44.840   5.231  11.953  0.00  0.00    +0.000 A 
ATOM      5  C   UNL     1      45.814   4.686  12.785  0.00  0.00    +0.000 A 
ATOM      6  C   UNL     1      46.854   5.480  13.272  0.00  0.00    +0.000 A 
ENDROOT
BRANCH   1  10
ATOM      7  C   UNL     1      50.459   7.739  11.398  0.00  0.00    +0.000 C 
ATOM      8  C   UNL     1      50.344   8.081  12.881  0.00  0.00    +0.000 C 
ATOM      9  C   UNL     1      49.360   7.155  13.634  0.00  0.00    +0.000 C 
ATOM     10  N   UNL     1      47.980   7.624  13.466  0.00  0.00    +0.000 N 
ATOM     11  C   UNL     1      47.796   9.033  13.833  0.00  0.00    +0.000 C 
ATOM     12  C   UNL     1      48.747   9.940  13.016  0.00  0.00    +0.000 C 
ATOM     13  C   UNL     1      48.304  10.098  11.555  0.00  0.00    +0.000 C 
ATOM     14  C   UNL     1      48.730  11.342  13.648  0.00  0.00    +0.000 C 
ATOM     15  O   UNL     1      50.116   9.488  13.100  0.00  0.00    +0.000 OA
ENDBRANCH   1  10
BRANCH   4  16
ATOM     16  C   UNL     1      43.695   4.380  11.473  0.00  0.00    +0.000 C 
BRANCH  16  17
ATOM     17  O   UNL     1      43.597   4.479  10.054  0.00  0.00    +0.000 OA
BRANCH  17  18
ATOM     18  C   UNL     1      44.497   3.741   9.338  0.00  0.00    +0.000 A 
ATOM     19  C   UNL     1      44.701   2.363   9.455  0.00  0.00    +0.000 A 
ATOM     20  C   UNL     1      45.652   1.722   8.659  0.00  0.00    +0.000 A 
ATOM     21  C   UNL     1      46.405   2.448   7.730  0.00  0.00    +0.000 A 
ATOM     22  C   UNL     1      46.214   3.829   7.619  0.00  0.00    +0.000 A 
ATOM     23  C   UNL     1      45.265   4.468   8.423  0.00  0.00    +0.000 A 
BRANCH  21  24
ATOM     24  C   UNL     1      47.402   1.711   6.915  0.00  0.00    +0.000 C 
ATOM     25  N   UNL     1      48.517   2.392   6.511  0.00  0.00    +0.000 N 
ATOM     26  O   UNL     1      47.224   0.548   6.581  0.00  0.00    +0.000 OA
ATOM     27  H   UNL     1      48.623   3.392   6.603  0.00  0.00    +0.000 HD
ATOM     28  H   UNL     1      49.140   1.904   5.880  0.00  0.00    +0.000 HD
ENDBRANCH  21  24
ENDBRANCH  17  18
ENDBRANCH  16  17
ENDBRANCH   4  16
TORSDOF 5
ENDMDL
MODEL 2
REMARK VINA RESULT:    -8.254      0.976      1.490
REMARK INTER + INTRA:         -11.800
REMARK INTER:                 -10.773
REMARK INTRA:                  -1.027
REMARK UNBOUND:                -1.134
REMARK  Name = 
REMARK  8 active torsions:
REMARK  status: ('A' for Active; 'I' for Inactive)
REMARK    1  A    between atoms: C_1  and  C_2
REMARK    2  A    between atoms: N_4  and  C_5
REMARK    3  A    between atoms: C_8  and  C_9
REMARK    4  A    between atoms: C_9  and  O_10
REMARK    5  A    between atoms: O_10  and  C_11
REMARK    6  A    between atoms: C_14  and  C_15
REMARK    7  A    between atoms: C_23  and  C_24
REMARK    8  A    between atoms: C_23  and  C_25
REMARK                            x       y       z     vdW  Elec       q    Type
REMARK                         _______ _______ _______ _____ _____    ______ ____
ROOT
ATOM      1  C   UNL     1      47.425   6.221  12.790  0.00  0.00    +0.000 A 
ATOM      2  C   UNL     1      46.637   6.894  11.844  0.00  0.00    +0.000 A 
ATOM      3  C   UNL     1      45.431   6.362  11.365  0.00  0.00    +0.000 A 
ATOM      4  C   UNL     1      44.968   5.132  11.832  0.00  0.00    +0.000 A 
ATOM      5  C   UNL     1      45.752   4.427  12.741  0.00  0.00    +0.000 A 
ATOM      6  C   UNL     1      46.954   4.965  13.207  0.00  0.00    +0.000 A 
ENDROOT
BRANCH   1  10
ATOM      7  C   UNL     1      49.021   9.747  12.138  0.00  0.00    +0.000 C 
ATOM      8  C   UNL     1      49.975   8.755  12.800  0.00  0.00    +0.000 C 
ATOM      9  C   UNL     1      49.663   7.287  12.429  0.00  0.00    +0.000 C 
ATOM     10  N   UNL     1      48.594   6.755  13.282  0.00  0.00    +0.000 N 
ATOM     11  C   UNL     1      48.861   6.914  14.715  0.00  0.00    +0.000 C 
ATOM     12  C   UNL     1      49.104   8.401  15.066  0.00  0.00    +0.000 C 
ATOM     13  C   UNL     1      47.811   9.230  15.055  0.00  0.00    +0.000 C 
ATOM     14  C   UNL     1      49.671   8.469  16.494  0.00  0.00    +0.000 C 
ATOM     15  O   UNL     1      50.110   8.992  14.216  0.00  0.00    +0.000 OA
ENDBRANCH   1  10
BRANCH   4  16
ATOM     16  C   UNL     1      43.652   4.568  11.374  0.00  0.00    +0.000 C 
BRANCH  16  17
ATOM     17  O   UNL     1      43.595   4.598   9.950  0.00  0.00    +0.000 OA
BRANCH  17  18
ATOM     18  C   UNL     1      44.463   3.767   9.297  0.00  0.00    +0.000 A 
ATOM     19  C   UNL     1      44.564   2.386   9.481  0.00  0.00    +0.000 A 
ATOM     20  C   UNL     1      45.490   1.643   8.747  0.00  0.00    +0.000 A 
ATOM     21  C   UNL     1      46.322   2.271   7.814  0.00  0.00    +0.000 A 
ATOM     22  C   UNL     1      46.234   3.656   7.636  0.00  0.00    +0.000 A 
ATOM     23  C   UNL     1      45.309   4.397   8.379  0.00  0.00    +0.000 A 
BRANCH  21  24
ATOM     24  C   UNL     1      47.289   1.430   7.066  0.00  0.00    +0.000 C 
ATOM     25  N   UNL     1      48.397   2.045   6.550  0.00  0.00    +0.000 N 
ATOM     26  O   UNL     1      47.092   0.238   6.881  0.00  0.00    +0.000 OA
ATOM     27  H   UNL     1      48.513   3.048   6.517  0.00  0.00    +0.000 HD
ATOM     28  H   UNL     1      48.997   1.477   5.966  0.00  0.00    +0.000 HD
ENDBRANCH  21  24
ENDBRANCH  17  18
ENDBRANCH  16  17
ENDBRANCH   4  16
TORSDOF 5
ENDMDL
MODEL 3
REMARK VINA RESULT:    -7.336      2.651      3.896
REMARK INTER + INTRA:         -10.615
REMARK INTER:                  -9.639
REMARK INTRA:                  -0.976
REMARK UNBOUND:                -1.134
REMARK  Name = 
REMARK  8 active torsions:
REMARK  status: ('A' for Active; 'I' for Inactive)
REMARK    1  A    between atoms: C_1  and  C_2
REMARK    2  A    between atoms: N_4  and  C_5
REMARK    3  A    between atoms: C_8  and  C_9
REMARK    4  A    between atoms: C_9  and  O_10
REMARK    5  A    between atoms: O_10  and  C_11
REMARK    6  A    between atoms: C_14  and  C_15
REMARK    7  A    between atoms: C_23  and  C_24
REMARK    8  A    between atoms: C_23  and  C_25
REMARK                            x       y       z     vdW  Elec       q    Type
REMARK                         _______ _______ _______ _____ _____    ______ ____
ROOT
ATOM      1  C   UNL     1      47.486   5.646  14.421  0.00  0.00    +0.000 A 
ATOM      2  C   UNL     1      46.441   4.715  14.326  0.00  0.00    +0.000 A 
ATOM      3  C   UNL     1      45.500   4.756  13.286  0.00  0.00    +0.000 A 
ATOM      4  C   UNL     1      45.586   5.734  12.295  0.00  0.00    +0.000 A 
ATOM      5  C   UNL     1      46.591   6.693  12.391  0.00  0.00    +0.000 A 
ATOM      6  C   UNL     1      47.519   6.645  13.434  0.00  0.00    +0.000 A 
ENDROOT
BRANCH   1  10
ATOM      7  C   UNL     1      48.208   8.210  17.304  0.00  0.00    +0.000 C 
ATOM      8  C   UNL     1      49.305   7.162  17.128  0.00  0.00    +0.000 C 
ATOM      9  C   UNL     1      49.411   6.649  15.673  0.00  0.00    +0.000 C 
ATOM     10  N   UNL     1      48.426   5.590  15.426  0.00  0.00    +0.000 N 
ATOM     11  C   UNL     1      48.492   4.496  16.400  0.00  0.00    +0.000 C 
ATOM     12  C   UNL     1      48.315   5.033  17.840  0.00  0.00    +0.000 C 
ATOM     13  C   UNL     1      46.865   5.431  18.150  0.00  0.00    +0.000 C 
ATOM     14  C   UNL     1      48.693   3.908  18.819  0.00  0.00    +0.000 C 
ATOM     15  O   UNL     1      49.225   6.118  18.119  0.00  0.00    +0.000 OA
ENDBRANCH   1  10
BRANCH   4  16
ATOM     16  C   UNL     1      44.622   5.764  11.141  0.00  0.00    +0.000 C 
BRANCH  16  17
ATOM     17  O   UNL     1      44.299   4.428  10.762  0.00  0.00    +0.000 OA
BRANCH  17  18
ATOM     18  C   UNL     1      45.014   3.912   9.717  0.00  0.00    +0.000 A 
ATOM     19  C   UNL     1      45.691   4.654   8.745  0.00  0.00    +0.000 A 
ATOM     20  C   UNL     1      46.393   4.006   7.728  0.00  0.00    +0.000 A 
ATOM     21  C   UNL     1      46.434   2.609   7.672  0.00  0.00    +0.000 A 
ATOM     22  C   UNL     1      45.747   1.862   8.635  0.00  0.00    +0.000 A 
ATOM     23  C   UNL     1      45.039   2.516   9.649  0.00  0.00    +0.000 A 
BRANCH  21  24
ATOM     24  C   UNL     1      47.193   1.978   6.565  0.00  0.00    +0.000 C 
ATOM     25  N   UNL     1      47.825   2.806   5.678  0.00  0.00    +0.000 N 
ATOM     26  O   UNL     1      47.227   0.764   6.421  0.00  0.00    +0.000 OA
ATOM     27  H   UNL     1      47.678   3.804   5.645  0.00  0.00    +0.000 HD
ATOM     28  H   UNL     1      48.259   2.363   4.878  0.00  0.00    +0.000 HD
ENDBRANCH  21  24
ENDBRANCH  17  18
ENDBRANCH  16  17
ENDBRANCH   4  16
TORSDOF 5
ENDMDL
MODEL 4
REMARK VINA RESULT:    -7.138      1.653      2.682
REMARK INTER + INTRA:         -10.359
REMARK INTER:                  -9.445
REMARK INTRA:                  -0.914
REMARK UNBOUND:                -1.134
REMARK  Name = 
REMARK  8 active torsions:
REMARK  status: ('A' for Active; 'I' for Inactive)
REMARK    1  A    between atoms: C_1  and  C_2
REMARK    2  A    between atoms: N_4  and  C_5
REMARK    3  A    between atoms: C_8  and  C_9
REMARK    4  A    between atoms: C_9  and  O_10
REMARK    5  A    between atoms: O_10  and  C_11
REMARK    6  A    between atoms: C_14  and  C_15
REMARK    7  A    between atoms: C_23  and  C_24
REMARK    8  A    between atoms: C_23  and  C_25
REMARK                            x       y       z     vdW  Elec       q    Type
REMARK                         _______ _______ _______ _____ _____    ______ ____
ROOT
ATOM      1  C   UNL     1      47.667   6.997  13.613  0.00  0.00    +0.000 A 
ATOM      2  C   UNL     1      46.854   7.465  12.570  0.00  0.00    +0.000 A 
ATOM      3  C   UNL     1      45.866   6.665  11.980  0.00  0.00    +0.000 A 
ATOM      4  C   UNL     1      45.652   5.362  12.429  0.00  0.00    +0.000 A 
ATOM      5  C   UNL     1      46.473   4.861  13.436  0.00  0.00    +0.000 A 
ATOM      6  C   UNL     1      47.458   5.666  14.013  0.00  0.00    +0.000 A 
ENDROOT
BRANCH   1  10
ATOM      7  C   UNL     1      47.897   8.239  17.329  0.00  0.00    +0.000 C 
ATOM      8  C   UNL     1      48.842   8.972  16.379  0.00  0.00    +0.000 C 
ATOM      9  C   UNL     1      48.303   9.031  14.930  0.00  0.00    +0.000 C 
ATOM     10  N   UNL     1      48.619   7.791  14.212  0.00  0.00    +0.000 N 
ATOM     11  C   UNL     1      50.042   7.441  14.254  0.00  0.00    +0.000 C 
ATOM     12  C   UNL     1      50.535   7.323  15.716  0.00  0.00    +0.000 C 
ATOM     13  C   UNL     1      50.038   6.046  16.407  0.00  0.00    +0.000 C 
ATOM     14  C   UNL     1      52.071   7.259  15.700  0.00  0.00    +0.000 C 
ATOM     15  O   UNL     1      50.199   8.497  16.487  0.00  0.00    +0.000 OA
ENDBRANCH   1  10
BRANCH   4  16
ATOM     16  C   UNL     1      44.561   4.504  11.848  0.00  0.00    +0.000 C 
BRANCH  16  17
ATOM     17  O   UNL     1      44.393   4.824  10.470  0.00  0.00    +0.000 OA
BRANCH  17  18
ATOM     18  C   UNL     1      45.069   4.033   9.583  0.00  0.00    +0.000 A 
ATOM     19  C   UNL     1      45.073   2.636   9.574  0.00  0.00    +0.000 A 
ATOM     20  C   UNL     1      45.803   1.940   8.608  0.00  0.00    +0.000 A 
ATOM     21  C   UNL     1      46.532   2.633   7.636  0.00  0.00    +0.000 A 
ATOM     22  C   UNL     1      46.543   4.031   7.649  0.00  0.00    +0.000 A 
ATOM     23  C   UNL     1      45.815   4.724   8.623  0.00  0.00    +0.000 A 
BRANCH  21  24
ATOM     24  C   UNL     1      47.291   1.838   6.638  0.00  0.00    +0.000 C 
ATOM     25  N   UNL     1      48.041   2.523   5.722  0.00  0.00    +0.000 N 
ATOM     26  O   UNL     1      47.224   0.618   6.605  0.00  0.00    +0.000 OA
ATOM     27  H   UNL     1      47.986   3.523   5.591  0.00  0.00    +0.000 HD
ATOM     28  H   UNL     1      48.477   1.971   4.993  0.00  0.00    +0.000 HD
ENDBRANCH  21  24
ENDBRANCH  17  18
ENDBRANCH  16  17
ENDBRANCH   4  16
TORSDOF 5
ENDMDL
MODEL 5
REMARK VINA RESULT:    -6.351      4.689      8.536
REMARK INTER + INTRA:          -9.341
REMARK INTER:                  -8.705
REMARK INTRA:                  -0.636
REMARK UNBOUND:                -1.134
REMARK  Name = 
REMARK  8 active torsions:
REMARK  status: ('A' for Active; 'I' for Inactive)
REMARK    1  A    between atoms: C_1  and  C_2
REMARK    2  A    between atoms: N_4  and  C_5
REMARK    3  A    between atoms: C_8  and  C_9
REMARK    4  A    between atoms: C_9  and  O_10
REMARK    5  A    between atoms: O_10  and  C_11
REMARK    6  A    between atoms: C_14  and  C_15
REMARK    7  A    between atoms: C_23  and  C_24
REMARK    8  A    between atoms: C_23  and  C_25
REMARK                            x       y       z     vdW  Elec       q    Type
REMARK                         _______ _______ _______ _____ _____    ______ ____
ROOT
ATOM      1  C   UNL     1      45.909   4.769  13.431  0.00  0.00    +0.000 A 
ATOM      2  C   UNL     1      46.284   4.032  14.564  0.00  0.00    +0.000 A 
ATOM      3  C   UNL     1      47.328   4.440  15.406  0.00  0.00    +0.000 A 
ATOM      4  C   UNL     1      48.028   5.617  15.143  0.00  0.00    +0.000 A 
ATOM      5  C   UNL     1      47.701   6.345  14.001  0.00  0.00    +0.000 A 
ATOM      6  C   UNL     1      46.662   5.926  13.167  0.00  0.00    +0.000 A 
ENDROOT
BRANCH   1  10
ATOM      7  C   UNL     1      43.505   6.973  11.248  0.00  0.00    +0.000 C 
ATOM      8  C   UNL     1      43.026   5.533  11.422  0.00  0.00    +0.000 C 
ATOM      9  C   UNL     1      43.501   4.904  12.753  0.00  0.00    +0.000 C 
ATOM     10  N   UNL     1      44.866   4.384  12.619  0.00  0.00    +0.000 N 
ATOM     11  C   UNL     1      45.030   3.464  11.488  0.00  0.00    +0.000 C 
ATOM     12  C   UNL     1      44.610   4.145  10.164  0.00  0.00    +0.000 C 
ATOM     13  C   UNL     1      45.638   5.177   9.677  0.00  0.00    +0.000 C 
ATOM     14  C   UNL     1      44.512   3.059   9.079  0.00  0.00    +0.000 C 
ATOM     15  O   UNL     1      43.292   4.725  10.258  0.00  0.00    +0.000 OA
ENDBRANCH   1  10
BRANCH   4  16
ATOM     16  C   UNL     1      49.114   6.103  16.062  0.00  0.00    +0.000 C 
BRANCH  16  17
ATOM     17  O   UNL     1      49.076   5.354  17.275  0.00  0.00    +0.000 OA
BRANCH  17  18
ATOM     18  C   UNL     1      50.078   4.440  17.446  0.00  0.00    +0.000 A 
ATOM     19  C   UNL     1      51.422   4.736  17.685  0.00  0.00    +0.000 A 
ATOM     20  C   UNL     1      52.351   3.707  17.849  0.00  0.00    +0.000 A 
ATOM     21  C   UNL     1      51.947   2.369  17.783  0.00  0.00    +0.000 A 
ATOM     22  C   UNL     1      50.605   2.068  17.530  0.00  0.00    +0.000 A 
ATOM     23  C   UNL     1      49.679   3.102  17.360  0.00  0.00    +0.000 A 
BRANCH  21  24
ATOM     24  C   UNL     1      52.981   1.320  17.962  0.00  0.00    +0.000 C 
ATOM     25  N   UNL     1      53.014   0.302  17.049  0.00  0.00    +0.000 N 
ATOM     26  O   UNL     1      53.755   1.337  18.908  0.00  0.00    +0.000 OA
ATOM     27  H   UNL     1      52.290   0.144  16.364  0.00  0.00    +0.000 HD
ATOM     28  H   UNL     1      53.663  -0.452  17.238  0.00  0.00    +0.000 HD
ENDBRANCH  21  24
ENDBRANCH  17  18
ENDBRANCH  16  17
ENDBRANCH   4  16
TORSDOF 5
ENDMDL
MODEL 6
REMARK VINA RESULT:    -6.162      4.048      9.031
REMARK INTER + INTRA:          -9.097
REMARK INTER:                  -8.281
REMARK INTRA:                  -0.817
REMARK UNBOUND:                -1.134
REMARK  Name = 
REMARK  8 active torsions:
REMARK  status: ('A' for Active; 'I' for Inactive)
REMARK    1  A    between atoms: C_1  and  C_2
REMARK    2  A    between atoms: N_4  and  C_5
REMARK    3  A    between atoms: C_8  and  C_9
REMARK    4  A    between atoms: C_9  and  O_10
REMARK    5  A    between atoms: O_10  and  C_11
REMARK    6  A    between atoms: C_14  and  C_15
REMARK    7  A    between atoms: C_23  and  C_24
REMARK    8  A    between atoms: C_23  and  C_25
REMARK                            x       y       z     vdW  Elec       q    Type
REMARK                         _______ _______ _______ _____ _____    ______ ____
ROOT
ATOM      1  C   UNL     1      46.055   5.107  13.213  0.00  0.00    +0.000 A 
ATOM      2  C   UNL     1      46.395   6.363  12.689  0.00  0.00    +0.000 A 
ATOM      3  C   UNL     1      47.445   7.130  13.216  0.00  0.00    +0.000 A 
ATOM      4  C   UNL     1      48.200   6.651  14.286  0.00  0.00    +0.000 A 
ATOM      5  C   UNL     1      47.856   5.425  14.849  0.00  0.00    +0.000 A 
ATOM      6  C   UNL     1      46.805   4.673  14.319  0.00  0.00    +0.000 A 
ENDROOT
BRANCH   1  10
ATOM      7  C   UNL     1      42.816   6.237  11.306  0.00  0.00    +0.000 C 
ATOM      8  C   UNL     1      42.790   4.775  11.745  0.00  0.00    +0.000 C 
ATOM      9  C   UNL     1      43.628   4.518  13.020  0.00  0.00    +0.000 C 
ATOM     10  N   UNL     1      45.043   4.342  12.678  0.00  0.00    +0.000 N 
ATOM     11  C   UNL     1      45.272   3.315  11.656  0.00  0.00    +0.000 C 
ATOM     12  C   UNL     1      44.472   3.634  10.370  0.00  0.00    +0.000 C 
ATOM     13  C   UNL     1      45.081   4.793   9.568  0.00  0.00    +0.000 C 
ATOM     14  C   UNL     1      44.505   2.391   9.465  0.00  0.00    +0.000 C 
ATOM     15  O   UNL     1      43.077   3.874  10.656  0.00  0.00    +0.000 OA
ENDBRANCH   1  10
BRANCH   4  16
ATOM     16  C   UNL     1      49.364   7.432  14.832  0.00  0.00    +0.000 C 
BRANCH  16  17
ATOM     17  O   UNL     1      48.974   8.077  16.042  0.00  0.00    +0.000 OA
BRANCH  17  18
ATOM     18  C   UNL     1      49.037   7.315  17.175  0.00  0.00    +0.000 A 
ATOM     19  C   UNL     1      48.046   7.227  18.156  0.00  0.00    +0.000 A 
ATOM     20  C   UNL     1      48.229   6.405  19.270  0.00  0.00    +0.000 A 
ATOM     21  C   UNL     1      49.401   5.656  19.414  0.00  0.00    +0.000 A 
ATOM     22  C   UNL     1      50.402   5.752  18.441  0.00  0.00    +0.000 A 
ATOM     23  C   UNL     1      50.217   6.581  17.330  0.00  0.00    +0.000 A 
BRANCH  21  24
ATOM     24  C   UNL     1      49.539   4.804  20.620  0.00  0.00    +0.000 C 
ATOM     25  N   UNL     1      50.794   4.639  21.139  0.00  0.00    +0.000 N 
ATOM     26  O   UNL     1      48.577   4.235  21.117  0.00  0.00    +0.000 OA
ATOM     27  H   UNL     1      51.636   4.933  20.666  0.00  0.00    +0.000 HD
ATOM     28  H   UNL     1      50.883   3.982  21.904  0.00  0.00    +0.000 HD
ENDBRANCH  21  24
ENDBRANCH  17  18
ENDBRANCH  16  17
ENDBRANCH   4  16
TORSDOF 5
ENDMDL
MODEL 7
REMARK VINA RESULT:    -6.047      3.870      5.663
REMARK INTER + INTRA:          -8.949
REMARK INTER:                  -7.893
REMARK INTRA:                  -1.056
REMARK UNBOUND:                -1.134
REMARK  Name = 
REMARK  8 active torsions:
REMARK  status: ('A' for Active; 'I' for Inactive)
REMARK    1  A    between atoms: C_1  and  C_2
REMARK    2  A    between atoms: N_4  and  C_5
REMARK    3  A    between atoms: C_8  and  C_9
REMARK    4  A    between atoms: C_9  and  O_10
REMARK    5  A    between atoms: O_10  and  C_11
REMARK    6  A    between atoms: C_14  and  C_15
REMARK    7  A    between atoms: C_23  and  C_24
REMARK    8  A    between atoms: C_23  and  C_25
REMARK                            x       y       z     vdW  Elec       q    Type
REMARK                         _______ _______ _______ _____ _____    ______ ____
ROOT
ATOM      1  C   UNL     1      48.913   7.667  16.189  0.00  0.00    +0.000 A 
ATOM      2  C   UNL     1      48.377   8.873  15.714  0.00  0.00    +0.000 A 
ATOM      3  C   UNL     1      47.929   9.019  14.393  0.00  0.00    +0.000 A 
ATOM      4  C   UNL     1      47.994   7.947  13.503  0.00  0.00    +0.000 A 
ATOM      5  C   UNL     1      48.559   6.752  13.941  0.00  0.00    +0.000 A 
ATOM      6  C   UNL     1      49.007   6.620  15.257  0.00  0.00    +0.000 A 
ENDROOT
BRANCH   1  10
ATOM      7  C   UNL     1      47.291   9.027  19.495  0.00  0.00    +0.000 C 
ATOM      8  C   UNL     1      48.714   8.503  19.681  0.00  0.00    +0.000 C 
ATOM      9  C   UNL     1      49.573   8.640  18.402  0.00  0.00    +0.000 C 
ATOM     10  N   UNL     1      49.327   7.514  17.493  0.00  0.00    +0.000 N 
ATOM     11  C   UNL     1      49.497   6.204  18.131  0.00  0.00    +0.000 C 
ATOM     12  C   UNL     1      48.576   6.073  19.367  0.00  0.00    +0.000 C 
ATOM     13  C   UNL     1      47.102   5.873  18.988  0.00  0.00    +0.000 C 
ATOM     14  C   UNL     1      49.012   4.828  20.158  0.00  0.00    +0.000 C 
ATOM     15  O   UNL     1      48.736   7.187  20.271  0.00  0.00    +0.000 OA
ENDBRANCH   1  10
BRANCH   4  16
ATOM     16  C   UNL     1      47.469   8.064  12.099  0.00  0.00    +0.000 C 
BRANCH  16  17
ATOM     17  O   UNL     1      46.045   7.998  12.120  0.00  0.00    +0.000 OA
BRANCH  17  18
ATOM     18  C   UNL     1      45.500   6.762  11.914  0.00  0.00    +0.000 A 
ATOM     19  C   UNL     1      44.728   6.046  12.833  0.00  0.00    +0.000 A 
ATOM     20  C   UNL     1      44.221   4.789  12.498  0.00  0.00    +0.000 A 
ATOM     21  C   UNL     1      44.472   4.235  11.239  0.00  0.00    +0.000 A 
ATOM     22  C   UNL     1      45.255   4.942  10.320  0.00  0.00    +0.000 A 
ATOM     23  C   UNL     1      45.767   6.198  10.662  0.00  0.00    +0.000 A 
BRANCH  21  24
ATOM     24  C   UNL     1      43.909   2.895  10.943  0.00  0.00    +0.000 C 
ATOM     25  N   UNL     1      44.483   2.176   9.930  0.00  0.00    +0.000 N 
ATOM     26  O   UNL     1      42.944   2.456  11.552  0.00  0.00    +0.000 OA
ATOM     27  H   UNL     1      45.155   2.563   9.283  0.00  0.00    +0.000 HD
ATOM     28  H   UNL     1      44.029   1.306   9.681  0.00  0.00    +0.000 HD
ENDBRANCH  21  24
ENDBRANCH  17  18
ENDBRANCH  16  17
ENDBRANCH   4  16
TORSDOF 5
ENDMDL
MODEL 8
REMARK VINA RESULT:    -5.926      2.666      7.434
REMARK INTER + INTRA:          -8.792
REMARK INTER:                  -7.772
REMARK INTRA:                  -1.020
REMARK UNBOUND:                -1.134
REMARK  Name = 
REMARK  8 active torsions:
REMARK  status: ('A' for Active; 'I' for Inactive)
REMARK    1  A    between atoms: C_1  and  C_2
REMARK    2  A    between atoms: N_4  and  C_5
REMARK    3  A    between atoms: C_8  and  C_9
REMARK    4  A    between atoms: C_9  and  O_10
REMARK    5  A    between atoms: O_10  and  C_11
REMARK    6  A    between atoms: C_14  and  C_15
REMARK    7  A    between atoms: C_23  and  C_24
REMARK    8  A    between atoms: C_23  and  C_25
REMARK                            x       y       z     vdW  Elec       q    Type
REMARK                         _______ _______ _______ _____ _____    ______ ____
ROOT
ATOM      1  C   UNL     1      46.037   5.549  13.129  0.00  0.00    +0.000 A 
ATOM      2  C   UNL     1      47.157   5.237  13.914  0.00  0.00    +0.000 A 
ATOM      3  C   UNL     1      48.069   6.216  14.333  0.00  0.00    +0.000 A 
ATOM      4  C   UNL     1      47.877   7.553  13.985  0.00  0.00    +0.000 A 
ATOM      5  C   UNL     1      46.795   7.882  13.173  0.00  0.00    +0.000 A 
ATOM      6  C   UNL     1      45.897   6.897  12.757  0.00  0.00    +0.000 A 
ENDROOT
BRANCH   1  10
ATOM      7  C   UNL     1      42.560   5.990  11.362  0.00  0.00    +0.000 C 
ATOM      8  C   UNL     1      42.784   4.591  11.934  0.00  0.00    +0.000 C 
ATOM      9  C   UNL     1      43.722   4.592  13.164  0.00  0.00    +0.000 C 
ATOM     10  N   UNL     1      45.127   4.592  12.740  0.00  0.00    +0.000 N 
ATOM     11  C   UNL     1      45.452   3.512  11.803  0.00  0.00    +0.000 C 
ATOM     12  C   UNL     1      44.542   3.578  10.553  0.00  0.00    +0.000 C 
ATOM     13  C   UNL     1      44.919   4.726   9.607  0.00  0.00    +0.000 C 
ATOM     14  C   UNL     1      44.715   2.268   9.766  0.00  0.00    +0.000 C 
ATOM     15  O   UNL     1      43.145   3.637  10.914  0.00  0.00    +0.000 OA
ENDBRANCH   1  10
BRANCH   4  16
ATOM     16  C   UNL     1      48.811   8.628  14.469  0.00  0.00    +0.000 C 
BRANCH  16  17
ATOM     17  O   UNL     1      49.276   9.386  13.354  0.00  0.00    +0.000 OA
BRANCH  17  18
ATOM     18  C   UNL     1      50.285   8.822  12.625  0.00  0.00    +0.000 A 
ATOM     19  C   UNL     1      50.128   8.076  11.454  0.00  0.00    +0.000 A 
ATOM     20  C   UNL     1      51.244   7.555  10.796  0.00  0.00    +0.000 A 
ATOM     21  C   UNL     1      52.531   7.781  11.295  0.00  0.00    +0.000 A 
ATOM     22  C   UNL     1      52.693   8.516  12.474  0.00  0.00    +0.000 A 
ATOM     23  C   UNL     1      51.571   9.030  13.134  0.00  0.00    +0.000 A 
BRANCH  21  24
ATOM     24  C   UNL     1      53.677   7.199  10.553  0.00  0.00    +0.000 C 
ATOM     25  N   UNL     1      53.619   5.869  10.239  0.00  0.00    +0.000 N 
ATOM     26  O   UNL     1      54.658   7.868  10.262  0.00  0.00    +0.000 OA
ATOM     27  H   UNL     1      52.924   5.238  10.612  0.00  0.00    +0.000 HD
ATOM     28  H   UNL     1      54.447   5.469   9.817  0.00  0.00    +0.000 HD
ENDBRANCH  21  24
ENDBRANCH  17  18
ENDBRANCH  16  17
ENDBRANCH   4  16
TORSDOF 5
ENDMDL
MODEL 9
REMARK VINA RESULT:    -5.597      3.950      6.927
REMARK INTER + INTRA:          -8.368
REMARK INTER:                  -7.144
REMARK INTRA:                  -1.223
REMARK UNBOUND:                -1.134
REMARK  Name = 
REMARK  8 active torsions:
REMARK  status: ('A' for Active; 'I' for Inactive)
REMARK    1  A    between atoms: C_1  and  C_2
REMARK    2  A    between atoms: N_4  and  C_5
REMARK    3  A    between atoms: C_8  and  C_9
REMARK    4  A    between atoms: C_9  and  O_10
REMARK    5  A    between atoms: O_10  and  C_11
REMARK    6  A    between atoms: C_14  and  C_15
REMARK    7  A    between atoms: C_23  and  C_24
REMARK    8  A    between atoms: C_23  and  C_25
REMARK                            x       y       z     vdW  Elec       q    Type
REMARK                         _______ _______ _______ _____ _____    ______ ____
ROOT
ATOM      1  C   UNL     1      49.704   7.258  16.434  0.00  0.00    +0.000 A 
ATOM      2  C   UNL     1      48.661   8.194  16.494  0.00  0.00    +0.000 A 
ATOM      3  C   UNL     1      48.484   9.176  15.508  0.00  0.00    +0.000 A 
ATOM      4  C   UNL     1      49.350   9.243  14.417  0.00  0.00    +0.000 A 
ATOM      5  C   UNL     1      50.417   8.350  14.357  0.00  0.00    +0.000 A 
ATOM      6  C   UNL     1      50.585   7.380  15.347  0.00  0.00    +0.000 A 
ENDROOT
BRANCH   1  10
ATOM      7  C   UNL     1      47.099   5.839  19.004  0.00  0.00    +0.000 C 
ATOM      8  C   UNL     1      48.540   5.433  19.306  0.00  0.00    +0.000 C 
ATOM      9  C   UNL     1      49.570   6.476  18.811  0.00  0.00    +0.000 C 
ATOM     10  N   UNL     1      49.861   6.276  17.387  0.00  0.00    +0.000 N 
ATOM     11  C   UNL     1      50.270   4.905  17.063  0.00  0.00    +0.000 C 
ATOM     12  C   UNL     1      49.190   3.892  17.510  0.00  0.00    +0.000 C 
ATOM     13  C   UNL     1      47.953   3.906  16.601  0.00  0.00    +0.000 C 
ATOM     14  C   UNL     1      49.795   2.480  17.427  0.00  0.00    +0.000 C 
ATOM     15  O   UNL     1      48.823   4.080  18.894  0.00  0.00    +0.000 OA
ENDBRANCH   1  10
BRANCH   4  16
ATOM     16  C   UNL     1      49.148  10.252  13.320  0.00  0.00    +0.000 C 
BRANCH  16  17
ATOM     17  O   UNL     1      48.809   9.575  12.112  0.00  0.00    +0.000 OA
BRANCH  17  18
ATOM     18  C   UNL     1      47.664   8.829  12.145  0.00  0.00    +0.000 A 
ATOM     19  C   UNL     1      46.390   9.301  12.473  0.00  0.00    +0.000 A 
ATOM     20  C   UNL     1      45.295   8.436  12.464  0.00  0.00    +0.000 A 
ATOM     21  C   UNL     1      45.456   7.090  12.120  0.00  0.00    +0.000 A 
ATOM     22  C   UNL     1      46.732   6.610  11.803  0.00  0.00    +0.000 A 
ATOM     23  C   UNL     1      47.827   7.479  11.820  0.00  0.00    +0.000 A 
BRANCH  21  24
ATOM     24  C   UNL     1      44.255   6.219  12.131  0.00  0.00    +0.000 C 
ATOM     25  N   UNL     1      43.588   6.045  10.950  0.00  0.00    +0.000 N 
ATOM     26  O   UNL     1      43.848   5.703  13.162  0.00  0.00    +0.000 OA
ATOM     27  H   UNL     1      43.773   6.588  10.120  0.00  0.00    +0.000 HD
ATOM     28  H   UNL     1      42.721   5.525  10.995  0.00  0.00    +0.000 HD
ENDBRANCH  21  24
ENDBRANCH  17  18
ENDBRANCH  16  17
ENDBRANCH   4  16
TORSDOF 5
ENDMDL
