MODEL 1
REMARK VINA RESULT:    -8.043      0.000      0.000
REMARK INTER + INTRA:         -11.500
REMARK INTER:                 -10.864
REMARK INTRA:                  -0.637
REMARK UNBOUND:                -0.637
REMARK  Name = 
REMARK  6 active torsions:
REMARK  status: ('A' for Active; 'I' for Inactive)
REMARK    1  A    between atoms: C_2  and  C_3
REMARK    2  A    between atoms: C_7  and  N_8
REMARK    3  A    between atoms: N_8  and  C_9
REMARK    4  A    between atoms: C_9  and  C_10
REMARK    5  A    between atoms: C_14  and  C_15
REMARK    6  A    between atoms: C_19  and  C_20
REMARK                            x       y       z     vdW  Elec       q    Type
REMARK                         _______ _______ _______ _____ _____    ______ ____
ROOT
ATOM      1  C   UNL     1      45.508   5.300  12.312  0.00  0.00    +0.000 A 
ATOM      2  C   UNL     1      46.240   6.308  11.674  0.00  0.00    +0.000 A 
ATOM      3  C   UNL     1      47.410   6.805  12.242  0.00  0.00    +0.000 A 
ATOM      4  C   UNL     1      47.855   6.309  13.469  0.00  0.00    +0.000 A 
ATOM      5  C   UNL     1      47.177   5.270  14.127  0.00  0.00    +0.000 A 
ATOM      6  C   UNL     1      46.048   4.740  13.486  0.00  0.00    +0.000 A 
ENDROOT
BRANCH   5   7
ATOM      7  C   UNL     1      47.551   4.825  15.487  0.00  0.00    +0.000 A 
ATOM      8  C   UNL     1      47.113   3.602  16.027  0.00  0.00    +0.000 A 
ATOM      9  C   UNL     1      47.444   3.220  17.334  0.00  0.00    +0.000 A 
ATOM     10  C   UNL     1      48.235   4.047  18.125  0.00  0.00    +0.000 A 
ATOM     11  C   UNL     1      48.678   5.269  17.613  0.00  0.00    +0.000 A 
ATOM     12  C   UNL     1      48.322   5.656  16.318  0.00  0.00    +0.000 A 
BRANCH  11  13
ATOM     13  C   UNL     1      49.501   6.131  18.405  0.00  0.00    +0.000 C 
ATOM     14  N   UNL     1      50.169   6.820  19.062  0.00  0.00    +0.000 NA
ENDBRANCH  11  13
ENDBRANCH   5   7
BRANCH   1  15
ATOM     15  C   UNL     1      44.108   4.903  11.843  0.00  0.00    +0.000 C 
ATOM     16  C   UNL     1      42.982   5.165  12.848  0.00  0.00    +0.000 C 
ATOM     17  C   UNL     1      43.099   6.015  11.631  0.00  0.00    +0.000 C 
BRANCH  15  18
ATOM     18  N   UNL     1      44.058   3.616  11.113  0.00  0.00    +0.000 N 
ATOM     19  H   UNL     1      44.202   2.821  11.735  0.00  0.00    +0.000 HD
BRANCH  18  24
ATOM     20  C   UNL     1      45.947   2.067   8.270  0.00  0.00    +0.000 A 
ATOM     21  C   UNL     1      46.142   3.210   7.514  0.00  0.00    +0.000 A 
ATOM     22  N   UNL     1      45.668   4.426   7.865  0.00  0.00    +0.000 NA
ATOM     23  C   UNL     1      44.981   4.491   9.032  0.00  0.00    +0.000 A 
ATOM     24  C   UNL     1      44.703   3.404   9.872  0.00  0.00    +0.000 A 
ATOM     25  C   UNL     1      45.214   2.172   9.460  0.00  0.00    +0.000 A 
BRANCH  20  27
ATOM     26  N   UNL     1      46.954  -0.193   7.512  0.00  0.00    +0.000 NA
ATOM     27  C   UNL     1      46.503   0.819   7.851  0.00  0.00    +0.000 C 
ENDBRANCH  20  27
ENDBRANCH  18  24
ENDBRANCH  15  18
ENDBRANCH   1  15
TORSDOF 6
ENDMDL
MODEL 2
REMARK VINA RESULT:    -7.461      2.912      4.462
REMARK INTER + INTRA:         -10.714
REMARK INTER:                 -10.329
REMARK INTRA:                  -0.385
REMARK UNBOUND:                -0.637
REMARK  Name = 
REMARK  6 active torsions:
REMARK  status: ('A' for Active; 'I' for Inactive)
REMARK    1  A    between atoms: C_2  and  C_3
REMARK    2  A    between atoms: C_7  and  N_8
REMARK    3  A    between atoms: N_8  and  C_9
REMARK    4  A    between atoms: C_9  and  C_10
REMARK    5  A    between atoms: C_14  and  C_15
REMARK    6  A    between atoms: C_19  and  C_20
REMARK                            x       y       z     vdW  Elec       q    Type
REMARK                         _______ _______ _______ _____ _____    ______ ____
ROOT
ATOM      1  C   UNL     1      45.122   5.511  11.919  0.00  0.00    +0.000 A 
ATOM      2  C   UNL     1      45.503   4.482  12.788  0.00  0.00    +0.000 A 
ATOM      3  C   UNL     1      46.722   4.531  13.459  0.00  0.00    +0.000 A 
ATOM      4  C   UNL     1      47.587   5.608  13.255  0.00  0.00    +0.000 A 
ATOM      5  C   UNL     1      47.232   6.684  12.425  0.00  0.00    +0.000 A 
ATOM      6  C   UNL     1      45.965   6.637  11.829  0.00  0.00    +0.000 A 
ENDROOT
BRANCH   5   7
ATOM      7  C   UNL     1      48.186   7.764  12.088  0.00  0.00    +0.000 A 
ATOM      8  C   UNL     1      47.803   9.116  12.029  0.00  0.00    +0.000 A 
ATOM      9  C   UNL     1      48.713  10.118  11.666  0.00  0.00    +0.000 A 
ATOM     10  C   UNL     1      50.031   9.790  11.369  0.00  0.00    +0.000 A 
ATOM     11  C   UNL     1      50.434   8.453  11.415  0.00  0.00    +0.000 A 
ATOM     12  C   UNL     1      49.515   7.456  11.752  0.00  0.00    +0.000 A 
BRANCH  11  13
ATOM     13  C   UNL     1      51.789   8.094  11.123  0.00  0.00    +0.000 C 
ATOM     14  N   UNL     1      52.893   7.819  10.882  0.00  0.00    +0.000 NA
ENDBRANCH  11  13
ENDBRANCH   5   7
BRANCH   1  15
ATOM     15  C   UNL     1      43.915   5.378  10.992  0.00  0.00    +0.000 C 
ATOM     16  C   UNL     1      42.715   4.631  11.583  0.00  0.00    +0.000 C 
ATOM     17  C   UNL     1      42.644   6.105  11.389  0.00  0.00    +0.000 C 
BRANCH  15  18
ATOM     18  N   UNL     1      44.262   5.066   9.587  0.00  0.00    +0.000 N 
ATOM     19  H   UNL     1      43.514   5.326   8.945  0.00  0.00    +0.000 HD
BRANCH  18  24
ATOM     20  C   UNL     1      46.417   2.518   7.880  0.00  0.00    +0.000 A 
ATOM     21  C   UNL     1      45.773   1.378   8.331  0.00  0.00    +0.000 A 
ATOM     22  N   UNL     1      44.716   1.402   9.172  0.00  0.00    +0.000 NA
ATOM     23  C   UNL     1      44.285   2.627   9.562  0.00  0.00    +0.000 A 
ATOM     24  C   UNL     1      44.862   3.848   9.190  0.00  0.00    +0.000 A 
ATOM     25  C   UNL     1      45.954   3.764   8.322  0.00  0.00    +0.000 A 
BRANCH  20  27
ATOM     26  N   UNL     1      48.402   2.333   6.230  0.00  0.00    +0.000 NA
ATOM     27  C   UNL     1      47.512   2.417   6.968  0.00  0.00    +0.000 C 
ENDBRANCH  20  27
ENDBRANCH  18  24
ENDBRANCH  15  18
ENDBRANCH   1  15
TORSDOF 6
ENDMDL
MODEL 3
REMARK VINA RESULT:    -7.303      2.093      3.227
REMARK INTER + INTRA:         -10.501
REMARK INTER:                 -10.163
REMARK INTRA:                  -0.338
REMARK UNBOUND:                -0.637
REMARK  Name = 
REMARK  6 active torsions:
REMARK  status: ('A' for Active; 'I' for Inactive)
REMARK    1  A    between atoms: C_2  and  C_3
REMARK    2  A    between atoms: C_7  and  N_8
REMARK    3  A    between atoms: N_8  and  C_9
REMARK    4  A    between atoms: C_9  and  C_10
REMARK    5  A    between atoms: C_14  and  C_15
REMARK    6  A    between atoms: C_19  and  C_20
REMARK                            x       y       z     vdW  Elec       q    Type
REMARK                         _______ _______ _______ _____ _____    ______ ____
ROOT
ATOM      1  C   UNL     1      44.877   5.945  11.507  0.00  0.00    +0.000 A 
ATOM      2  C   UNL     1      44.014   7.028  11.297  0.00  0.00    +0.000 A 
ATOM      3  C   UNL     1      44.465   8.336  11.449  0.00  0.00    +0.000 A 
ATOM      4  C   UNL     1      45.786   8.579  11.831  0.00  0.00    +0.000 A 
ATOM      5  C   UNL     1      46.699   7.528  12.014  0.00  0.00    +0.000 A 
ATOM      6  C   UNL     1      46.231   6.229  11.775  0.00  0.00    +0.000 A 
ENDROOT
BRANCH   5   7
ATOM      7  C   UNL     1      48.059   7.754  12.551  0.00  0.00    +0.000 A 
ATOM      8  C   UNL     1      49.044   8.458  11.835  0.00  0.00    +0.000 A 
ATOM      9  C   UNL     1      50.339   8.623  12.345  0.00  0.00    +0.000 A 
ATOM     10  C   UNL     1      50.673   8.099  13.589  0.00  0.00    +0.000 A 
ATOM     11  C   UNL     1      49.713   7.389  14.316  0.00  0.00    +0.000 A 
ATOM     12  C   UNL     1      48.431   7.206  13.791  0.00  0.00    +0.000 A 
BRANCH  11  13
ATOM     13  C   UNL     1      50.032   6.851  15.603  0.00  0.00    +0.000 C 
ATOM     14  N   UNL     1      50.306   6.407  16.642  0.00  0.00    +0.000 NA
ENDBRANCH  11  13
ENDBRANCH   5   7
BRANCH   1  15
ATOM     15  C   UNL     1      44.362   4.509  11.583  0.00  0.00    +0.000 C 
ATOM     16  C   UNL     1      45.173   3.568  12.480  0.00  0.00    +0.000 C 
ATOM     17  C   UNL     1      43.826   4.026  12.918  0.00  0.00    +0.000 C 
BRANCH  15  18
ATOM     18  N   UNL     1      43.909   3.959  10.285  0.00  0.00    +0.000 N 
ATOM     19  H   UNL     1      43.168   3.269  10.403  0.00  0.00    +0.000 HD
BRANCH  18  24
ATOM     20  C   UNL     1      46.144   1.940   8.054  0.00  0.00    +0.000 A 
ATOM     21  C   UNL     1      46.733   2.985   7.363  0.00  0.00    +0.000 A 
ATOM     22  N   UNL     1      46.418   4.283   7.564  0.00  0.00    +0.000 NA
ATOM     23  C   UNL     1      45.479   4.535   8.509  0.00  0.00    +0.000 A 
ATOM     24  C   UNL     1      44.800   3.565   9.259  0.00  0.00    +0.000 A 
ATOM     25  C   UNL     1      45.164   2.240   9.009  0.00  0.00    +0.000 A 
BRANCH  20  27
ATOM     26  N   UNL     1      46.881  -0.502   7.609  0.00  0.00    +0.000 NA
ATOM     27  C   UNL     1      46.550   0.591   7.809  0.00  0.00    +0.000 C 
ENDBRANCH  20  27
ENDBRANCH  18  24
ENDBRANCH  15  18
ENDBRANCH   1  15
TORSDOF 6
ENDMDL
MODEL 4
REMARK VINA RESULT:    -7.084      2.259      7.926
REMARK INTER + INTRA:         -10.205
REMARK INTER:                  -9.080
REMARK INTRA:                  -1.125
REMARK UNBOUND:                -0.637
REMARK  Name = 
REMARK  6 active torsions:
REMARK  status: ('A' for Active; 'I' for Inactive)
REMARK    1  A    between atoms: C_2  and  C_3
REMARK    2  A    between atoms: C_7  and  N_8
REMARK    3  A    between atoms: N_8  and  C_9
REMARK    4  A    between atoms: C_9  and  C_10
REMARK    5  A    between atoms: C_14  and  C_15
REMARK    6  A    between atoms: C_19  and  C_20
REMARK                            x       y       z     vdW  Elec       q    Type
REMARK                         _______ _______ _______ _____ _____    ______ ____
ROOT
ATOM      1  C   UNL     1      47.144   7.874  12.405  0.00  0.00    +0.000 A 
ATOM      2  C   UNL     1      46.191   8.896  12.493  0.00  0.00    +0.000 A 
ATOM      3  C   UNL     1      44.904   8.713  11.993  0.00  0.00    +0.000 A 
ATOM      4  C   UNL     1      44.558   7.506  11.381  0.00  0.00    +0.000 A 
ATOM      5  C   UNL     1      45.467   6.438  11.306  0.00  0.00    +0.000 A 
ATOM      6  C   UNL     1      46.726   6.631  11.890  0.00  0.00    +0.000 A 
ENDROOT
BRANCH   5   7
ATOM      7  C   UNL     1      45.169   5.205  10.544  0.00  0.00    +0.000 A 
ATOM      8  C   UNL     1      44.360   4.177  11.060  0.00  0.00    +0.000 A 
ATOM      9  C   UNL     1      44.126   2.999  10.338  0.00  0.00    +0.000 A 
ATOM     10  C   UNL     1      44.685   2.830   9.076  0.00  0.00    +0.000 A 
ATOM     11  C   UNL     1      45.498   3.835   8.544  0.00  0.00    +0.000 A 
ATOM     12  C   UNL     1      45.748   4.996   9.280  0.00  0.00    +0.000 A 
BRANCH  11  13
ATOM     13  C   UNL     1      46.074   3.687   7.242  0.00  0.00    +0.000 C 
ATOM     14  N   UNL     1      46.533   3.579   6.179  0.00  0.00    +0.000 NA
ENDBRANCH  11  13
ENDBRANCH   5   7
BRANCH   1  15
ATOM     15  C   UNL     1      48.618   8.120  12.722  0.00  0.00    +0.000 C 
ATOM     16  C   UNL     1      49.417   8.826  11.622  0.00  0.00    +0.000 C 
ATOM     17  C   UNL     1      49.072   9.560  12.870  0.00  0.00    +0.000 C 
BRANCH  15  18
ATOM     18  N   UNL     1      49.287   6.988  13.403  0.00  0.00    +0.000 N 
ATOM     19  H   UNL     1      49.301   6.151  12.822  0.00  0.00    +0.000 HD
BRANCH  18  24
ATOM     20  C   UNL     1      48.047   5.329  16.527  0.00  0.00    +0.000 A 
ATOM     21  C   UNL     1      48.492   6.268  17.442  0.00  0.00    +0.000 A 
ATOM     22  N   UNL     1      49.189   7.372  17.097  0.00  0.00    +0.000 NA
ATOM     23  C   UNL     1      49.436   7.540  15.775  0.00  0.00    +0.000 A 
ATOM     24  C   UNL     1      49.055   6.654  14.758  0.00  0.00    +0.000 A 
ATOM     25  C   UNL     1      48.339   5.528  15.171  0.00  0.00    +0.000 A 
BRANCH  20  27
ATOM     26  N   UNL     1      46.675   3.281  17.317  0.00  0.00    +0.000 NA
ATOM     27  C   UNL     1      47.288   4.198  16.962  0.00  0.00    +0.000 C 
ENDBRANCH  20  27
ENDBRANCH  18  24
ENDBRANCH  15  18
ENDBRANCH   1  15
TORSDOF 6
ENDMDL
MODEL 5
REMARK VINA RESULT:    -6.739      2.452      8.648
REMARK INTER + INTRA:          -9.739
REMARK INTER:                  -8.661
REMARK INTRA:                  -1.078
REMARK UNBOUND:                -0.637
REMARK  Name = 
REMARK  6 active torsions:
REMARK  status: ('A' for Active; 'I' for Inactive)
REMARK    1  A    between atoms: C_2  and  C_3
REMARK    2  A    between atoms: C_7  and  N_8
REMARK    3  A    between atoms: N_8  and  C_9
REMARK    4  A    between atoms: C_9  and  C_10
REMARK    5  A    between atoms: C_14  and  C_15
REMARK    6  A    between atoms: C_19  and  C_20
REMARK                            x       y       z     vdW  Elec       q    Type
REMARK                         _______ _______ _______ _____ _____    ______ ____
ROOT
ATOM      1  C   UNL     1      47.470   7.746  12.404  0.00  0.00    +0.000 A 
ATOM      2  C   UNL     1      46.582   8.818  12.560  0.00  0.00    +0.000 A 
ATOM      3  C   UNL     1      45.258   8.711  12.142  0.00  0.00    +0.000 A 
ATOM      4  C   UNL     1      44.808   7.532  11.544  0.00  0.00    +0.000 A 
ATOM      5  C   UNL     1      45.649   6.417  11.403  0.00  0.00    +0.000 A 
ATOM      6  C   UNL     1      46.952   6.533  11.907  0.00  0.00    +0.000 A 
ENDROOT
BRANCH   5   7
ATOM      7  C   UNL     1      45.235   5.211  10.652  0.00  0.00    +0.000 A 
ATOM      8  C   UNL     1      44.364   4.249  11.193  0.00  0.00    +0.000 A 
ATOM      9  C   UNL     1      44.019   3.093  10.480  0.00  0.00    +0.000 A 
ATOM     10  C   UNL     1      44.527   2.881   9.203  0.00  0.00    +0.000 A 
ATOM     11  C   UNL     1      45.400   3.820   8.646  0.00  0.00    +0.000 A 
ATOM     12  C   UNL     1      45.761   4.958   9.373  0.00  0.00    +0.000 A 
BRANCH  11  13
ATOM     13  C   UNL     1      45.927   3.628   7.330  0.00  0.00    +0.000 C 
ATOM     14  N   UNL     1      46.340   3.466   6.254  0.00  0.00    +0.000 NA
ENDBRANCH  11  13
ENDBRANCH   5   7
BRANCH   1  15
ATOM     15  C   UNL     1      48.973   7.906  12.628  0.00  0.00    +0.000 C 
ATOM     16  C   UNL     1      49.830   7.890  11.359  0.00  0.00    +0.000 C 
ATOM     17  C   UNL     1      49.629   9.167  12.099  0.00  0.00    +0.000 C 
BRANCH  15  18
ATOM     18  N   UNL     1      49.495   7.150  13.790  0.00  0.00    +0.000 N 
ATOM     19  H   UNL     1      49.574   6.154  13.589  0.00  0.00    +0.000 HD
BRANCH  18  24
ATOM     20  C   UNL     1      48.381   8.758  16.987  0.00  0.00    +0.000 A 
ATOM     21  C   UNL     1      48.407   7.634  17.795  0.00  0.00    +0.000 A 
ATOM     22  N   UNL     1      48.730   6.402  17.348  0.00  0.00    +0.000 NA
ATOM     23  C   UNL     1      49.052   6.303  16.034  0.00  0.00    +0.000 A 
ATOM     24  C   UNL     1      49.046   7.361  15.115  0.00  0.00    +0.000 A 
ATOM     25  C   UNL     1      48.701   8.612  15.631  0.00  0.00    +0.000 A 
BRANCH  20  27
ATOM     26  N   UNL     1      47.792  11.074  17.983  0.00  0.00    +0.000 NA
ATOM     27  C   UNL     1      48.057  10.037  17.537  0.00  0.00    +0.000 C 
ENDBRANCH  20  27
ENDBRANCH  18  24
ENDBRANCH  15  18
ENDBRANCH   1  15
TORSDOF 6
ENDMDL
MODEL 6
REMARK VINA RESULT:    -6.503      2.301      7.949
REMARK INTER + INTRA:          -9.420
REMARK INTER:                  -8.239
REMARK INTRA:                  -1.181
REMARK UNBOUND:                -0.637
REMARK  Name = 
REMARK  6 active torsions:
REMARK  status: ('A' for Active; 'I' for Inactive)
REMARK    1  A    between atoms: C_2  and  C_3
REMARK    2  A    between atoms: C_7  and  N_8
REMARK    3  A    between atoms: N_8  and  C_9
REMARK    4  A    between atoms: C_9  and  C_10
REMARK    5  A    between atoms: C_14  and  C_15
REMARK    6  A    between atoms: C_19  and  C_20
REMARK                            x       y       z     vdW  Elec       q    Type
REMARK                         _______ _______ _______ _____ _____    ______ ____
ROOT
ATOM      1  C   UNL     1      48.869   8.321  13.949  0.00  0.00    +0.000 A 
ATOM      2  C   UNL     1      49.840   8.469  12.951  0.00  0.00    +0.000 A 
ATOM      3  C   UNL     1      49.603   8.018  11.655  0.00  0.00    +0.000 A 
ATOM      4  C   UNL     1      48.393   7.394  11.344  0.00  0.00    +0.000 A 
ATOM      5  C   UNL     1      47.374   7.259  12.300  0.00  0.00    +0.000 A 
ATOM      6  C   UNL     1      47.617   7.796  13.572  0.00  0.00    +0.000 A 
ENDROOT
BRANCH   5   7
ATOM      7  C   UNL     1      46.143   6.483  12.032  0.00  0.00    +0.000 A 
ATOM      8  C   UNL     1      45.111   6.356  12.979  0.00  0.00    +0.000 A 
ATOM      9  C   UNL     1      43.973   5.580  12.719  0.00  0.00    +0.000 A 
ATOM     10  C   UNL     1      43.835   4.927  11.500  0.00  0.00    +0.000 A 
ATOM     11  C   UNL     1      44.851   5.033  10.545  0.00  0.00    +0.000 A 
ATOM     12  C   UNL     1      45.995   5.786  10.820  0.00  0.00    +0.000 A 
BRANCH  11  13
ATOM     13  C   UNL     1      44.725   4.377   9.279  0.00  0.00    +0.000 C 
ATOM     14  N   UNL     1      44.641   3.843   8.249  0.00  0.00    +0.000 NA
ENDBRANCH  11  13
ENDBRANCH   5   7
BRANCH   1  15
ATOM     15  C   UNL     1      49.181   8.584  15.421  0.00  0.00    +0.000 C 
ATOM     16  C   UNL     1      49.117  10.053  15.853  0.00  0.00    +0.000 C 
ATOM     17  C   UNL     1      48.055   9.106  16.294  0.00  0.00    +0.000 C 
BRANCH  15  18
ATOM     18  N   UNL     1      50.311   7.788  15.952  0.00  0.00    +0.000 N 
ATOM     19  H   UNL     1      51.140   7.868  15.365  0.00  0.00    +0.000 HD
BRANCH  18  24
ATOM     20  C   UNL     1      48.861   4.525  17.094  0.00  0.00    +0.000 A 
ATOM     21  C   UNL     1      50.013   3.970  17.625  0.00  0.00    +0.000 A 
ATOM     22  N   UNL     1      51.217   4.582  17.598  0.00  0.00    +0.000 NA
ATOM     23  C   UNL     1      51.256   5.810  17.022  0.00  0.00    +0.000 A 
ATOM     24  C   UNL     1      50.165   6.466  16.436  0.00  0.00    +0.000 A 
ATOM     25  C   UNL     1      48.946   5.786  16.490  0.00  0.00    +0.000 A 
BRANCH  20  27
ATOM     26  N   UNL     1      46.605   3.268  17.260  0.00  0.00    +0.000 NA
ATOM     27  C   UNL     1      47.616   3.830  17.185  0.00  0.00    +0.000 C 
ENDBRANCH  20  27
ENDBRANCH  18  24
ENDBRANCH  15  18
ENDBRANCH   1  15
TORSDOF 6
ENDMDL
MODEL 7
REMARK VINA RESULT:    -6.319      2.390      4.329
REMARK INTER + INTRA:          -9.172
REMARK INTER:                  -8.269
REMARK INTRA:                  -0.903
REMARK UNBOUND:                -0.637
REMARK  Name = 
REMARK  6 active torsions:
REMARK  status: ('A' for Active; 'I' for Inactive)
REMARK    1  A    between atoms: C_2  and  C_3
REMARK    2  A    between atoms: C_7  and  N_8
REMARK    3  A    between atoms: N_8  and  C_9
REMARK    4  A    between atoms: C_9  and  C_10
REMARK    5  A    between atoms: C_14  and  C_15
REMARK    6  A    between atoms: C_19  and  C_20
REMARK                            x       y       z     vdW  Elec       q    Type
REMARK                         _______ _______ _______ _____ _____    ______ ____
ROOT
ATOM      1  C   UNL     1      48.427   8.156  14.264  0.00  0.00    +0.000 A 
ATOM      2  C   UNL     1      48.450   9.448  14.803  0.00  0.00    +0.000 A 
ATOM      3  C   UNL     1      48.626   9.646  16.170  0.00  0.00    +0.000 A 
ATOM      4  C   UNL     1      48.767   8.548  17.021  0.00  0.00    +0.000 A 
ATOM      5  C   UNL     1      48.792   7.235  16.523  0.00  0.00    +0.000 A 
ATOM      6  C   UNL     1      48.691   7.079  15.134  0.00  0.00    +0.000 A 
ENDROOT
BRANCH   5   7
ATOM      7  C   UNL     1      48.801   6.056  17.417  0.00  0.00    +0.000 A 
ATOM      8  C   UNL     1      48.249   6.086  18.710  0.00  0.00    +0.000 A 
ATOM      9  C   UNL     1      48.307   4.970  19.556  0.00  0.00    +0.000 A 
ATOM     10  C   UNL     1      48.906   3.793  19.119  0.00  0.00    +0.000 A 
ATOM     11  C   UNL     1      49.467   3.740  17.840  0.00  0.00    +0.000 A 
ATOM     12  C   UNL     1      49.429   4.865  17.012  0.00  0.00    +0.000 A 
BRANCH  11  13
ATOM     13  C   UNL     1      50.078   2.536  17.366  0.00  0.00    +0.000 C 
ATOM     14  N   UNL     1      50.572   1.563  16.965  0.00  0.00    +0.000 NA
ENDBRANCH  11  13
ENDBRANCH   5   7
BRANCH   1  15
ATOM     15  C   UNL     1      48.001   7.893  12.821  0.00  0.00    +0.000 C 
ATOM     16  C   UNL     1      48.609   8.834  11.776  0.00  0.00    +0.000 C 
ATOM     17  C   UNL     1      49.067   7.419  11.851  0.00  0.00    +0.000 C 
BRANCH  15  18
ATOM     18  N   UNL     1      46.565   7.569  12.664  0.00  0.00    +0.000 N 
ATOM     19  H   UNL     1      46.002   7.966  13.415  0.00  0.00    +0.000 HD
BRANCH  18  24
ATOM     20  C   UNL     1      45.201   4.642  10.762  0.00  0.00    +0.000 A 
ATOM     21  C   UNL     1      44.973   3.795  11.833  0.00  0.00    +0.000 A 
ATOM     22  N   UNL     1      45.268   4.116  13.112  0.00  0.00    +0.000 NA
ATOM     23  C   UNL     1      45.803   5.345  13.317  0.00  0.00    +0.000 A 
ATOM     24  C   UNL     1      46.096   6.280  12.315  0.00  0.00    +0.000 A 
ATOM     25  C   UNL     1      45.773   5.896  11.012  0.00  0.00    +0.000 A 
BRANCH  20  27
ATOM     26  N   UNL     1      44.542   3.925   8.363  0.00  0.00    +0.000 NA
ATOM     27  C   UNL     1      44.836   4.245   9.438  0.00  0.00    +0.000 C 
ENDBRANCH  20  27
ENDBRANCH  18  24
ENDBRANCH  15  18
ENDBRANCH   1  15
TORSDOF 6
ENDMDL
MODEL 8
REMARK VINA RESULT:    -6.289      3.558      5.379
REMARK INTER + INTRA:          -9.132
REMARK INTER:                  -7.915
REMARK INTRA:                  -1.216
REMARK UNBOUND:                -0.637
REMARK  Name = 
REMARK  6 active torsions:
REMARK  status: ('A' for Active; 'I' for Inactive)
REMARK    1  A    between atoms: C_2  and  C_3
REMARK    2  A    between atoms: C_7  and  N_8
REMARK    3  A    between atoms: N_8  and  C_9
REMARK    4  A    between atoms: C_9  and  C_10
REMARK    5  A    between atoms: C_14  and  C_15
REMARK    6  A    between atoms: C_19  and  C_20
REMARK                            x       y       z     vdW  Elec       q    Type
REMARK                         _______ _______ _______ _____ _____    ______ ____
ROOT
ATOM      1  C   UNL     1      49.627   8.845  13.731  0.00  0.00    +0.000 A 
ATOM      2  C   UNL     1      49.383  10.010  14.469  0.00  0.00    +0.000 A 
ATOM      3  C   UNL     1      49.371   9.980  15.861  0.00  0.00    +0.000 A 
ATOM      4  C   UNL     1      49.586   8.776  16.535  0.00  0.00    +0.000 A 
ATOM      5  C   UNL     1      49.874   7.591  15.840  0.00  0.00    +0.000 A 
ATOM      6  C   UNL     1      49.957   7.675  14.443  0.00  0.00    +0.000 A 
ENDROOT
BRANCH   5   7
ATOM      7  C   UNL     1      49.969   6.282  16.523  0.00  0.00    +0.000 A 
ATOM      8  C   UNL     1      51.187   5.772  17.009  0.00  0.00    +0.000 A 
ATOM      9  C   UNL     1      51.261   4.511  17.615  0.00  0.00    +0.000 A 
ATOM     10  C   UNL     1      50.114   3.738  17.763  0.00  0.00    +0.000 A 
ATOM     11  C   UNL     1      48.893   4.221  17.284  0.00  0.00    +0.000 A 
ATOM     12  C   UNL     1      48.831   5.468  16.656  0.00  0.00    +0.000 A 
BRANCH  11  13
ATOM     13  C   UNL     1      47.699   3.447  17.435  0.00  0.00    +0.000 C 
ATOM     14  N   UNL     1      46.720   2.830  17.550  0.00  0.00    +0.000 NA
ENDBRANCH  11  13
ENDBRANCH   5   7
BRANCH   1  15
ATOM     15  C   UNL     1      49.413   8.791  12.219  0.00  0.00    +0.000 C 
ATOM     16  C   UNL     1      50.351   9.677  11.393  0.00  0.00    +0.000 C 
ATOM     17  C   UNL     1      50.526   8.199  11.375  0.00  0.00    +0.000 C 
BRANCH  15  18
ATOM     18  N   UNL     1      47.990   8.770  11.809  0.00  0.00    +0.000 N 
ATOM     19  H   UNL     1      47.572   9.699  11.842  0.00  0.00    +0.000 HD
BRANCH  18  24
ATOM     20  C   UNL     1      46.475   5.579  13.061  0.00  0.00    +0.000 A 
ATOM     21  C   UNL     1      45.143   5.902  12.871  0.00  0.00    +0.000 A 
ATOM     22  N   UNL     1      44.726   7.096  12.397  0.00  0.00    +0.000 NA
ATOM     23  C   UNL     1      45.695   7.994  12.091  0.00  0.00    +0.000 A 
ATOM     24  C   UNL     1      47.071   7.791  12.256  0.00  0.00    +0.000 A 
ATOM     25  C   UNL     1      47.446   6.541  12.752  0.00  0.00    +0.000 A 
BRANCH  20  27
ATOM     26  N   UNL     1      47.140   3.233  13.931  0.00  0.00    +0.000 NA
ATOM     27  C   UNL     1      46.843   4.284  13.541  0.00  0.00    +0.000 C 
ENDBRANCH  20  27
ENDBRANCH  18  24
ENDBRANCH  15  18
ENDBRANCH   1  15
TORSDOF 6
ENDMDL
MODEL 9
REMARK VINA RESULT:    -6.111      2.482      8.473
REMARK INTER + INTRA:          -8.892
REMARK INTER:                  -8.351
REMARK INTRA:                  -0.541
REMARK UNBOUND:                -0.637
REMARK  Name = 
REMARK  6 active torsions:
REMARK  status: ('A' for Active; 'I' for Inactive)
REMARK    1  A    between atoms: C_2  and  C_3
REMARK    2  A    between atoms: C_7  and  N_8
REMARK    3  A    between atoms: N_8  and  C_9
REMARK    4  A    between atoms: C_9  and  C_10
REMARK    5  A    between atoms: C_14  and  C_15
REMARK    6  A    between atoms: C_19  and  C_20
REMARK                            x       y       z     vdW  Elec       q    Type
REMARK                         _______ _______ _______ _____ _____    ______ ____
ROOT
ATOM      1  C   UNL     1      47.742   5.230  15.431  0.00  0.00    +0.000 A 
ATOM      2  C   UNL     1      48.392   6.396  15.008  0.00  0.00    +0.000 A 
ATOM      3  C   UNL     1      48.067   6.989  13.791  0.00  0.00    +0.000 A 
ATOM      4  C   UNL     1      47.096   6.411  12.971  0.00  0.00    +0.000 A 
ATOM      5  C   UNL     1      46.389   5.266  13.370  0.00  0.00    +0.000 A 
ATOM      6  C   UNL     1      46.686   4.742  14.636  0.00  0.00    +0.000 A 
ENDROOT
BRANCH   5   7
ATOM      7  C   UNL     1      45.458   4.561  12.462  0.00  0.00    +0.000 A 
ATOM      8  C   UNL     1      44.360   3.819  12.935  0.00  0.00    +0.000 A 
ATOM      9  C   UNL     1      43.516   3.123  12.059  0.00  0.00    +0.000 A 
ATOM     10  C   UNL     1      43.742   3.167  10.688  0.00  0.00    +0.000 A 
ATOM     11  C   UNL     1      44.830   3.893  10.194  0.00  0.00    +0.000 A 
ATOM     12  C   UNL     1      45.683   4.563  11.074  0.00  0.00    +0.000 A 
BRANCH  11  13
ATOM     13  C   UNL     1      45.075   3.961   8.785  0.00  0.00    +0.000 C 
ATOM     14  N   UNL     1      45.261   4.006   7.638  0.00  0.00    +0.000 NA
ENDBRANCH  11  13
ENDBRANCH   5   7
BRANCH   1  15
ATOM     15  C   UNL     1      48.234   4.426  16.634  0.00  0.00    +0.000 C 
ATOM     16  C   UNL     1      47.158   3.622  17.369  0.00  0.00    +0.000 C 
ATOM     17  C   UNL     1      48.170   2.913  16.539  0.00  0.00    +0.000 C 
BRANCH  15  18
ATOM     18  N   UNL     1      49.218   5.142  17.478  0.00  0.00    +0.000 N 
ATOM     19  H   UNL     1      49.041   6.145  17.500  0.00  0.00    +0.000 HD
BRANCH  18  24
ATOM     20  C   UNL     1      52.589   3.579  17.970  0.00  0.00    +0.000 A 
ATOM     21  C   UNL     1      53.364   4.622  17.490  0.00  0.00    +0.000 A 
ATOM     22  N   UNL     1      52.848   5.768  16.996  0.00  0.00    +0.000 NA
ATOM     23  C   UNL     1      51.496   5.870  16.997  0.00  0.00    +0.000 A 
ATOM     24  C   UNL     1      50.608   4.879  17.438  0.00  0.00    +0.000 A 
ATOM     25  C   UNL     1      51.195   3.714  17.936  0.00  0.00    +0.000 A 
BRANCH  20  27
ATOM     26  N   UNL     1      53.706   1.454  18.938  0.00  0.00    +0.000 NA
ATOM     27  C   UNL     1      53.206   2.407  18.505  0.00  0.00    +0.000 C 
ENDBRANCH  20  27
ENDBRANCH  18  24
ENDBRANCH  15  18
ENDBRANCH   1  15
TORSDOF 6
ENDMDL
