MODEL 1
REMARK VINA RESULT:    -8.425      0.000      0.000
REMARK INTER + INTRA:         -12.292
REMARK INTER:                 -11.380
REMARK INTRA:                  -0.913
REMARK UNBOUND:                -0.913
REMARK  Name = 
REMARK  7 active torsions:
REMARK  status: ('A' for Active; 'I' for Inactive)
REMARK    1  A    between atoms: C_1  and  C_2
REMARK    2  A    between atoms: C_2  and  N_3
REMARK    3  A    between atoms: C_2  and  C_11
REMARK    4  A    between atoms: C_4  and  C_6
REMARK    5  A    between atoms: C_14  and  C_15
REMARK    6  A    between atoms: C_15  and  N_16
REMARK    7  A    between atoms: C_17  and  C_19
REMARK                            x       y       z     vdW  Elec       q    Type
REMARK                         _______ _______ _______ _____ _____    ______ ____
ROOT
ATOM      1  C   UNL     1      45.235   4.743  11.758  0.00  0.00    +0.000 A 
ATOM      2  C   UNL     1      45.791   4.373  12.981  0.00  0.00    +0.000 A 
ATOM      3  C   UNL     1      46.671   5.246  13.618  0.00  0.00    +0.000 A 
ATOM      4  C   UNL     1      46.965   6.479  13.032  0.00  0.00    +0.000 A 
ATOM      5  C   UNL     1      46.372   6.764  11.811  0.00  0.00    +0.000 A 
ATOM      6  N   UNL     1      45.507   5.940  11.177  0.00  0.00    +0.000 NA
ENDROOT
BRANCH   1   8
ATOM      7  C   UNL     1      43.455   2.972  12.030  0.00  0.00    +0.000 C 
ATOM      8  C   UNL     1      44.275   3.802  11.040  0.00  0.00    +0.000 C 
BRANCH   8   9
ATOM      9  N   UNL     1      44.974   2.928  10.114  0.00  0.00    +0.000 N 
ATOM     10  C   UNL     1      45.262   3.305   8.824  0.00  0.00    +0.000 C 
ATOM     11  O   UNL     1      44.880   4.359   8.327  0.00  0.00    +0.000 OA
ATOM     12  H   UNL     1      45.482   2.122  10.464  0.00  0.00    +0.000 HD
BRANCH  10  13
ATOM     13  C   UNL     1      46.074   2.329   8.075  0.00  0.00    +0.000 A 
ATOM     14  C   UNL     1      46.936   2.611   6.982  0.00  0.00    +0.000 A 
ATOM     15  C   UNL     1      47.454   1.398   6.603  0.00  0.00    +0.000 A 
ATOM     16  N   UNL     1      46.909   0.479   7.447  0.00  0.00    +0.000 N 
ATOM     17  N   UNL     1      46.070   1.010   8.357  0.00  0.00    +0.000 NA
ATOM     18  H   UNL     1      47.061  -0.524   7.461  0.00  0.00    +0.000 HD
ENDBRANCH  10  13
ENDBRANCH   8   9
ENDBRANCH   1   8
BRANCH   4  19
ATOM     19  C   UNL     1      47.903   7.459  13.668  0.00  0.00    +0.000 C 
BRANCH  19  20
ATOM     20  N   UNL     1      47.888   7.353  15.104  0.00  0.00    +0.000 N 
ATOM     21  C   UNL     1      48.981   6.973  15.836  0.00  0.00    +0.000 C 
ATOM     22  O   UNL     1      50.059   6.700  15.313  0.00  0.00    +0.000 OA
ATOM     23  H   UNL     1      46.974   7.359  15.543  0.00  0.00    +0.000 HD
BRANCH  21  24
ATOM     24  C   UNL     1      48.816   6.992  17.296  0.00  0.00    +0.000 A 
ATOM     25  C   UNL     1      48.558   8.191  17.946  0.00  0.00    +0.000 A 
ATOM     26  S   UNL     1      48.303   8.019  19.624  0.00  0.00    +0.000 S 
ATOM     27  C   UNL     1      48.583   6.342  19.550  0.00  0.00    +0.000 A 
ATOM     28  N   UNL     1      48.521   5.571  20.670  0.00  0.00    +0.000 NA
ATOM     29  C   UNL     1      48.798   4.325  20.476  0.00  0.00    +0.000 A 
ATOM     30  N   UNL     1      49.128   3.777  19.264  0.00  0.00    +0.000 N 
ATOM     31  C   UNL     1      49.144   4.504  18.099  0.00  0.00    +0.000 A 
ATOM     32  O   UNL     1      49.350   3.961  17.018  0.00  0.00    +0.000 OA
ATOM     33  C   UNL     1      48.862   5.918  18.262  0.00  0.00    +0.000 A 
ATOM     34  H   UNL     1      49.322   2.791  19.177  0.00  0.00    +0.000 HD
ENDBRANCH  21  24
ENDBRANCH  19  20
ENDBRANCH   4  19
TORSDOF 6
ENDMDL
MODEL 2
REMARK VINA RESULT:    -8.095      1.408      2.210
REMARK INTER + INTRA:         -11.847
REMARK INTER:                 -10.791
REMARK INTRA:                  -1.055
REMARK UNBOUND:                -0.913
REMARK  Name = 
REMARK  7 active torsions:
REMARK  status: ('A' for Active; 'I' for Inactive)
REMARK    1  A    between atoms: C_1  and  C_2
REMARK    2  A    between atoms: C_2  and  N_3
REMARK    3  A    between atoms: C_2  and  C_11
REMARK    4  A    between atoms: C_4  and  C_6
REMARK    5  A    between atoms: C_14  and  C_15
REMARK    6  A    between atoms: C_15  and  N_16
REMARK    7  A    between atoms: C_17  and  C_19
REMARK                            x       y       z     vdW  Elec       q    Type
REMARK                         _______ _______ _______ _____ _____    ______ ____
ROOT
ATOM      1  C   UNL     1      45.095   4.869  11.651  0.00  0.00    +0.000 A 
ATOM      2  C   UNL     1      45.089   6.210  11.269  0.00  0.00    +0.000 A 
ATOM      3  C   UNL     1      45.934   7.105  11.923  0.00  0.00    +0.000 A 
ATOM      4  C   UNL     1      46.781   6.644  12.933  0.00  0.00    +0.000 A 
ATOM      5  C   UNL     1      46.717   5.295  13.254  0.00  0.00    +0.000 A 
ATOM      6  N   UNL     1      45.915   4.404  12.628  0.00  0.00    +0.000 NA
ENDROOT
BRANCH   1   8
ATOM      7  C   UNL     1      43.369   3.052  11.963  0.00  0.00    +0.000 C 
ATOM      8  C   UNL     1      44.175   3.874  10.955  0.00  0.00    +0.000 C 
BRANCH   8   9
ATOM      9  N   UNL     1      44.914   2.992  10.068  0.00  0.00    +0.000 N 
ATOM     10  C   UNL     1      45.240   3.350   8.782  0.00  0.00    +0.000 C 
ATOM     11  O   UNL     1      44.863   4.391   8.254  0.00  0.00    +0.000 OA
ATOM     12  H   UNL     1      45.418   2.198  10.449  0.00  0.00    +0.000 HD
BRANCH  10  13
ATOM     13  C   UNL     1      46.087   2.371   8.077  0.00  0.00    +0.000 A 
ATOM     14  C   UNL     1      47.023   2.651   7.046  0.00  0.00    +0.000 A 
ATOM     15  C   UNL     1      47.549   1.435   6.689  0.00  0.00    +0.000 A 
ATOM     16  N   UNL     1      46.937   0.515   7.486  0.00  0.00    +0.000 N 
ATOM     17  N   UNL     1      46.047   1.048   8.343  0.00  0.00    +0.000 NA
ATOM     18  H   UNL     1      47.075  -0.490   7.498  0.00  0.00    +0.000 HD
ENDBRANCH  10  13
ENDBRANCH   8   9
ENDBRANCH   1   8
BRANCH   4  19
ATOM     19  C   UNL     1      47.710   7.557  13.672  0.00  0.00    +0.000 C 
BRANCH  19  20
ATOM     20  N   UNL     1      47.828   7.185  15.058  0.00  0.00    +0.000 N 
ATOM     21  C   UNL     1      49.001   6.752  15.618  0.00  0.00    +0.000 C 
ATOM     22  O   UNL     1      50.040   6.655  14.970  0.00  0.00    +0.000 OA
ATOM     23  H   UNL     1      46.958   7.046  15.560  0.00  0.00    +0.000 HD
BRANCH  21  24
ATOM     24  C   UNL     1      48.965   6.487  17.062  0.00  0.00    +0.000 A 
ATOM     25  C   UNL     1      49.384   5.256  17.549  0.00  0.00    +0.000 A 
ATOM     26  S   UNL     1      49.364   5.152  19.252  0.00  0.00    +0.000 S 
ATOM     27  C   UNL     1      48.743   6.729  19.397  0.00  0.00    +0.000 A 
ATOM     28  N   UNL     1      48.484   7.271  20.618  0.00  0.00    +0.000 NA
ATOM     29  C   UNL     1      47.975   8.457  20.579  0.00  0.00    +0.000 A 
ATOM     30  N   UNL     1      47.703   9.153  19.430  0.00  0.00    +0.000 N 
ATOM     31  C   UNL     1      48.003   8.671  18.180  0.00  0.00    +0.000 A 
ATOM     32  O   UNL     1      47.835   9.361  17.179  0.00  0.00    +0.000 OA
ATOM     33  C   UNL     1      48.558   7.330  18.164  0.00  0.00    +0.000 A 
ATOM     34  H   UNL     1      47.315  10.083  19.468  0.00  0.00    +0.000 HD
ENDBRANCH  21  24
ENDBRANCH  19  20
ENDBRANCH   4  19
TORSDOF 6
ENDMDL
MODEL 3
REMARK VINA RESULT:    -8.010      1.763      1.953
REMARK INTER + INTRA:         -11.732
REMARK INTER:                 -10.692
REMARK INTRA:                  -1.040
REMARK UNBOUND:                -0.913
REMARK  Name = 
REMARK  7 active torsions:
REMARK  status: ('A' for Active; 'I' for Inactive)
REMARK    1  A    between atoms: C_1  and  C_2
REMARK    2  A    between atoms: C_2  and  N_3
REMARK    3  A    between atoms: C_2  and  C_11
REMARK    4  A    between atoms: C_4  and  C_6
REMARK    5  A    between atoms: C_14  and  C_15
REMARK    6  A    between atoms: C_15  and  N_16
REMARK    7  A    between atoms: C_17  and  C_19
REMARK                            x       y       z     vdW  Elec       q    Type
REMARK                         _______ _______ _______ _____ _____    ______ ____
ROOT
ATOM      1  C   UNL     1      44.741   4.819  11.458  0.00  0.00    +0.000 A 
ATOM      2  C   UNL     1      44.594   6.159  11.103  0.00  0.00    +0.000 A 
ATOM      3  C   UNL     1      45.346   7.124  11.771  0.00  0.00    +0.000 A 
ATOM      4  C   UNL     1      46.244   6.733  12.766  0.00  0.00    +0.000 A 
ATOM      5  C   UNL     1      46.324   5.379  13.059  0.00  0.00    +0.000 A 
ATOM      6  N   UNL     1      45.613   4.422  12.421  0.00  0.00    +0.000 NA
ENDROOT
BRANCH   1   8
ATOM      7  C   UNL     1      43.160   2.870  11.742  0.00  0.00    +0.000 C 
ATOM      8  C   UNL     1      43.925   3.747  10.747  0.00  0.00    +0.000 C 
BRANCH   8   9
ATOM      9  N   UNL     1      44.756   2.921   9.889  0.00  0.00    +0.000 N 
ATOM     10  C   UNL     1      45.211   3.356   8.668  0.00  0.00    +0.000 C 
ATOM     11  O   UNL     1      44.883   4.427   8.168  0.00  0.00    +0.000 OA
ATOM     12  H   UNL     1      45.224   2.105  10.271  0.00  0.00    +0.000 HD
BRANCH  10  13
ATOM     13  C   UNL     1      46.131   2.422   7.996  0.00  0.00    +0.000 A 
ATOM     14  C   UNL     1      47.071   2.746   6.982  0.00  0.00    +0.000 A 
ATOM     15  C   UNL     1      47.679   1.560   6.653  0.00  0.00    +0.000 A 
ATOM     16  N   UNL     1      47.107   0.615   7.450  0.00  0.00    +0.000 N 
ATOM     17  N   UNL     1      46.167   1.103   8.281  0.00  0.00    +0.000 NA
ATOM     18  H   UNL     1      47.306  -0.380   7.480  0.00  0.00    +0.000 HD
ENDBRANCH  10  13
ENDBRANCH   8   9
ENDBRANCH   1   8
BRANCH   4  19
ATOM     19  C   UNL     1      47.080   7.723  13.518  0.00  0.00    +0.000 C 
BRANCH  19  20
ATOM     20  N   UNL     1      48.087   7.072  14.314  0.00  0.00    +0.000 N 
ATOM     21  C   UNL     1      48.592   7.611  15.468  0.00  0.00    +0.000 C 
ATOM     22  O   UNL     1      48.212   8.694  15.907  0.00  0.00    +0.000 OA
ATOM     23  H   UNL     1      48.572   6.297  13.875  0.00  0.00    +0.000 HD
BRANCH  21  24
ATOM     24  C   UNL     1      49.557   6.779  16.198  0.00  0.00    +0.000 A 
ATOM     25  C   UNL     1      50.837   7.261  16.444  0.00  0.00    +0.000 A 
ATOM     26  S   UNL     1      51.795   6.207  17.381  0.00  0.00    +0.000 S 
ATOM     27  C   UNL     1      50.554   5.045  17.445  0.00  0.00    +0.000 A 
ATOM     28  N   UNL     1      50.727   3.869  18.108  0.00  0.00    +0.000 NA
ATOM     29  C   UNL     1      49.721   3.063  18.040  0.00  0.00    +0.000 A 
ATOM     30  N   UNL     1      48.555   3.326  17.370  0.00  0.00    +0.000 N 
ATOM     31  C   UNL     1      48.313   4.521  16.738  0.00  0.00    +0.000 A 
ATOM     32  O   UNL     1      47.220   4.758  16.231  0.00  0.00    +0.000 OA
ATOM     33  C   UNL     1      49.421   5.457  16.766  0.00  0.00    +0.000 A 
ATOM     34  H   UNL     1      47.799   2.657  17.363  0.00  0.00    +0.000 HD
ENDBRANCH  21  24
ENDBRANCH  19  20
ENDBRANCH   4  19
TORSDOF 6
ENDMDL
MODEL 4
REMARK VINA RESULT:    -7.575      3.449      8.588
REMARK INTER + INTRA:         -11.145
REMARK INTER:                 -10.130
REMARK INTRA:                  -1.015
REMARK UNBOUND:                -0.913
REMARK  Name = 
REMARK  7 active torsions:
REMARK  status: ('A' for Active; 'I' for Inactive)
REMARK    1  A    between atoms: C_1  and  C_2
REMARK    2  A    between atoms: C_2  and  N_3
REMARK    3  A    between atoms: C_2  and  C_11
REMARK    4  A    between atoms: C_4  and  C_6
REMARK    5  A    between atoms: C_14  and  C_15
REMARK    6  A    between atoms: C_15  and  N_16
REMARK    7  A    between atoms: C_17  and  C_19
REMARK                            x       y       z     vdW  Elec       q    Type
REMARK                         _______ _______ _______ _____ _____    ______ ____
ROOT
ATOM      1  C   UNL     1      49.830   6.646  16.174  0.00  0.00    +0.000 A 
ATOM      2  C   UNL     1      50.676   7.439  15.400  0.00  0.00    +0.000 A 
ATOM      3  C   UNL     1      50.281   7.795  14.112  0.00  0.00    +0.000 A 
ATOM      4  C   UNL     1      49.043   7.370  13.627  0.00  0.00    +0.000 A 
ATOM      5  C   UNL     1      48.267   6.579  14.462  0.00  0.00    +0.000 A 
ATOM      6  N   UNL     1      48.622   6.228  15.719  0.00  0.00    +0.000 NA
ENDROOT
BRANCH   1   8
ATOM      7  C   UNL     1      51.081   7.325  18.260  0.00  0.00    +0.000 C 
ATOM      8  C   UNL     1      50.244   6.238  17.583  0.00  0.00    +0.000 C 
BRANCH   8   9
ATOM      9  N   UNL     1      50.964   4.977  17.586  0.00  0.00    +0.000 N 
ATOM     10  C   UNL     1      50.325   3.767  17.708  0.00  0.00    +0.000 C 
ATOM     11  O   UNL     1      49.121   3.656  17.912  0.00  0.00    +0.000 OA
ATOM     12  H   UNL     1      51.922   4.941  17.253  0.00  0.00    +0.000 HD
BRANCH  10  13
ATOM     13  C   UNL     1      51.213   2.597  17.576  0.00  0.00    +0.000 A 
ATOM     14  C   UNL     1      52.584   2.533  17.940  0.00  0.00    +0.000 A 
ATOM     15  C   UNL     1      52.989   1.263  17.617  0.00  0.00    +0.000 A 
ATOM     16  N   UNL     1      51.893   0.642  17.098  0.00  0.00    +0.000 N 
ATOM     17  N   UNL     1      50.796   1.421  17.062  0.00  0.00    +0.000 NA
ATOM     18  H   UNL     1      51.821  -0.307  16.747  0.00  0.00    +0.000 HD
ENDBRANCH  10  13
ENDBRANCH   8   9
ENDBRANCH   1   8
BRANCH   4  19
ATOM     19  C   UNL     1      48.563   7.720  12.252  0.00  0.00    +0.000 C 
BRANCH  19  20
ATOM     20  N   UNL     1      47.733   6.682  11.698  0.00  0.00    +0.000 N 
ATOM     21  C   UNL     1      46.386   6.829  11.500  0.00  0.00    +0.000 C 
ATOM     22  O   UNL     1      45.791   7.867  11.778  0.00  0.00    +0.000 OA
ATOM     23  H   UNL     1      48.142   5.755  11.662  0.00  0.00    +0.000 HD
BRANCH  21  24
ATOM     24  C   UNL     1      45.704   5.700  10.854  0.00  0.00    +0.000 A 
ATOM     25  C   UNL     1      45.813   5.520   9.482  0.00  0.00    +0.000 A 
ATOM     26  S   UNL     1      45.037   4.112   8.913  0.00  0.00    +0.000 S 
ATOM     27  C   UNL     1      44.481   3.721  10.472  0.00  0.00    +0.000 A 
ATOM     28  N   UNL     1      43.730   2.607  10.690  0.00  0.00    +0.000 NA
ATOM     29  C   UNL     1      43.340   2.455  11.911  0.00  0.00    +0.000 A 
ATOM     30  N   UNL     1      43.634   3.315  12.937  0.00  0.00    +0.000 N 
ATOM     31  C   UNL     1      44.437   4.418  12.776  0.00  0.00    +0.000 A 
ATOM     32  O   UNL     1      44.758   5.112  13.737  0.00  0.00    +0.000 OA
ATOM     33  C   UNL     1      44.886   4.649  11.416  0.00  0.00    +0.000 A 
ATOM     34  H   UNL     1      43.308   3.134  13.874  0.00  0.00    +0.000 HD
ENDBRANCH  21  24
ENDBRANCH  19  20
ENDBRANCH   4  19
TORSDOF 6
ENDMDL
MODEL 5
REMARK VINA RESULT:    -7.427      4.254      5.482
REMARK INTER + INTRA:         -10.944
REMARK INTER:                  -9.791
REMARK INTRA:                  -1.154
REMARK UNBOUND:                -0.913
REMARK  Name = 
REMARK  7 active torsions:
REMARK  status: ('A' for Active; 'I' for Inactive)
REMARK    1  A    between atoms: C_1  and  C_2
REMARK    2  A    between atoms: C_2  and  N_3
REMARK    3  A    between atoms: C_2  and  C_11
REMARK    4  A    between atoms: C_4  and  C_6
REMARK    5  A    between atoms: C_14  and  C_15
REMARK    6  A    between atoms: C_15  and  N_16
REMARK    7  A    between atoms: C_17  and  C_19
REMARK                            x       y       z     vdW  Elec       q    Type
REMARK                         _______ _______ _______ _____ _____    ______ ____
ROOT
ATOM      1  C   UNL     1      44.758   5.189  11.750  0.00  0.00    +0.000 A 
ATOM      2  C   UNL     1      45.901   4.966  12.517  0.00  0.00    +0.000 A 
ATOM      3  C   UNL     1      46.545   6.053  13.105  0.00  0.00    +0.000 A 
ATOM      4  C   UNL     1      46.028   7.339  12.933  0.00  0.00    +0.000 A 
ATOM      5  C   UNL     1      44.891   7.470  12.150  0.00  0.00    +0.000 A 
ATOM      6  N   UNL     1      44.241   6.432  11.576  0.00  0.00    +0.000 NA
ENDROOT
BRANCH   1   8
ATOM      7  C   UNL     1      43.394   3.099  12.130  0.00  0.00    +0.000 C 
ATOM      8  C   UNL     1      44.041   4.018  11.091  0.00  0.00    +0.000 C 
BRANCH   8   9
ATOM      9  N   UNL     1      44.933   3.255  10.235  0.00  0.00    +0.000 N 
ATOM     10  C   UNL     1      44.942   3.401   8.869  0.00  0.00    +0.000 C 
ATOM     11  O   UNL     1      44.147   4.109   8.260  0.00  0.00    +0.000 OA
ATOM     12  H   UNL     1      45.736   2.782  10.636  0.00  0.00    +0.000 HD
BRANCH  10  13
ATOM     13  C   UNL     1      45.992   2.626   8.184  0.00  0.00    +0.000 A 
ATOM     14  C   UNL     1      46.939   3.128   7.253  0.00  0.00    +0.000 A 
ATOM     15  C   UNL     1      47.689   2.044   6.874  0.00  0.00    +0.000 A 
ATOM     16  N   UNL     1      47.186   0.982   7.564  0.00  0.00    +0.000 N 
ATOM     17  N   UNL     1      46.158   1.300   8.372  0.00  0.00    +0.000 NA
ATOM     18  H   UNL     1      47.492   0.015   7.531  0.00  0.00    +0.000 HD
ENDBRANCH  10  13
ENDBRANCH   8   9
ENDBRANCH   1   8
BRANCH   4  19
ATOM     19  C   UNL     1      46.676   8.545  13.540  0.00  0.00    +0.000 C 
BRANCH  19  20
ATOM     20  N   UNL     1      47.913   8.872  12.880  0.00  0.00    +0.000 N 
ATOM     21  C   UNL     1      48.007   9.818  11.894  0.00  0.00    +0.000 C 
ATOM     22  O   UNL     1      47.035  10.461  11.507  0.00  0.00    +0.000 OA
ATOM     23  H   UNL     1      48.679   8.221  13.017  0.00  0.00    +0.000 HD
BRANCH  21  24
ATOM     24  C   UNL     1      49.359  10.081  11.381  0.00  0.00    +0.000 A 
ATOM     25  C   UNL     1      49.725  11.375  11.034  0.00  0.00    +0.000 A 
ATOM     26  S   UNL     1      51.353  11.516  10.546  0.00  0.00    +0.000 S 
ATOM     27  C   UNL     1      51.611   9.844  10.729  0.00  0.00    +0.000 A 
ATOM     28  N   UNL     1      52.825   9.289  10.463  0.00  0.00    +0.000 NA
ATOM     29  C   UNL     1      52.868   8.006  10.602  0.00  0.00    +0.000 A 
ATOM     30  N   UNL     1      51.808   7.226  10.985  0.00  0.00    +0.000 N 
ATOM     31  C   UNL     1      50.583   7.749  11.321  0.00  0.00    +0.000 A 
ATOM     32  O   UNL     1      49.686   7.031  11.753  0.00  0.00    +0.000 OA
ATOM     33  C   UNL     1      50.473   9.187  11.162  0.00  0.00    +0.000 A 
ATOM     34  H   UNL     1      51.909   6.228  11.086  0.00  0.00    +0.000 HD
ENDBRANCH  21  24
ENDBRANCH  19  20
ENDBRANCH   4  19
TORSDOF 6
ENDMDL
MODEL 6
REMARK VINA RESULT:    -7.318      2.939      4.664
REMARK INTER + INTRA:         -10.798
REMARK INTER:                  -9.575
REMARK INTRA:                  -1.223
REMARK UNBOUND:                -0.913
REMARK  Name = 
REMARK  7 active torsions:
REMARK  status: ('A' for Active; 'I' for Inactive)
REMARK    1  A    between atoms: C_1  and  C_2
REMARK    2  A    between atoms: C_2  and  N_3
REMARK    3  A    between atoms: C_2  and  C_11
REMARK    4  A    between atoms: C_4  and  C_6
REMARK    5  A    between atoms: C_14  and  C_15
REMARK    6  A    between atoms: C_15  and  N_16
REMARK    7  A    between atoms: C_17  and  C_19
REMARK                            x       y       z     vdW  Elec       q    Type
REMARK                         _______ _______ _______ _____ _____    ______ ____
ROOT
ATOM      1  C   UNL     1      45.248   4.167  12.162  0.00  0.00    +0.000 A 
ATOM      2  C   UNL     1      45.390   5.550  12.260  0.00  0.00    +0.000 A 
ATOM      3  C   UNL     1      46.234   6.078  13.235  0.00  0.00    +0.000 A 
ATOM      4  C   UNL     1      46.935   5.217  14.082  0.00  0.00    +0.000 A 
ATOM      5  C   UNL     1      46.730   3.854  13.919  0.00  0.00    +0.000 A 
ATOM      6  N   UNL     1      45.925   3.316  12.975  0.00  0.00    +0.000 NA
ENDROOT
BRANCH   1   8
ATOM      7  C   UNL     1      43.250   2.682  11.740  0.00  0.00    +0.000 C 
ATOM      8  C   UNL     1      44.326   3.567  11.108  0.00  0.00    +0.000 C 
BRANCH   8   9
ATOM      9  N   UNL     1      45.069   2.817  10.110  0.00  0.00    +0.000 N 
ATOM     10  C   UNL     1      45.312   3.310   8.851  0.00  0.00    +0.000 C 
ATOM     11  O   UNL     1      44.852   4.371   8.441  0.00  0.00    +0.000 OA
ATOM     12  H   UNL     1      45.635   2.023  10.393  0.00  0.00    +0.000 HD
BRANCH  10  13
ATOM     13  C   UNL     1      46.177   2.453   8.021  0.00  0.00    +0.000 A 
ATOM     14  C   UNL     1      46.975   2.870   6.923  0.00  0.00    +0.000 A 
ATOM     15  C   UNL     1      47.580   1.730   6.456  0.00  0.00    +0.000 A 
ATOM     16  N   UNL     1      47.141   0.720   7.258  0.00  0.00    +0.000 N 
ATOM     17  N   UNL     1      46.292   1.123   8.222  0.00  0.00    +0.000 NA
ATOM     18  H   UNL     1      47.377  -0.265   7.206  0.00  0.00    +0.000 HD
ENDBRANCH  10  13
ENDBRANCH   8   9
ENDBRANCH   1   8
BRANCH   4  19
ATOM     19  C   UNL     1      47.856   5.724  15.149  0.00  0.00    +0.000 C 
BRANCH  19  20
ATOM     20  N   UNL     1      48.930   6.506  14.595  0.00  0.00    +0.000 N 
ATOM     21  C   UNL     1      49.119   7.830  14.890  0.00  0.00    +0.000 C 
ATOM     22  O   UNL     1      48.381   8.444  15.657  0.00  0.00    +0.000 OA
ATOM     23  H   UNL     1      49.418   6.099  13.805  0.00  0.00    +0.000 HD
BRANCH  21  24
ATOM     24  C   UNL     1      50.309   8.457  14.299  0.00  0.00    +0.000 A 
ATOM     25  C   UNL     1      51.141   9.240  15.088  0.00  0.00    +0.000 A 
ATOM     26  S   UNL     1      52.521   9.813  14.267  0.00  0.00    +0.000 S 
ATOM     27  C   UNL     1      52.028   9.082  12.812  0.00  0.00    +0.000 A 
ATOM     28  N   UNL     1      52.778   9.194  11.682  0.00  0.00    +0.000 NA
ATOM     29  C   UNL     1      52.265   8.628  10.642  0.00  0.00    +0.000 A 
ATOM     30  N   UNL     1      51.069   7.959  10.627  0.00  0.00    +0.000 N 
ATOM     31  C   UNL     1      50.308   7.770  11.755  0.00  0.00    +0.000 A 
ATOM     32  O   UNL     1      49.291   7.083  11.725  0.00  0.00    +0.000 OA
ATOM     33  C   UNL     1      50.829   8.405  12.951  0.00  0.00    +0.000 A 
ATOM     34  H   UNL     1      50.727   7.528   9.782  0.00  0.00    +0.000 HD
ENDBRANCH  21  24
ENDBRANCH  19  20
ENDBRANCH   4  19
TORSDOF 6
ENDMDL
MODEL 7
REMARK VINA RESULT:    -7.196      1.883      3.104
REMARK INTER + INTRA:         -10.633
REMARK INTER:                  -9.497
REMARK INTRA:                  -1.136
REMARK UNBOUND:                -0.913
REMARK  Name = 
REMARK  7 active torsions:
REMARK  status: ('A' for Active; 'I' for Inactive)
REMARK    1  A    between atoms: C_1  and  C_2
REMARK    2  A    between atoms: C_2  and  N_3
REMARK    3  A    between atoms: C_2  and  C_11
REMARK    4  A    between atoms: C_4  and  C_6
REMARK    5  A    between atoms: C_14  and  C_15
REMARK    6  A    between atoms: C_15  and  N_16
REMARK    7  A    between atoms: C_17  and  C_19
REMARK                            x       y       z     vdW  Elec       q    Type
REMARK                         _______ _______ _______ _____ _____    ______ ____
ROOT
ATOM      1  C   UNL     1      45.309   4.695  11.914  0.00  0.00    +0.000 A 
ATOM      2  C   UNL     1      45.765   5.803  12.627  0.00  0.00    +0.000 A 
ATOM      3  C   UNL     1      46.530   5.604  13.774  0.00  0.00    +0.000 A 
ATOM      4  C   UNL     1      46.842   4.304  14.180  0.00  0.00    +0.000 A 
ATOM      5  C   UNL     1      46.343   3.260  13.416  0.00  0.00    +0.000 A 
ATOM      6  N   UNL     1      45.607   3.425  12.293  0.00  0.00    +0.000 NA
ENDROOT
BRANCH   1   8
ATOM      7  C   UNL     1      42.979   4.659  10.942  0.00  0.00    +0.000 C 
ATOM      8  C   UNL     1      44.466   4.887  10.661  0.00  0.00    +0.000 C 
BRANCH   8   9
ATOM      9  N   UNL     1      44.908   4.025   9.579  0.00  0.00    +0.000 N 
ATOM     10  C   UNL     1      45.824   4.435   8.640  0.00  0.00    +0.000 C 
ATOM     11  O   UNL     1      46.269   5.577   8.585  0.00  0.00    +0.000 OA
ATOM     12  H   UNL     1      44.744   3.025   9.630  0.00  0.00    +0.000 HD
BRANCH  10  13
ATOM     13  C   UNL     1      46.231   3.384   7.691  0.00  0.00    +0.000 A 
ATOM     14  C   UNL     1      46.414   2.006   7.984  0.00  0.00    +0.000 A 
ATOM     15  C   UNL     1      46.810   1.430   6.804  0.00  0.00    +0.000 A 
ATOM     16  N   UNL     1      46.845   2.439   5.890  0.00  0.00    +0.000 N 
ATOM     17  N   UNL     1      46.495   3.638   6.392  0.00  0.00    +0.000 NA
ATOM     18  H   UNL     1      47.100   2.384   4.909  0.00  0.00    +0.000 HD
ENDBRANCH  10  13
ENDBRANCH   8   9
ENDBRANCH   1   8
BRANCH   4  19
ATOM     19  C   UNL     1      47.660   4.027  15.404  0.00  0.00    +0.000 C 
BRANCH  19  20
ATOM     20  N   UNL     1      47.676   5.155  16.298  0.00  0.00    +0.000 N 
ATOM     21  C   UNL     1      48.790   5.539  16.996  0.00  0.00    +0.000 C 
ATOM     22  O   UNL     1      49.861   4.945  16.901  0.00  0.00    +0.000 OA
ATOM     23  H   UNL     1      46.771   5.528  16.564  0.00  0.00    +0.000 HD
BRANCH  21  24
ATOM     24  C   UNL     1      48.654   6.758  17.805  0.00  0.00    +0.000 A 
ATOM     25  C   UNL     1      48.647   6.670  19.191  0.00  0.00    +0.000 A 
ATOM     26  S   UNL     1      48.575   8.184  19.972  0.00  0.00    +0.000 S 
ATOM     27  C   UNL     1      48.496   9.009  18.486  0.00  0.00    +0.000 A 
ATOM     28  N   UNL     1      48.411  10.367  18.442  0.00  0.00    +0.000 NA
ATOM     29  C   UNL     1      48.314  10.857  17.252  0.00  0.00    +0.000 A 
ATOM     30  N   UNL     1      48.295  10.115  16.100  0.00  0.00    +0.000 N 
ATOM     31  C   UNL     1      48.438   8.749  16.093  0.00  0.00    +0.000 A 
ATOM     32  O   UNL     1      48.513   8.126  15.038  0.00  0.00    +0.000 OA
ATOM     33  C   UNL     1      48.529   8.142  17.408  0.00  0.00    +0.000 A 
ATOM     34  H   UNL     1      48.228  10.561  15.197  0.00  0.00    +0.000 HD
ENDBRANCH  21  24
ENDBRANCH  19  20
ENDBRANCH   4  19
TORSDOF 6
ENDMDL
MODEL 8
REMARK VINA RESULT:    -6.980      2.944      9.033
REMARK INTER + INTRA:         -10.341
REMARK INTER:                  -9.365
REMARK INTRA:                  -0.976
REMARK UNBOUND:                -0.913
REMARK  Name = 
REMARK  7 active torsions:
REMARK  status: ('A' for Active; 'I' for Inactive)
REMARK    1  A    between atoms: C_1  and  C_2
REMARK    2  A    between atoms: C_2  and  N_3
REMARK    3  A    between atoms: C_2  and  C_11
REMARK    4  A    between atoms: C_4  and  C_6
REMARK    5  A    between atoms: C_14  and  C_15
REMARK    6  A    between atoms: C_15  and  N_16
REMARK    7  A    between atoms: C_17  and  C_19
REMARK                            x       y       z     vdW  Elec       q    Type
REMARK                         _______ _______ _______ _____ _____    ______ ____
ROOT
ATOM      1  C   UNL     1      49.482   7.375  15.765  0.00  0.00    +0.000 A 
ATOM      2  C   UNL     1      48.964   8.640  15.490  0.00  0.00    +0.000 A 
ATOM      3  C   UNL     1      48.130   8.806  14.386  0.00  0.00    +0.000 A 
ATOM      4  C   UNL     1      47.812   7.705  13.588  0.00  0.00    +0.000 A 
ATOM      5  C   UNL     1      48.376   6.484  13.930  0.00  0.00    +0.000 A 
ATOM      6  N   UNL     1      49.180   6.294  15.001  0.00  0.00    +0.000 NA
ENDROOT
BRANCH   1   8
ATOM      7  C   UNL     1      51.569   8.159  16.950  0.00  0.00    +0.000 C 
ATOM      8  C   UNL     1      50.401   7.170  16.962  0.00  0.00    +0.000 C 
BRANCH   8   9
ATOM      9  N   UNL     1      50.901   5.808  17.028  0.00  0.00    +0.000 N 
ATOM     10  C   UNL     1      50.266   4.827  17.752  0.00  0.00    +0.000 C 
ATOM     11  O   UNL     1      49.291   5.039  18.465  0.00  0.00    +0.000 OA
ATOM     12  H   UNL     1      51.584   5.486  16.349  0.00  0.00    +0.000 HD
BRANCH  10  13
ATOM     13  C   UNL     1      50.859   3.486  17.605  0.00  0.00    +0.000 A 
ATOM     14  C   UNL     1      52.133   3.070  18.075  0.00  0.00    +0.000 A 
ATOM     15  C   UNL     1      52.255   1.759  17.690  0.00  0.00    +0.000 A 
ATOM     16  N   UNL     1      51.099   1.453  17.036  0.00  0.00    +0.000 N 
ATOM     17  N   UNL     1      50.228   2.476  16.970  0.00  0.00    +0.000 NA
ATOM     18  H   UNL     1      50.839   0.570  16.609  0.00  0.00    +0.000 HD
ENDBRANCH  10  13
ENDBRANCH   8   9
ENDBRANCH   1   8
BRANCH   4  19
ATOM     19  C   UNL     1      46.922   7.821  12.389  0.00  0.00    +0.000 C 
BRANCH  19  20
ATOM     20  N   UNL     1      46.361   6.548  12.019  0.00  0.00    +0.000 N 
ATOM     21  C   UNL     1      45.014   6.328  11.911  0.00  0.00    +0.000 C 
ATOM     22  O   UNL     1      44.186   7.212  12.119  0.00  0.00    +0.000 OA
ATOM     23  H   UNL     1      46.992   5.754  12.054  0.00  0.00    +0.000 HD
BRANCH  21  24
ATOM     24  C   UNL     1      44.615   4.992  11.448  0.00  0.00    +0.000 A 
ATOM     25  C   UNL     1      43.835   4.183  12.264  0.00  0.00    +0.000 A 
ATOM     26  S   UNL     1      43.388   2.707  11.537  0.00  0.00    +0.000 S 
ATOM     27  C   UNL     1      44.266   3.072  10.126  0.00  0.00    +0.000 A 
ATOM     28  N   UNL     1      44.305   2.202   9.080  0.00  0.00    +0.000 NA
ATOM     29  C   UNL     1      45.044   2.586   8.093  0.00  0.00    +0.000 A 
ATOM     30  N   UNL     1      45.746   3.762   8.055  0.00  0.00    +0.000 N 
ATOM     31  C   UNL     1      45.688   4.696   9.060  0.00  0.00    +0.000 A 
ATOM     32  O   UNL     1      46.252   5.781   8.949  0.00  0.00    +0.000 OA
ATOM     33  C   UNL     1      44.888   4.305  10.206  0.00  0.00    +0.000 A 
ATOM     34  H   UNL     1      46.297   4.011   7.247  0.00  0.00    +0.000 HD
ENDBRANCH  21  24
ENDBRANCH  19  20
ENDBRANCH   4  19
TORSDOF 6
ENDMDL
MODEL 9
REMARK VINA RESULT:    -6.899      4.263      6.551
REMARK INTER + INTRA:         -10.232
REMARK INTER:                  -9.164
REMARK INTRA:                  -1.067
REMARK UNBOUND:                -0.913
REMARK  Name = 
REMARK  7 active torsions:
REMARK  status: ('A' for Active; 'I' for Inactive)
REMARK    1  A    between atoms: C_1  and  C_2
REMARK    2  A    between atoms: C_2  and  N_3
REMARK    3  A    between atoms: C_2  and  C_11
REMARK    4  A    between atoms: C_4  and  C_6
REMARK    5  A    between atoms: C_14  and  C_15
REMARK    6  A    between atoms: C_15  and  N_16
REMARK    7  A    between atoms: C_17  and  C_19
REMARK                            x       y       z     vdW  Elec       q    Type
REMARK                         _______ _______ _______ _____ _____    ______ ____
ROOT
ATOM      1  C   UNL     1      44.759   8.396  11.636  0.00  0.00    +0.000 A 
ATOM      2  C   UNL     1      44.058   7.220  11.374  0.00  0.00    +0.000 A 
ATOM      3  C   UNL     1      44.503   6.025  11.937  0.00  0.00    +0.000 A 
ATOM      4  C   UNL     1      45.627   6.029  12.765  0.00  0.00    +0.000 A 
ATOM      5  C   UNL     1      46.267   7.243  12.968  0.00  0.00    +0.000 A 
ATOM      6  N   UNL     1      45.851   8.417  12.442  0.00  0.00    +0.000 NA
ENDROOT
BRANCH   1   8
ATOM      7  C   UNL     1      45.301  10.837  11.283  0.00  0.00    +0.000 C 
ATOM      8  C   UNL     1      44.295   9.713  11.026  0.00  0.00    +0.000 C 
BRANCH   8   9
ATOM      9  N   UNL     1      42.982  10.096  11.514  0.00  0.00    +0.000 N 
ATOM     10  C   UNL     1      41.999  10.574  10.679  0.00  0.00    +0.000 C 
ATOM     11  O   UNL     1      42.177  10.798   9.486  0.00  0.00    +0.000 OA
ATOM     12  H   UNL     1      42.674   9.792  12.432  0.00  0.00    +0.000 HD
BRANCH  10  13
ATOM     13  C   UNL     1      40.702  10.801  11.340  0.00  0.00    +0.000 A 
ATOM     14  C   UNL     1      39.433  10.355  10.884  0.00  0.00    +0.000 A 
ATOM     15  C   UNL     1      38.529  10.819  11.805  0.00  0.00    +0.000 A 
ATOM     16  N   UNL     1      39.259  11.493  12.737  0.00  0.00    +0.000 N 
ATOM     17  N   UNL     1      40.582  11.499  12.489  0.00  0.00    +0.000 NA
ATOM     18  H   UNL     1      38.922  11.974  13.565  0.00  0.00    +0.000 HD
ENDBRANCH  10  13
ENDBRANCH   8   9
ENDBRANCH   1   8
BRANCH   4  19
ATOM     19  C   UNL     1      46.153   4.777  13.399  0.00  0.00    +0.000 C 
BRANCH  19  20
ATOM     20  N   UNL     1      46.746   5.042  14.684  0.00  0.00    +0.000 N 
ATOM     21  C   UNL     1      47.448   4.101  15.390  0.00  0.00    +0.000 C 
ATOM     22  O   UNL     1      47.625   2.961  14.969  0.00  0.00    +0.000 OA
ATOM     23  H   UNL     1      46.440   5.887  15.152  0.00  0.00    +0.000 HD
BRANCH  21  24
ATOM     24  C   UNL     1      48.053   4.560  16.648  0.00  0.00    +0.000 A 
ATOM     25  C   UNL     1      47.742   3.916  17.838  0.00  0.00    +0.000 A 
ATOM     26  S   UNL     1      48.600   4.517  19.184  0.00  0.00    +0.000 S 
ATOM     27  C   UNL     1      49.376   5.695  18.234  0.00  0.00    +0.000 A 
ATOM     28  N   UNL     1      50.263   6.568  18.786  0.00  0.00    +0.000 NA
ATOM     29  C   UNL     1      50.744   7.435  17.959  0.00  0.00    +0.000 A 
ATOM     30  N   UNL     1      50.421   7.509  16.630  0.00  0.00    +0.000 N 
ATOM     31  C   UNL     1      49.578   6.614  16.018  0.00  0.00    +0.000 A 
ATOM     32  O   UNL     1      49.387   6.652  14.806  0.00  0.00    +0.000 OA
ATOM     33  C   UNL     1      48.991   5.629  16.907  0.00  0.00    +0.000 A 
ATOM     34  H   UNL     1      50.841   8.206  16.032  0.00  0.00    +0.000 HD
ENDBRANCH  21  24
ENDBRANCH  19  20
ENDBRANCH   4  19
TORSDOF 6
ENDMDL
