MODEL 1
REMARK VINA RESULT:    -8.295      0.000      0.000
REMARK INTER + INTRA:         -12.498
REMARK INTER:                 -11.689
REMARK INTRA:                  -0.809
REMARK UNBOUND:                -0.809
REMARK  Name = 
REMARK  7 active torsions:
REMARK  status: ('A' for Active; 'I' for Inactive)
REMARK    1  A    between atoms: C_2  and  C_3
REMARK    2  A    between atoms: C_7  and  C_8
REMARK    3  A    between atoms: C_8  and  O_9
REMARK    4  A    between atoms: O_9  and  C_10
REMARK    5  A    between atoms: C_13  and  C_14
REMARK    6  A    between atoms: C_14  and  N_15
REMARK    7  A    between atoms: C_16  and  C_18
REMARK                            x       y       z     vdW  Elec       q    Type
REMARK                         _______ _______ _______ _____ _____    ______ ____
ROOT
ATOM      1  C   UNL     1      45.162   3.839  12.720  0.00  0.00    +0.000 A 
ATOM      2  C   UNL     1      44.850   5.190  12.604  0.00  0.00    +0.000 A 
ATOM      3  C   UNL     1      45.803   6.132  13.013  0.00  0.00    +0.000 A 
ATOM      4  C   UNL     1      47.008   5.709  13.573  0.00  0.00    +0.000 A 
ATOM      5  C   UNL     1      47.200   4.332  13.666  0.00  0.00    +0.000 A 
ATOM      6  N   UNL     1      46.313   3.398  13.254  0.00  0.00    +0.000 NA
ENDROOT
BRANCH   1   7
ATOM      7  O   UNL     1      44.233   2.888  12.342  0.00  0.00    +0.000 OA
BRANCH   7   8
ATOM      8  C   UNL     1      43.491   3.303  11.179  0.00  0.00    +0.000 C 
BRANCH   8  13
ATOM      9  C   UNL     1      45.811   2.054   8.412  0.00  0.00    +0.000 A 
ATOM     10  C   UNL     1      46.130   3.237   7.750  0.00  0.00    +0.000 A 
ATOM     11  C   UNL     1      45.598   4.450   8.189  0.00  0.00    +0.000 A 
ATOM     12  C   UNL     1      44.744   4.478   9.295  0.00  0.00    +0.000 A 
ATOM     13  C   UNL     1      44.416   3.298   9.978  0.00  0.00    +0.000 A 
ATOM     14  C   UNL     1      44.949   2.083   9.518  0.00  0.00    +0.000 A 
BRANCH   9  16
ATOM     15  N   UNL     1      46.826  -0.201   7.626  0.00  0.00    +0.000 NA
ATOM     16  C   UNL     1      46.372   0.815   7.983  0.00  0.00    +0.000 C 
ENDBRANCH   9  16
ENDBRANCH   8  13
ENDBRANCH   7   8
ENDBRANCH   1   7
BRANCH   4  17
ATOM     17  C   UNL     1      48.079   6.643  14.075  0.00  0.00    +0.000 C 
BRANCH  17  18
ATOM     18  N   UNL     1      48.195   6.693  15.517  0.00  0.00    +0.000 N 
ATOM     19  C   UNL     1      49.414   6.687  16.150  0.00  0.00    +0.000 C 
ATOM     20  O   UNL     1      50.480   6.657  15.541  0.00  0.00    +0.000 OA
ATOM     21  H   UNL     1      47.415   6.322  16.051  0.00  0.00    +0.000 HD
BRANCH  19  22
ATOM     22  C   UNL     1      49.387   6.768  17.610  0.00  0.00    +0.000 A 
ATOM     23  C   UNL     1      49.768   7.945  18.239  0.00  0.00    +0.000 A 
ATOM     24  S   UNL     1      49.721   7.852  19.941  0.00  0.00    +0.000 S 
ATOM     25  C   UNL     1      49.209   6.229  19.894  0.00  0.00    +0.000 A 
ATOM     26  N   UNL     1      49.024   5.518  21.038  0.00  0.00    +0.000 NA
ATOM     27  C   UNL     1      48.655   4.295  20.855  0.00  0.00    +0.000 A 
ATOM     28  N   UNL     1      48.435   3.722  19.628  0.00  0.00    +0.000 N 
ATOM     29  C   UNL     1      48.554   4.419  18.451  0.00  0.00    +0.000 A 
ATOM     30  O   UNL     1      48.244   3.915  17.369  0.00  0.00    +0.000 OA
ATOM     31  C   UNL     1      49.026   5.781  18.597  0.00  0.00    +0.000 A 
ATOM     32  H   UNL     1      48.106   2.769  19.560  0.00  0.00    +0.000 HD
ENDBRANCH  19  22
ENDBRANCH  17  18
ENDBRANCH   4  17
TORSDOF 7
ENDMDL
MODEL 2
REMARK VINA RESULT:    -8.226      2.139      2.498
REMARK INTER + INTRA:         -12.401
REMARK INTER:                 -11.279
REMARK INTRA:                  -1.122
REMARK UNBOUND:                -0.809
REMARK  Name = 
REMARK  7 active torsions:
REMARK  status: ('A' for Active; 'I' for Inactive)
REMARK    1  A    between atoms: C_2  and  C_3
REMARK    2  A    between atoms: C_7  and  C_8
REMARK    3  A    between atoms: C_8  and  O_9
REMARK    4  A    between atoms: O_9  and  C_10
REMARK    5  A    between atoms: C_13  and  C_14
REMARK    6  A    between atoms: C_14  and  N_15
REMARK    7  A    between atoms: C_16  and  C_18
REMARK                            x       y       z     vdW  Elec       q    Type
REMARK                         _______ _______ _______ _____ _____    ______ ____
ROOT
ATOM      1  C   UNL     1      45.294   3.868  12.508  0.00  0.00    +0.000 A 
ATOM      2  C   UNL     1      46.322   3.261  13.223  0.00  0.00    +0.000 A 
ATOM      3  C   UNL     1      47.169   4.071  13.990  0.00  0.00    +0.000 A 
ATOM      4  C   UNL     1      47.006   5.456  13.984  0.00  0.00    +0.000 A 
ATOM      5  C   UNL     1      45.961   5.955  13.209  0.00  0.00    +0.000 A 
ATOM      6  N   UNL     1      45.109   5.199  12.481  0.00  0.00    +0.000 NA
ENDROOT
BRANCH   1   7
ATOM      7  O   UNL     1      44.455   3.095  11.727  0.00  0.00    +0.000 OA
BRANCH   7   8
ATOM      8  C   UNL     1      44.016   3.805  10.554  0.00  0.00    +0.000 C 
BRANCH   8  13
ATOM      9  C   UNL     1      46.185   1.879   8.067  0.00  0.00    +0.000 A 
ATOM     10  C   UNL     1      46.729   2.909   7.305  0.00  0.00    +0.000 A 
ATOM     11  C   UNL     1      46.401   4.235   7.584  0.00  0.00    +0.000 A 
ATOM     12  C   UNL     1      45.524   4.532   8.631  0.00  0.00    +0.000 A 
ATOM     13  C   UNL     1      44.970   3.508   9.414  0.00  0.00    +0.000 A 
ATOM     14  C   UNL     1      45.300   2.177   9.114  0.00  0.00    +0.000 A 
BRANCH   9  16
ATOM     15  N   UNL     1      46.818  -0.592   7.588  0.00  0.00    +0.000 NA
ATOM     16  C   UNL     1      46.536   0.522   7.802  0.00  0.00    +0.000 C 
ENDBRANCH   9  16
ENDBRANCH   8  13
ENDBRANCH   7   8
ENDBRANCH   1   7
BRANCH   4  17
ATOM     17  C   UNL     1      47.887   6.413  14.746  0.00  0.00    +0.000 C 
BRANCH  17  18
ATOM     18  N   UNL     1      48.999   5.785  15.427  0.00  0.00    +0.000 N 
ATOM     19  C   UNL     1      49.121   5.806  16.794  0.00  0.00    +0.000 C 
ATOM     20  O   UNL     1      48.293   6.338  17.528  0.00  0.00    +0.000 OA
ATOM     21  H   UNL     1      49.866   5.701  14.904  0.00  0.00    +0.000 HD
BRANCH  19  22
ATOM     22  C   UNL     1      50.279   5.109  17.353  0.00  0.00    +0.000 A 
ATOM     23  C   UNL     1      51.282   5.837  17.977  0.00  0.00    +0.000 A 
ATOM     24  S   UNL     1      52.577   4.875  18.529  0.00  0.00    +0.000 S 
ATOM     25  C   UNL     1      51.849   3.455  17.935  0.00  0.00    +0.000 A 
ATOM     26  N   UNL     1      52.472   2.251  18.038  0.00  0.00    +0.000 NA
ATOM     27  C   UNL     1      51.816   1.263  17.528  0.00  0.00    +0.000 A 
ATOM     28  N   UNL     1      50.581   1.368  16.940  0.00  0.00    +0.000 N 
ATOM     29  C   UNL     1      49.891   2.553  16.867  0.00  0.00    +0.000 A 
ATOM     30  O   UNL     1      48.738   2.602  16.434  0.00  0.00    +0.000 OA
ATOM     31  C   UNL     1      50.611   3.705  17.369  0.00  0.00    +0.000 A 
ATOM     32  H   UNL     1      50.105   0.544  16.598  0.00  0.00    +0.000 HD
ENDBRANCH  19  22
ENDBRANCH  17  18
ENDBRANCH   4  17
TORSDOF 7
ENDMDL
MODEL 3
REMARK VINA RESULT:    -8.010      1.675      2.301
REMARK INTER + INTRA:         -12.097
REMARK INTER:                 -11.104
REMARK INTRA:                  -0.994
REMARK UNBOUND:                -0.809
REMARK  Name = 
REMARK  7 active torsions:
REMARK  status: ('A' for Active; 'I' for Inactive)
REMARK    1  A    between atoms: C_2  and  C_3
REMARK    2  A    between atoms: C_7  and  C_8
REMARK    3  A    between atoms: C_8  and  O_9
REMARK    4  A    between atoms: O_9  and  C_10
REMARK    5  A    between atoms: C_13  and  C_14
REMARK    6  A    between atoms: C_14  and  N_15
REMARK    7  A    between atoms: C_16  and  C_18
REMARK                            x       y       z     vdW  Elec       q    Type
REMARK                         _______ _______ _______ _____ _____    ______ ____
ROOT
ATOM      1  C   UNL     1      45.210   4.239  11.849  0.00  0.00    +0.000 A 
ATOM      2  C   UNL     1      45.865   3.604  12.899  0.00  0.00    +0.000 A 
ATOM      3  C   UNL     1      46.758   4.353  13.678  0.00  0.00    +0.000 A 
ATOM      4  C   UNL     1      47.013   5.686  13.361  0.00  0.00    +0.000 A 
ATOM      5  C   UNL     1      46.320   6.209  12.270  0.00  0.00    +0.000 A 
ATOM      6  N   UNL     1      45.432   5.522  11.517  0.00  0.00    +0.000 NA
ENDROOT
BRANCH   1   7
ATOM      7  O   UNL     1      44.338   3.519  11.053  0.00  0.00    +0.000 OA
BRANCH   7   8
ATOM      8  C   UNL     1      44.151   4.144   9.769  0.00  0.00    +0.000 C 
BRANCH   8  13
ATOM      9  C   UNL     1      46.397   1.754   7.810  0.00  0.00    +0.000 A 
ATOM     10  C   UNL     1      47.160   2.637   7.050  0.00  0.00    +0.000 A 
ATOM     11  C   UNL     1      46.956   4.012   7.160  0.00  0.00    +0.000 A 
ATOM     12  C   UNL     1      45.986   4.506   8.036  0.00  0.00    +0.000 A 
ATOM     13  C   UNL     1      45.211   3.633   8.814  0.00  0.00    +0.000 A 
ATOM     14  C   UNL     1      45.418   2.250   8.683  0.00  0.00    +0.000 A 
BRANCH   9  16
ATOM     15  N   UNL     1      46.793  -0.806   7.646  0.00  0.00    +0.000 NA
ATOM     16  C   UNL     1      46.618   0.348   7.718  0.00  0.00    +0.000 C 
ENDBRANCH   9  16
ENDBRANCH   8  13
ENDBRANCH   7   8
ENDBRANCH   1   7
BRANCH   4  17
ATOM     17  C   UNL     1      47.981   6.563  14.113  0.00  0.00    +0.000 C 
BRANCH  17  18
ATOM     18  N   UNL     1      47.931   6.407  15.551  0.00  0.00    +0.000 N 
ATOM     19  C   UNL     1      49.065   6.215  16.301  0.00  0.00    +0.000 C 
ATOM     20  O   UNL     1      50.190   6.182  15.811  0.00  0.00    +0.000 OA
ATOM     21  H   UNL     1      47.071   6.031  15.940  0.00  0.00    +0.000 HD
BRANCH  19  22
ATOM     22  C   UNL     1      48.874   6.099  17.747  0.00  0.00    +0.000 A 
ATOM     23  C   UNL     1      49.205   4.914  18.390  0.00  0.00    +0.000 A 
ATOM     24  S   UNL     1      48.877   4.935  20.063  0.00  0.00    +0.000 S 
ATOM     25  C   UNL     1      48.264   6.522  19.980  0.00  0.00    +0.000 A 
ATOM     26  N   UNL     1      47.756   7.136  21.082  0.00  0.00    +0.000 NA
ATOM     27  C   UNL     1      47.308   8.328  20.872  0.00  0.00    +0.000 A 
ATOM     28  N   UNL     1      47.338   8.970  19.660  0.00  0.00    +0.000 N 
ATOM     29  C   UNL     1      47.894   8.410  18.536  0.00  0.00    +0.000 A 
ATOM     30  O   UNL     1      48.010   9.047  17.487  0.00  0.00    +0.000 OA
ATOM     31  C   UNL     1      48.356   7.047  18.703  0.00  0.00    +0.000 A 
ATOM     32  H   UNL     1      47.008   9.922  19.576  0.00  0.00    +0.000 HD
ENDBRANCH  19  22
ENDBRANCH  17  18
ENDBRANCH   4  17
TORSDOF 7
ENDMDL
MODEL 4
REMARK VINA RESULT:    -7.389      3.203      8.732
REMARK INTER + INTRA:         -11.221
REMARK INTER:                 -10.126
REMARK INTRA:                  -1.095
REMARK UNBOUND:                -0.809
REMARK  Name = 
REMARK  7 active torsions:
REMARK  status: ('A' for Active; 'I' for Inactive)
REMARK    1  A    between atoms: C_2  and  C_3
REMARK    2  A    between atoms: C_7  and  C_8
REMARK    3  A    between atoms: C_8  and  O_9
REMARK    4  A    between atoms: O_9  and  C_10
REMARK    5  A    between atoms: C_13  and  C_14
REMARK    6  A    between atoms: C_14  and  N_15
REMARK    7  A    between atoms: C_16  and  C_18
REMARK                            x       y       z     vdW  Elec       q    Type
REMARK                         _______ _______ _______ _____ _____    ______ ____
ROOT
ATOM      1  C   UNL     1      49.428   7.514  15.930  0.00  0.00    +0.000 A 
ATOM      2  C   UNL     1      48.513   8.549  15.758  0.00  0.00    +0.000 A 
ATOM      3  C   UNL     1      47.830   8.639  14.538  0.00  0.00    +0.000 A 
ATOM      4  C   UNL     1      48.112   7.740  13.511  0.00  0.00    +0.000 A 
ATOM      5  C   UNL     1      49.067   6.763  13.786  0.00  0.00    +0.000 A 
ATOM      6  N   UNL     1      49.722   6.630  14.962  0.00  0.00    +0.000 NA
ENDROOT
BRANCH   1   7
ATOM      7  O   UNL     1      50.130   7.412  17.116  0.00  0.00    +0.000 OA
BRANCH   7   8
ATOM      8  C   UNL     1      49.300   6.916  18.184  0.00  0.00    +0.000 C 
BRANCH   8  13
ATOM      9  C   UNL     1      49.450   3.173  17.432  0.00  0.00    +0.000 A 
ATOM     10  C   UNL     1      48.105   2.865  17.246  0.00  0.00    +0.000 A 
ATOM     11  C   UNL     1      47.136   3.861  17.362  0.00  0.00    +0.000 A 
ATOM     12  C   UNL     1      47.514   5.171  17.666  0.00  0.00    +0.000 A 
ATOM     13  C   UNL     1      48.865   5.502  17.852  0.00  0.00    +0.000 A 
ATOM     14  C   UNL     1      49.829   4.487  17.744  0.00  0.00    +0.000 A 
BRANCH   9  16
ATOM     15  N   UNL     1      51.260   1.331  17.177  0.00  0.00    +0.000 NA
ATOM     16  C   UNL     1      50.447   2.163  17.291  0.00  0.00    +0.000 C 
ENDBRANCH   9  16
ENDBRANCH   8  13
ENDBRANCH   7   8
ENDBRANCH   1   7
BRANCH   4  17
ATOM     17  C   UNL     1      47.459   7.777  12.154  0.00  0.00    +0.000 C 
BRANCH  17  18
ATOM     18  N   UNL     1      46.746   6.567  11.803  0.00  0.00    +0.000 N 
ATOM     19  C   UNL     1      45.409   6.407  12.068  0.00  0.00    +0.000 C 
ATOM     20  O   UNL     1      44.727   7.278  12.601  0.00  0.00    +0.000 OA
ATOM     21  H   UNL     1      47.295   5.713  11.749  0.00  0.00    +0.000 HD
BRANCH  19  22
ATOM     22  C   UNL     1      44.808   5.145  11.636  0.00  0.00    +0.000 A 
ATOM     23  C   UNL     1      44.000   4.434  12.512  0.00  0.00    +0.000 A 
ATOM     24  S   UNL     1      43.421   2.967  11.863  0.00  0.00    +0.000 S 
ATOM     25  C   UNL     1      44.247   3.225  10.396  0.00  0.00    +0.000 A 
ATOM     26  N   UNL     1      44.213   2.300   9.400  0.00  0.00    +0.000 NA
ATOM     27  C   UNL     1      44.900   2.614   8.353  0.00  0.00    +0.000 A 
ATOM     28  N   UNL     1      45.604   3.782   8.205  0.00  0.00    +0.000 N 
ATOM     29  C   UNL     1      45.619   4.768   9.162  0.00  0.00    +0.000 A 
ATOM     30  O   UNL     1      46.167   5.853   8.961  0.00  0.00    +0.000 OA
ATOM     31  C   UNL     1      44.914   4.438  10.383  0.00  0.00    +0.000 A 
ATOM     32  H   UNL     1      46.086   3.983   7.340  0.00  0.00    +0.000 HD
ENDBRANCH  19  22
ENDBRANCH  17  18
ENDBRANCH   4  17
TORSDOF 7
ENDMDL
MODEL 5
REMARK VINA RESULT:    -7.086      1.632      2.177
REMARK INTER + INTRA:         -10.794
REMARK INTER:                  -9.784
REMARK INTRA:                  -1.010
REMARK UNBOUND:                -0.809
REMARK  Name = 
REMARK  7 active torsions:
REMARK  status: ('A' for Active; 'I' for Inactive)
REMARK    1  A    between atoms: C_2  and  C_3
REMARK    2  A    between atoms: C_7  and  C_8
REMARK    3  A    between atoms: C_8  and  O_9
REMARK    4  A    between atoms: O_9  and  C_10
REMARK    5  A    between atoms: C_13  and  C_14
REMARK    6  A    between atoms: C_14  and  N_15
REMARK    7  A    between atoms: C_16  and  C_18
REMARK                            x       y       z     vdW  Elec       q    Type
REMARK                         _______ _______ _______ _____ _____    ______ ____
ROOT
ATOM      1  C   UNL     1      45.366   5.098  11.244  0.00  0.00    +0.000 A 
ATOM      2  C   UNL     1      45.889   6.210  10.593  0.00  0.00    +0.000 A 
ATOM      3  C   UNL     1      46.621   7.139  11.343  0.00  0.00    +0.000 A 
ATOM      4  C   UNL     1      46.767   6.967  12.719  0.00  0.00    +0.000 A 
ATOM      5  C   UNL     1      46.175   5.831  13.269  0.00  0.00    +0.000 A 
ATOM      6  N   UNL     1      45.488   4.901  12.568  0.00  0.00    +0.000 NA
ENDROOT
BRANCH   1   7
ATOM      7  O   UNL     1      44.623   4.175  10.532  0.00  0.00    +0.000 OA
BRANCH   7   8
ATOM      8  C   UNL     1      44.753   4.370   9.111  0.00  0.00    +0.000 C 
BRANCH   8  13
ATOM      9  C   UNL     1      46.906   2.195   6.824  0.00  0.00    +0.000 A 
ATOM     10  C   UNL     1      46.693   0.925   7.353  0.00  0.00    +0.000 A 
ATOM     11  C   UNL     1      45.854   0.757   8.455  0.00  0.00    +0.000 A 
ATOM     12  C   UNL     1      45.225   1.866   9.029  0.00  0.00    +0.000 A 
ATOM     13  C   UNL     1      45.423   3.153   8.506  0.00  0.00    +0.000 A 
ATOM     14  C   UNL     1      46.280   3.308   7.404  0.00  0.00    +0.000 A 
BRANCH   9  16
ATOM     15  N   UNL     1      48.437   2.508   4.751  0.00  0.00    +0.000 NA
ATOM     16  C   UNL     1      47.744   2.369   5.683  0.00  0.00    +0.000 C 
ENDBRANCH   9  16
ENDBRANCH   8  13
ENDBRANCH   7   8
ENDBRANCH   1   7
BRANCH   4  17
ATOM     17  C   UNL     1      47.503   7.928  13.617  0.00  0.00    +0.000 C 
BRANCH  17  18
ATOM     18  N   UNL     1      47.804   7.402  14.931  0.00  0.00    +0.000 N 
ATOM     19  C   UNL     1      49.056   6.948  15.264  0.00  0.00    +0.000 C 
ATOM     20  O   UNL     1      50.003   6.973  14.483  0.00  0.00    +0.000 OA
ATOM     21  H   UNL     1      47.030   6.993  15.447  0.00  0.00    +0.000 HD
BRANCH  19  22
ATOM     22  C   UNL     1      49.229   6.467  16.635  0.00  0.00    +0.000 A 
ATOM     23  C   UNL     1      49.960   7.223  17.540  0.00  0.00    +0.000 A 
ATOM     24  S   UNL     1      50.100   6.495  19.076  0.00  0.00    +0.000 S 
ATOM     25  C   UNL     1      49.203   5.137  18.577  0.00  0.00    +0.000 A 
ATOM     26  N   UNL     1      48.990   4.089  19.416  0.00  0.00    +0.000 NA
ATOM     27  C   UNL     1      48.312   3.119  18.901  0.00  0.00    +0.000 A 
ATOM     28  N   UNL     1      47.810   3.110  17.624  0.00  0.00    +0.000 N 
ATOM     29  C   UNL     1      47.952   4.170  16.763  0.00  0.00    +0.000 A 
ATOM     30  O   UNL     1      47.399   4.185  15.662  0.00  0.00    +0.000 OA
ATOM     31  C   UNL     1      48.759   5.261  17.271  0.00  0.00    +0.000 A 
ATOM     32  H   UNL     1      47.251   2.334  17.299  0.00  0.00    +0.000 HD
ENDBRANCH  19  22
ENDBRANCH  17  18
ENDBRANCH   4  17
TORSDOF 7
ENDMDL
MODEL 6
REMARK VINA RESULT:    -6.887      3.760      8.941
REMARK INTER + INTRA:         -10.514
REMARK INTER:                  -9.358
REMARK INTRA:                  -1.156
REMARK UNBOUND:                -0.809
REMARK  Name = 
REMARK  7 active torsions:
REMARK  status: ('A' for Active; 'I' for Inactive)
REMARK    1  A    between atoms: C_2  and  C_3
REMARK    2  A    between atoms: C_7  and  C_8
REMARK    3  A    between atoms: C_8  and  O_9
REMARK    4  A    between atoms: O_9  and  C_10
REMARK    5  A    between atoms: C_13  and  C_14
REMARK    6  A    between atoms: C_14  and  N_15
REMARK    7  A    between atoms: C_16  and  C_18
REMARK                            x       y       z     vdW  Elec       q    Type
REMARK                         _______ _______ _______ _____ _____    ______ ____
ROOT
ATOM      1  C   UNL     1      51.312   3.438  17.879  0.00  0.00    +0.000 A 
ATOM      2  C   UNL     1      50.516   4.434  18.436  0.00  0.00    +0.000 A 
ATOM      3  C   UNL     1      49.144   4.427  18.153  0.00  0.00    +0.000 A 
ATOM      4  C   UNL     1      48.613   3.471  17.289  0.00  0.00    +0.000 A 
ATOM      5  C   UNL     1      49.509   2.539  16.767  0.00  0.00    +0.000 A 
ATOM      6  N   UNL     1      50.833   2.501  17.043  0.00  0.00    +0.000 NA
ENDROOT
BRANCH   1   7
ATOM      7  O   UNL     1      52.672   3.432  18.126  0.00  0.00    +0.000 OA
BRANCH   7   8
ATOM      8  C   UNL     1      53.161   4.749  18.443  0.00  0.00    +0.000 C 
BRANCH   8  13
ATOM      9  C   UNL     1      53.602   6.990  15.380  0.00  0.00    +0.000 A 
ATOM     10  C   UNL     1      54.822   6.547  14.875  0.00  0.00    +0.000 A 
ATOM     11  C   UNL     1      55.515   5.522  15.518  0.00  0.00    +0.000 A 
ATOM     12  C   UNL     1      54.986   4.937  16.671  0.00  0.00    +0.000 A 
ATOM     13  C   UNL     1      53.755   5.366  17.192  0.00  0.00    +0.000 A 
ATOM     14  C   UNL     1      53.074   6.407  16.541  0.00  0.00    +0.000 A 
BRANCH   9  16
ATOM     15  N   UNL     1      52.286   8.871  14.169  0.00  0.00    +0.000 NA
ATOM     16  C   UNL     1      52.877   8.021  14.712  0.00  0.00    +0.000 C 
ENDBRANCH   9  16
ENDBRANCH   8  13
ENDBRANCH   7   8
ENDBRANCH   1   7
BRANCH   4  17
ATOM     17  C   UNL     1      47.160   3.402  16.895  0.00  0.00    +0.000 C 
BRANCH  17  18
ATOM     18  N   UNL     1      46.773   4.361  15.882  0.00  0.00    +0.000 N 
ATOM     19  C   UNL     1      46.860   4.079  14.542  0.00  0.00    +0.000 C 
ATOM     20  O   UNL     1      47.253   2.998  14.112  0.00  0.00    +0.000 OA
ATOM     21  H   UNL     1      46.835   5.343  16.136  0.00  0.00    +0.000 HD
BRANCH  19  22
ATOM     22  C   UNL     1      46.410   5.129  13.627  0.00  0.00    +0.000 A 
ATOM     23  C   UNL     1      47.208   6.244  13.417  0.00  0.00    +0.000 A 
ATOM     24  S   UNL     1      46.513   7.387  12.359  0.00  0.00    +0.000 S 
ATOM     25  C   UNL     1      45.113   6.437  12.163  0.00  0.00    +0.000 A 
ATOM     26  N   UNL     1      44.072   6.871  11.403  0.00  0.00    +0.000 NA
ATOM     27  C   UNL     1      43.068   6.060  11.358  0.00  0.00    +0.000 A 
ATOM     28  N   UNL     1      43.019   4.844  11.990  0.00  0.00    +0.000 N 
ATOM     29  C   UNL     1      44.069   4.343  12.720  0.00  0.00    +0.000 A 
ATOM     30  O   UNL     1      44.044   3.202  13.186  0.00  0.00    +0.000 OA
ATOM     31  C   UNL     1      45.198   5.241  12.854  0.00  0.00    +0.000 A 
ATOM     32  H   UNL     1      42.216   4.241  11.877  0.00  0.00    +0.000 HD
ENDBRANCH  19  22
ENDBRANCH  17  18
ENDBRANCH   4  17
TORSDOF 7
ENDMDL
MODEL 7
REMARK VINA RESULT:    -6.670      2.774      3.836
REMARK INTER + INTRA:         -10.209
REMARK INTER:                  -9.169
REMARK INTRA:                  -1.040
REMARK UNBOUND:                -0.809
REMARK  Name = 
REMARK  7 active torsions:
REMARK  status: ('A' for Active; 'I' for Inactive)
REMARK    1  A    between atoms: C_2  and  C_3
REMARK    2  A    between atoms: C_7  and  C_8
REMARK    3  A    between atoms: C_8  and  O_9
REMARK    4  A    between atoms: O_9  and  C_10
REMARK    5  A    between atoms: C_13  and  C_14
REMARK    6  A    between atoms: C_14  and  N_15
REMARK    7  A    between atoms: C_16  and  C_18
REMARK                            x       y       z     vdW  Elec       q    Type
REMARK                         _______ _______ _______ _____ _____    ______ ____
ROOT
ATOM      1  C   UNL     1      47.741   7.218  12.676  0.00  0.00    +0.000 A 
ATOM      2  C   UNL     1      47.154   8.145  13.532  0.00  0.00    +0.000 A 
ATOM      3  C   UNL     1      47.867   8.547  14.669  0.00  0.00    +0.000 A 
ATOM      4  C   UNL     1      49.110   7.982  14.951  0.00  0.00    +0.000 A 
ATOM      5  C   UNL     1      49.586   7.042  14.038  0.00  0.00    +0.000 A 
ATOM      6  N   UNL     1      48.937   6.655  12.917  0.00  0.00    +0.000 NA
ENDROOT
BRANCH   1   7
ATOM      7  O   UNL     1      47.052   6.789  11.557  0.00  0.00    +0.000 OA
BRANCH   7   8
ATOM      8  C   UNL     1      45.641   7.051  11.668  0.00  0.00    +0.000 C 
BRANCH   8  13
ATOM      9  C   UNL     1      44.387   3.531  10.869  0.00  0.00    +0.000 A 
ATOM     10  C   UNL     1      43.560   3.269  11.958  0.00  0.00    +0.000 A 
ATOM     11  C   UNL     1      43.399   4.224  12.962  0.00  0.00    +0.000 A 
ATOM     12  C   UNL     1      44.069   5.447  12.876  0.00  0.00    +0.000 A 
ATOM     13  C   UNL     1      44.903   5.732  11.784  0.00  0.00    +0.000 A 
ATOM     14  C   UNL     1      45.065   4.757  10.787  0.00  0.00    +0.000 A 
BRANCH   9  16
ATOM     15  N   UNL     1      44.659   1.784   8.970  0.00  0.00    +0.000 NA
ATOM     16  C   UNL     1      44.536   2.568   9.828  0.00  0.00    +0.000 C 
ENDBRANCH   9  16
ENDBRANCH   8  13
ENDBRANCH   7   8
ENDBRANCH   1   7
BRANCH   4  17
ATOM     17  C   UNL     1      49.936   8.320  16.165  0.00  0.00    +0.000 C 
BRANCH  17  18
ATOM     18  N   UNL     1      50.766   7.235  16.642  0.00  0.00    +0.000 N 
ATOM     19  C   UNL     1      50.323   6.340  17.584  0.00  0.00    +0.000 C 
ATOM     20  O   UNL     1      49.197   6.386  18.069  0.00  0.00    +0.000 OA
ATOM     21  H   UNL     1      51.771   7.377  16.600  0.00  0.00    +0.000 HD
BRANCH  19  22
ATOM     22  C   UNL     1      51.256   5.276  17.956  0.00  0.00    +0.000 A 
ATOM     23  C   UNL     1      52.432   5.595  18.619  0.00  0.00    +0.000 A 
ATOM     24  S   UNL     1      53.422   4.242  18.936  0.00  0.00    +0.000 S 
ATOM     25  C   UNL     1      52.319   3.188  18.180  0.00  0.00    +0.000 A 
ATOM     26  N   UNL     1      52.588   1.860  18.059  0.00  0.00    +0.000 NA
ATOM     27  C   UNL     1      51.676   1.183  17.447  0.00  0.00    +0.000 A 
ATOM     28  N   UNL     1      50.507   1.710  16.961  0.00  0.00    +0.000 N 
ATOM     29  C   UNL     1      50.169   3.033  17.112  0.00  0.00    +0.000 A 
ATOM     30  O   UNL     1      49.066   3.461  16.766  0.00  0.00    +0.000 OA
ATOM     31  C   UNL     1      51.187   3.851  17.738  0.00  0.00    +0.000 A 
ATOM     32  H   UNL     1      49.816   1.113  16.529  0.00  0.00    +0.000 HD
ENDBRANCH  19  22
ENDBRANCH  17  18
ENDBRANCH   4  17
TORSDOF 7
ENDMDL
MODEL 8
REMARK VINA RESULT:    -6.595      1.949      2.154
REMARK INTER + INTRA:         -10.103
REMARK INTER:                  -9.441
REMARK INTRA:                  -0.663
REMARK UNBOUND:                -0.809
REMARK  Name = 
REMARK  7 active torsions:
REMARK  status: ('A' for Active; 'I' for Inactive)
REMARK    1  A    between atoms: C_2  and  C_3
REMARK    2  A    between atoms: C_7  and  C_8
REMARK    3  A    between atoms: C_8  and  O_9
REMARK    4  A    between atoms: O_9  and  C_10
REMARK    5  A    between atoms: C_13  and  C_14
REMARK    6  A    between atoms: C_14  and  N_15
REMARK    7  A    between atoms: C_16  and  C_18
REMARK                            x       y       z     vdW  Elec       q    Type
REMARK                         _______ _______ _______ _____ _____    ______ ____
ROOT
ATOM      1  C   UNL     1      44.977   5.420  12.328  0.00  0.00    +0.000 A 
ATOM      2  C   UNL     1      44.936   6.728  11.857  0.00  0.00    +0.000 A 
ATOM      3  C   UNL     1      46.093   7.510  11.959  0.00  0.00    +0.000 A 
ATOM      4  C   UNL     1      47.235   6.993  12.568  0.00  0.00    +0.000 A 
ATOM      5  C   UNL     1      47.153   5.680  13.028  0.00  0.00    +0.000 A 
ATOM      6  N   UNL     1      46.061   4.890  12.920  0.00  0.00    +0.000 NA
ENDROOT
BRANCH   1   7
ATOM      7  O   UNL     1      43.844   4.632  12.258  0.00  0.00    +0.000 OA
BRANCH   7   8
ATOM      8  C   UNL     1      44.159   3.279  11.880  0.00  0.00    +0.000 C 
BRANCH   8  13
ATOM      9  C   UNL     1      45.588   2.111   8.534  0.00  0.00    +0.000 A 
ATOM     10  C   UNL     1      45.216   3.151   7.686  0.00  0.00    +0.000 A 
ATOM     11  C   UNL     1      44.500   4.239   8.185  0.00  0.00    +0.000 A 
ATOM     12  C   UNL     1      44.153   4.287   9.538  0.00  0.00    +0.000 A 
ATOM     13  C   UNL     1      44.523   3.251  10.409  0.00  0.00    +0.000 A 
ATOM     14  C   UNL     1      45.235   2.156   9.891  0.00  0.00    +0.000 A 
BRANCH   9  16
ATOM     15  N   UNL     1      46.960   0.108   7.619  0.00  0.00    +0.000 NA
ATOM     16  C   UNL     1      46.341   1.009   8.035  0.00  0.00    +0.000 C 
ENDBRANCH   9  16
ENDBRANCH   8  13
ENDBRANCH   7   8
ENDBRANCH   1   7
BRANCH   4  17
ATOM     17  C   UNL     1      48.515   7.766  12.757  0.00  0.00    +0.000 C 
BRANCH  17  18
ATOM     18  N   UNL     1      49.445   7.159  13.686  0.00  0.00    +0.000 N 
ATOM     19  C   UNL     1      49.713   7.712  14.913  0.00  0.00    +0.000 C 
ATOM     20  O   UNL     1      49.175   8.741  15.312  0.00  0.00    +0.000 OA
ATOM     21  H   UNL     1      50.183   6.586  13.284  0.00  0.00    +0.000 HD
BRANCH  19  22
ATOM     22  C   UNL     1      50.653   6.981  15.763  0.00  0.00    +0.000 A 
ATOM     23  C   UNL     1      51.987   7.362  15.797  0.00  0.00    +0.000 A 
ATOM     24  S   UNL     1      52.949   6.376  16.803  0.00  0.00    +0.000 S 
ATOM     25  C   UNL     1      51.618   5.395  17.210  0.00  0.00    +0.000 A 
ATOM     26  N   UNL     1      51.766   4.311  18.017  0.00  0.00    +0.000 NA
ATOM     27  C   UNL     1      50.679   3.646  18.226  0.00  0.00    +0.000 A 
ATOM     28  N   UNL     1      49.451   3.980  17.715  0.00  0.00    +0.000 N 
ATOM     29  C   UNL     1      49.246   5.098  16.945  0.00  0.00    +0.000 A 
ATOM     30  O   UNL     1      48.115   5.438  16.589  0.00  0.00    +0.000 OA
ATOM     31  C   UNL     1      50.445   5.845  16.628  0.00  0.00    +0.000 A 
ATOM     32  H   UNL     1      48.632   3.438  17.955  0.00  0.00    +0.000 HD
ENDBRANCH  19  22
ENDBRANCH  17  18
ENDBRANCH   4  17
TORSDOF 7
ENDMDL
MODEL 9
REMARK VINA RESULT:    -6.333      5.353      8.910
REMARK INTER + INTRA:          -9.733
REMARK INTER:                  -8.864
REMARK INTRA:                  -0.868
REMARK UNBOUND:                -0.809
REMARK  Name = 
REMARK  7 active torsions:
REMARK  status: ('A' for Active; 'I' for Inactive)
REMARK    1  A    between atoms: C_2  and  C_3
REMARK    2  A    between atoms: C_7  and  C_8
REMARK    3  A    between atoms: C_8  and  O_9
REMARK    4  A    between atoms: O_9  and  C_10
REMARK    5  A    between atoms: C_13  and  C_14
REMARK    6  A    between atoms: C_14  and  N_15
REMARK    7  A    between atoms: C_16  and  C_18
REMARK                            x       y       z     vdW  Elec       q    Type
REMARK                         _______ _______ _______ _____ _____    ______ ____
ROOT
ATOM      1  C   UNL     1      50.629   8.890  11.537  0.00  0.00    +0.000 A 
ATOM      2  C   UNL     1      50.245   7.562  11.692  0.00  0.00    +0.000 A 
ATOM      3  C   UNL     1      48.900   7.284  11.967  0.00  0.00    +0.000 A 
ATOM      4  C   UNL     1      47.990   8.328  12.131  0.00  0.00    +0.000 A 
ATOM      5  C   UNL     1      48.493   9.619  11.981  0.00  0.00    +0.000 A 
ATOM      6  N   UNL     1      49.778   9.919  11.688  0.00  0.00    +0.000 NA
ENDROOT
BRANCH   1   7
ATOM      7  O   UNL     1      51.954   9.194  11.285  0.00  0.00    +0.000 OA
BRANCH   7   8
ATOM      8  C   UNL     1      52.195   9.395   9.880  0.00  0.00    +0.000 C 
BRANCH   8  13
ATOM      9  C   UNL     1      54.029   6.049   9.686  0.00  0.00    +0.000 A 
ATOM     10  C   UNL     1      54.112   5.848   8.311  0.00  0.00    +0.000 A 
ATOM     11  C   UNL     1      53.576   6.789   7.432  0.00  0.00    +0.000 A 
ATOM     12  C   UNL     1      52.955   7.936   7.931  0.00  0.00    +0.000 A 
ATOM     13  C   UNL     1      52.865   8.159   9.314  0.00  0.00    +0.000 A 
ATOM     14  C   UNL     1      53.399   7.197  10.187  0.00  0.00    +0.000 A 
BRANCH   9  16
ATOM     15  N   UNL     1      55.066   4.330  11.332  0.00  0.00    +0.000 NA
ATOM     16  C   UNL     1      54.596   5.102  10.589  0.00  0.00    +0.000 C 
ENDBRANCH   9  16
ENDBRANCH   8  13
ENDBRANCH   7   8
ENDBRANCH   1   7
BRANCH   4  17
ATOM     17  C   UNL     1      46.533   8.133  12.463  0.00  0.00    +0.000 C 
BRANCH  17  18
ATOM     18  N   UNL     1      46.031   6.804  12.185  0.00  0.00    +0.000 N 
ATOM     19  C   UNL     1      44.813   6.597  11.586  0.00  0.00    +0.000 C 
ATOM     20  O   UNL     1      44.080   7.516  11.232  0.00  0.00    +0.000 OA
ATOM     21  H   UNL     1      46.366   6.055  12.784  0.00  0.00    +0.000 HD
BRANCH  19  22
ATOM     22  C   UNL     1      44.441   5.204  11.339  0.00  0.00    +0.000 A 
ATOM     23  C   UNL     1      43.645   4.533  12.257  0.00  0.00    +0.000 A 
ATOM     24  S   UNL     1      43.345   2.908  11.836  0.00  0.00    +0.000 S 
ATOM     25  C   UNL     1      44.286   3.042  10.423  0.00  0.00    +0.000 A 
ATOM     26  N   UNL     1      44.487   1.970   9.611  0.00  0.00    +0.000 NA
ATOM     27  C   UNL     1      45.236   2.208   8.587  0.00  0.00    +0.000 A 
ATOM     28  N   UNL     1      45.788   3.428   8.291  0.00  0.00    +0.000 N 
ATOM     29  C   UNL     1      45.563   4.549   9.051  0.00  0.00    +0.000 A 
ATOM     30  O   UNL     1      45.977   5.657   8.705  0.00  0.00    +0.000 OA
ATOM     31  C   UNL     1      44.779   4.323  10.248  0.00  0.00    +0.000 A 
ATOM     32  H   UNL     1      46.331   3.554   7.448  0.00  0.00    +0.000 HD
ENDBRANCH  19  22
ENDBRANCH  17  18
ENDBRANCH   4  17
TORSDOF 7
ENDMDL
