MODEL 1
REMARK VINA RESULT:    -8.625      0.000      0.000
REMARK INTER + INTRA:         -12.017
REMARK INTER:                 -11.146
REMARK INTRA:                  -0.871
REMARK UNBOUND:                -0.871
REMARK  Name = 
REMARK  6 active torsions:
REMARK  status: ('A' for Active; 'I' for Inactive)
REMARK    1  A    between atoms: C_1  and  C_2
REMARK    2  A    between atoms: C_2  and  N_3
REMARK    3  A    between atoms: C_2  and  C_16
REMARK    4  A    between atoms: C_4  and  C_6
REMARK    5  A    between atoms: C_19  and  C_20
REMARK    6  A    between atoms: C_20  and  C_21
REMARK                            x       y       z     vdW  Elec       q    Type
REMARK                         _______ _______ _______ _____ _____    ______ ____
ROOT
ATOM      1  C   UNL     1      45.239   8.557  12.749  0.00  0.00    +0.000 C 
ATOM      2  C   UNL     1      46.384   7.567  12.517  0.00  0.00    +0.000 C 
ENDROOT
BRANCH   2   3
ATOM      3  C   UNL     1      45.980   6.427  11.599  0.00  0.00    +0.000 A 
ATOM      4  C   UNL     1      45.168   5.394  12.089  0.00  0.00    +0.000 A 
ATOM      5  C   UNL     1      44.728   4.367  11.250  0.00  0.00    +0.000 A 
ATOM      6  C   UNL     1      45.089   4.348   9.897  0.00  0.00    +0.000 A 
ATOM      7  C   UNL     1      45.907   5.372   9.403  0.00  0.00    +0.000 A 
ATOM      8  C   UNL     1      46.349   6.399  10.243  0.00  0.00    +0.000 A 
BRANCH   6   9
ATOM      9  C   UNL     1      44.556   3.273   8.976  0.00  0.00    +0.000 C 
BRANCH   9  10
ATOM     10  C   UNL     1      45.620   2.662   8.095  0.00  0.00    +0.000 A 
ATOM     11  C   UNL     1      46.090   1.367   8.329  0.00  0.00    +0.000 A 
ATOM     12  C   UNL     1      47.099   0.866   7.521  0.00  0.00    +0.000 A 
ATOM     13  N   UNL     1      47.664   1.555   6.508  0.00  0.00    +0.000 NA
ATOM     14  C   UNL     1      47.197   2.803   6.295  0.00  0.00    +0.000 A 
ATOM     15  C   UNL     1      46.192   3.393   7.048  0.00  0.00    +0.000 A 
ENDBRANCH   9  10
ENDBRANCH   6   9
ENDBRANCH   2   3
BRANCH   2  16
ATOM     16  N   UNL     1      46.891   7.039  13.772  0.00  0.00    +0.000 N 
ATOM     17  C   UNL     1      48.224   6.801  13.980  0.00  0.00    +0.000 C 
ATOM     18  O   UNL     1      49.067   7.034  13.117  0.00  0.00    +0.000 OA
ATOM     19  H   UNL     1      46.210   6.735  14.461  0.00  0.00    +0.000 HD
BRANCH  17  20
ATOM     20  C   UNL     1      48.613   6.291  15.302  0.00  0.00    +0.000 A 
ATOM     21  C   UNL     1      49.600   6.954  16.021  0.00  0.00    +0.000 A 
ATOM     22  S   UNL     1      49.955   6.234  17.524  0.00  0.00    +0.000 S 
ATOM     23  C   UNL     1      48.834   4.985  17.250  0.00  0.00    +0.000 A 
ATOM     24  N   UNL     1      48.679   3.977  18.153  0.00  0.00    +0.000 NA
ATOM     25  C   UNL     1      47.827   3.074  17.800  0.00  0.00    +0.000 A 
ATOM     26  N   UNL     1      47.102   3.097  16.637  0.00  0.00    +0.000 N 
ATOM     27  C   UNL     1      47.164   4.133  15.740  0.00  0.00    +0.000 A 
ATOM     28  O   UNL     1      46.398   4.199  14.786  0.00  0.00    +0.000 OA
ATOM     29  C   UNL     1      48.161   5.143  16.051  0.00  0.00    +0.000 A 
ATOM     30  H   UNL     1      46.423   2.375  16.439  0.00  0.00    +0.000 HD
ENDBRANCH  17  20
ENDBRANCH   2  16
TORSDOF 5
ENDMDL
MODEL 2
REMARK VINA RESULT:    -8.537      2.669      4.122
REMARK INTER + INTRA:         -11.903
REMARK INTER:                 -10.822
REMARK INTRA:                  -1.082
REMARK UNBOUND:                -0.871
REMARK  Name = 
REMARK  6 active torsions:
REMARK  status: ('A' for Active; 'I' for Inactive)
REMARK    1  A    between atoms: C_1  and  C_2
REMARK    2  A    between atoms: C_2  and  N_3
REMARK    3  A    between atoms: C_2  and  C_16
REMARK    4  A    between atoms: C_4  and  C_6
REMARK    5  A    between atoms: C_19  and  C_20
REMARK    6  A    between atoms: C_20  and  C_21
REMARK                            x       y       z     vdW  Elec       q    Type
REMARK                         _______ _______ _______ _____ _____    ______ ____
ROOT
ATOM      1  C   UNL     1      46.395   4.713  14.253  0.00  0.00    +0.000 C 
ATOM      2  C   UNL     1      46.016   5.819  13.264  0.00  0.00    +0.000 C 
ENDROOT
BRANCH   2   3
ATOM      3  C   UNL     1      45.600   5.265  11.914  0.00  0.00    +0.000 A 
ATOM      4  C   UNL     1      46.031   5.898  10.740  0.00  0.00    +0.000 A 
ATOM      5  C   UNL     1      45.717   5.373   9.483  0.00  0.00    +0.000 A 
ATOM      6  C   UNL     1      44.964   4.198   9.370  0.00  0.00    +0.000 A 
ATOM      7  C   UNL     1      44.522   3.566  10.539  0.00  0.00    +0.000 A 
ATOM      8  C   UNL     1      44.834   4.093  11.796  0.00  0.00    +0.000 A 
BRANCH   6   9
ATOM      9  C   UNL     1      44.682   3.595   8.012  0.00  0.00    +0.000 C 
BRANCH   9  10
ATOM     10  C   UNL     1      45.859   2.840   7.439  0.00  0.00    +0.000 A 
ATOM     11  C   UNL     1      46.527   3.305   6.304  0.00  0.00    +0.000 A 
ATOM     12  C   UNL     1      47.572   2.554   5.789  0.00  0.00    +0.000 A 
ATOM     13  N   UNL     1      47.994   1.388   6.321  0.00  0.00    +0.000 NA
ATOM     14  C   UNL     1      47.339   0.955   7.418  0.00  0.00    +0.000 A 
ATOM     15  C   UNL     1      46.282   1.634   8.007  0.00  0.00    +0.000 A 
ENDBRANCH   9  10
ENDBRANCH   6   9
ENDBRANCH   2   3
BRANCH   2  16
ATOM     16  N   UNL     1      47.098   6.774  13.098  0.00  0.00    +0.000 N 
ATOM     17  C   UNL     1      46.891   8.128  13.130  0.00  0.00    +0.000 C 
ATOM     18  O   UNL     1      45.776   8.609  13.314  0.00  0.00    +0.000 OA
ATOM     19  H   UNL     1      48.009   6.408  12.835  0.00  0.00    +0.000 HD
BRANCH  17  20
ATOM     20  C   UNL     1      48.072   8.989  12.976  0.00  0.00    +0.000 A 
ATOM     21  C   UNL     1      47.940  10.213  12.333  0.00  0.00    +0.000 A 
ATOM     22  S   UNL     1      49.398  11.087  12.213  0.00  0.00    +0.000 S 
ATOM     23  C   UNL     1      50.268   9.841  12.978  0.00  0.00    +0.000 A 
ATOM     24  N   UNL     1      51.615   9.936  13.148  0.00  0.00    +0.000 NA
ATOM     25  C   UNL     1      52.155   8.903  13.704  0.00  0.00    +0.000 A 
ATOM     26  N   UNL     1      51.467   7.795  14.123  0.00  0.00    +0.000 N 
ATOM     27  C   UNL     1      50.101   7.692  14.049  0.00  0.00    +0.000 A 
ATOM     28  O   UNL     1      49.501   6.756  14.565  0.00  0.00    +0.000 OA
ATOM     29  C   UNL     1      49.448   8.796  13.365  0.00  0.00    +0.000 A 
ATOM     30  H   UNL     1      51.947   7.035  14.585  0.00  0.00    +0.000 HD
ENDBRANCH  17  20
ENDBRANCH   2  16
TORSDOF 5
ENDMDL
MODEL 3
REMARK VINA RESULT:    -8.449      1.482      2.056
REMARK INTER + INTRA:         -11.790
REMARK INTER:                 -10.772
REMARK INTRA:                  -1.018
REMARK UNBOUND:                -0.871
REMARK  Name = 
REMARK  6 active torsions:
REMARK  status: ('A' for Active; 'I' for Inactive)
REMARK    1  A    between atoms: C_1  and  C_2
REMARK    2  A    between atoms: C_2  and  N_3
REMARK    3  A    between atoms: C_2  and  C_16
REMARK    4  A    between atoms: C_4  and  C_6
REMARK    5  A    between atoms: C_19  and  C_20
REMARK    6  A    between atoms: C_20  and  C_21
REMARK                            x       y       z     vdW  Elec       q    Type
REMARK                         _______ _______ _______ _____ _____    ______ ____
ROOT
ATOM      1  C   UNL     1      45.570   8.239  12.927  0.00  0.00    +0.000 C 
ATOM      2  C   UNL     1      46.536   7.061  12.770  0.00  0.00    +0.000 C 
ENDROOT
BRANCH   2   3
ATOM      3  C   UNL     1      46.127   6.131  11.641  0.00  0.00    +0.000 A 
ATOM      4  C   UNL     1      45.380   4.980  11.926  0.00  0.00    +0.000 A 
ATOM      5  C   UNL     1      44.936   4.140  10.900  0.00  0.00    +0.000 A 
ATOM      6  C   UNL     1      45.227   4.434   9.563  0.00  0.00    +0.000 A 
ATOM      7  C   UNL     1      45.980   5.578   9.273  0.00  0.00    +0.000 A 
ATOM      8  C   UNL     1      46.427   6.416  10.298  0.00  0.00    +0.000 A 
BRANCH   6   9
ATOM      9  C   UNL     1      44.688   3.561   8.451  0.00  0.00    +0.000 C 
BRANCH   9  10
ATOM     10  C   UNL     1      45.757   2.750   7.758  0.00  0.00    +0.000 A 
ATOM     11  C   UNL     1      46.128   1.492   8.238  0.00  0.00    +0.000 A 
ATOM     12  C   UNL     1      47.146   0.805   7.595  0.00  0.00    +0.000 A 
ATOM     13  N   UNL     1      47.810   1.276   6.519  0.00  0.00    +0.000 NA
ATOM     14  C   UNL     1      47.437   2.492   6.068  0.00  0.00    +0.000 A 
ATOM     15  C   UNL     1      46.432   3.256   6.642  0.00  0.00    +0.000 A 
ENDBRANCH   9  10
ENDBRANCH   6   9
ENDBRANCH   2   3
BRANCH   2  16
ATOM     16  N   UNL     1      46.666   6.313  14.008  0.00  0.00    +0.000 N 
ATOM     17  C   UNL     1      47.885   6.004  14.552  0.00  0.00    +0.000 C 
ATOM     18  O   UNL     1      48.938   6.355  14.025  0.00  0.00    +0.000 OA
ATOM     19  H   UNL     1      45.820   5.917  14.406  0.00  0.00    +0.000 HD
BRANCH  17  20
ATOM     20  C   UNL     1      47.882   5.266  15.822  0.00  0.00    +0.000 A 
ATOM     21  C   UNL     1      47.413   3.959  15.847  0.00  0.00    +0.000 A 
ATOM     22  S   UNL     1      47.453   3.243  17.392  0.00  0.00    +0.000 S 
ATOM     23  C   UNL     1      48.060   4.669  18.094  0.00  0.00    +0.000 A 
ATOM     24  N   UNL     1      48.276   4.748  19.436  0.00  0.00    +0.000 NA
ATOM     25  C   UNL     1      48.696   5.899  19.840  0.00  0.00    +0.000 A 
ATOM     26  N   UNL     1      48.940   6.971  19.022  0.00  0.00    +0.000 N 
ATOM     27  C   UNL     1      48.817   6.911  17.657  0.00  0.00    +0.000 A 
ATOM     28  O   UNL     1      49.182   7.837  16.942  0.00  0.00    +0.000 OA
ATOM     29  C   UNL     1      48.276   5.660  17.153  0.00  0.00    +0.000 A 
ATOM     30  H   UNL     1      49.304   7.835  19.400  0.00  0.00    +0.000 HD
ENDBRANCH  17  20
ENDBRANCH   2  16
TORSDOF 5
ENDMDL
MODEL 4
REMARK VINA RESULT:    -7.615      2.546      4.332
REMARK INTER + INTRA:         -10.712
REMARK INTER:                  -9.532
REMARK INTRA:                  -1.180
REMARK UNBOUND:                -0.871
REMARK  Name = 
REMARK  6 active torsions:
REMARK  status: ('A' for Active; 'I' for Inactive)
REMARK    1  A    between atoms: C_1  and  C_2
REMARK    2  A    between atoms: C_2  and  N_3
REMARK    3  A    between atoms: C_2  and  C_16
REMARK    4  A    between atoms: C_4  and  C_6
REMARK    5  A    between atoms: C_19  and  C_20
REMARK    6  A    between atoms: C_20  and  C_21
REMARK                            x       y       z     vdW  Elec       q    Type
REMARK                         _______ _______ _______ _____ _____    ______ ____
ROOT
ATOM      1  C   UNL     1      46.956   4.405  15.065  0.00  0.00    +0.000 C 
ATOM      2  C   UNL     1      46.823   5.541  14.046  0.00  0.00    +0.000 C 
ENDROOT
BRANCH   2   3
ATOM      3  C   UNL     1      46.185   5.077  12.749  0.00  0.00    +0.000 A 
ATOM      4  C   UNL     1      46.216   5.911  11.623  0.00  0.00    +0.000 A 
ATOM      5  C   UNL     1      45.694   5.484  10.399  0.00  0.00    +0.000 A 
ATOM      6  C   UNL     1      45.128   4.210  10.270  0.00  0.00    +0.000 A 
ATOM      7  C   UNL     1      45.087   3.375  11.394  0.00  0.00    +0.000 A 
ATOM      8  C   UNL     1      45.607   3.803  12.620  0.00  0.00    +0.000 A 
BRANCH   6   9
ATOM      9  C   UNL     1      44.625   3.725   8.929  0.00  0.00    +0.000 C 
BRANCH   9  10
ATOM     10  C   UNL     1      45.645   2.910   8.169  0.00  0.00    +0.000 A 
ATOM     11  C   UNL     1      46.414   3.488   7.156  0.00  0.00    +0.000 A 
ATOM     12  C   UNL     1      47.305   2.689   6.456  0.00  0.00    +0.000 A 
ATOM     13  N   UNL     1      47.481   1.372   6.692  0.00  0.00    +0.000 NA
ATOM     14  C   UNL     1      46.731   0.832   7.675  0.00  0.00    +0.000 A 
ATOM     15  C   UNL     1      45.814   1.547   8.431  0.00  0.00    +0.000 A 
ENDBRANCH   9  10
ENDBRANCH   6   9
ENDBRANCH   2   3
BRANCH   2  16
ATOM     16  N   UNL     1      48.109   6.161  13.774  0.00  0.00    +0.000 N 
ATOM     17  C   UNL     1      48.671   7.081  14.620  0.00  0.00    +0.000 C 
ATOM     18  O   UNL     1      48.122   7.422  15.665  0.00  0.00    +0.000 OA
ATOM     19  H   UNL     1      48.532   5.982  12.868  0.00  0.00    +0.000 HD
BRANCH  17  20
ATOM     20  C   UNL     1      49.988   7.616  14.245  0.00  0.00    +0.000 A 
ATOM     21  C   UNL     1      51.042   7.513  15.143  0.00  0.00    +0.000 A 
ATOM     22  S   UNL     1      52.497   8.194  14.576  0.00  0.00    +0.000 S 
ATOM     23  C   UNL     1      51.759   8.692  13.126  0.00  0.00    +0.000 A 
ATOM     24  N   UNL     1      52.459   9.397  12.195  0.00  0.00    +0.000 NA
ATOM     25  C   UNL     1      51.767   9.747  11.163  0.00  0.00    +0.000 A 
ATOM     26  N   UNL     1      50.446   9.438  10.969  0.00  0.00    +0.000 N 
ATOM     27  C   UNL     1      49.726   8.659  11.839  0.00  0.00    +0.000 A 
ATOM     28  O   UNL     1      48.594   8.277  11.567  0.00  0.00    +0.000 OA
ATOM     29  C   UNL     1      50.435   8.298  13.055  0.00  0.00    +0.000 A 
ATOM     30  H   UNL     1      49.973   9.713  10.119  0.00  0.00    +0.000 HD
ENDBRANCH  17  20
ENDBRANCH   2  16
TORSDOF 5
ENDMDL
MODEL 5
REMARK VINA RESULT:    -7.493      3.270      7.813
REMARK INTER + INTRA:         -10.554
REMARK INTER:                  -9.324
REMARK INTRA:                  -1.231
REMARK UNBOUND:                -0.871
REMARK  Name = 
REMARK  6 active torsions:
REMARK  status: ('A' for Active; 'I' for Inactive)
REMARK    1  A    between atoms: C_1  and  C_2
REMARK    2  A    between atoms: C_2  and  N_3
REMARK    3  A    between atoms: C_2  and  C_16
REMARK    4  A    between atoms: C_4  and  C_6
REMARK    5  A    between atoms: C_19  and  C_20
REMARK    6  A    between atoms: C_20  and  C_21
REMARK                            x       y       z     vdW  Elec       q    Type
REMARK                         _______ _______ _______ _____ _____    ______ ____
ROOT
ATOM      1  C   UNL     1      49.424   7.868  12.338  0.00  0.00    +0.000 C 
ATOM      2  C   UNL     1      48.228   7.338  13.133  0.00  0.00    +0.000 C 
ENDROOT
BRANCH   2   3
ATOM      3  C   UNL     1      48.638   6.780  14.484  0.00  0.00    +0.000 A 
ATOM      4  C   UNL     1      47.850   5.796  15.097  0.00  0.00    +0.000 A 
ATOM      5  C   UNL     1      48.237   5.218  16.309  0.00  0.00    +0.000 A 
ATOM      6  C   UNL     1      49.425   5.610  16.938  0.00  0.00    +0.000 A 
ATOM      7  C   UNL     1      50.212   6.598  16.335  0.00  0.00    +0.000 A 
ATOM      8  C   UNL     1      49.824   7.178  15.123  0.00  0.00    +0.000 A 
BRANCH   6   9
ATOM      9  C   UNL     1      49.876   4.936  18.215  0.00  0.00    +0.000 C 
BRANCH   9  10
ATOM     10  C   UNL     1      50.778   3.748  17.976  0.00  0.00    +0.000 A 
ATOM     11  C   UNL     1      50.277   2.566  17.423  0.00  0.00    +0.000 A 
ATOM     12  C   UNL     1      51.134   1.488  17.263  0.00  0.00    +0.000 A 
ATOM     13  N   UNL     1      52.438   1.504  17.611  0.00  0.00    +0.000 NA
ATOM     14  C   UNL     1      52.904   2.654  18.141  0.00  0.00    +0.000 A 
ATOM     15  C   UNL     1      52.128   3.786  18.340  0.00  0.00    +0.000 A 
ENDBRANCH   9  10
ENDBRANCH   6   9
ENDBRANCH   2   3
BRANCH   2  16
ATOM     16  N   UNL     1      47.495   6.333  12.381  0.00  0.00    +0.000 N 
ATOM     17  C   UNL     1      46.361   6.632  11.672  0.00  0.00    +0.000 C 
ATOM     18  O   UNL     1      45.909   7.773  11.623  0.00  0.00    +0.000 OA
ATOM     19  H   UNL     1      47.781   5.365  12.492  0.00  0.00    +0.000 HD
BRANCH  17  20
ATOM     20  C   UNL     1      45.727   5.532  10.932  0.00  0.00    +0.000 A 
ATOM     21  C   UNL     1      45.784   5.527   9.544  0.00  0.00    +0.000 A 
ATOM     22  S   UNL     1      44.988   4.202   8.828  0.00  0.00    +0.000 S 
ATOM     23  C   UNL     1      44.500   3.609  10.346  0.00  0.00    +0.000 A 
ATOM     24  N   UNL     1      43.721   2.496  10.442  0.00  0.00    +0.000 NA
ATOM     25  C   UNL     1      43.390   2.181  11.649  0.00  0.00    +0.000 A 
ATOM     26  N   UNL     1      43.783   2.866  12.769  0.00  0.00    +0.000 N 
ATOM     27  C   UNL     1      44.634   3.941  12.726  0.00  0.00    +0.000 A 
ATOM     28  O   UNL     1      45.085   4.440  13.751  0.00  0.00    +0.000 OA
ATOM     29  C   UNL     1      44.982   4.384  11.387  0.00  0.00    +0.000 A 
ATOM     30  H   UNL     1      43.517   2.543  13.690  0.00  0.00    +0.000 HD
ENDBRANCH  17  20
ENDBRANCH   2  16
TORSDOF 5
ENDMDL
MODEL 6
REMARK VINA RESULT:    -7.466      1.863      2.653
REMARK INTER + INTRA:         -10.519
REMARK INTER:                  -9.572
REMARK INTRA:                  -0.947
REMARK UNBOUND:                -0.871
REMARK  Name = 
REMARK  6 active torsions:
REMARK  status: ('A' for Active; 'I' for Inactive)
REMARK    1  A    between atoms: C_1  and  C_2
REMARK    2  A    between atoms: C_2  and  N_3
REMARK    3  A    between atoms: C_2  and  C_16
REMARK    4  A    between atoms: C_4  and  C_6
REMARK    5  A    between atoms: C_19  and  C_20
REMARK    6  A    between atoms: C_20  and  C_21
REMARK                            x       y       z     vdW  Elec       q    Type
REMARK                         _______ _______ _______ _____ _____    ______ ____
ROOT
ATOM      1  C   UNL     1      48.244   8.983  13.189  0.00  0.00    +0.000 C 
ATOM      2  C   UNL     1      48.224   7.518  13.634  0.00  0.00    +0.000 C 
ENDROOT
BRANCH   2   3
ATOM      3  C   UNL     1      47.177   6.707  12.893  0.00  0.00    +0.000 A 
ATOM      4  C   UNL     1      46.633   7.200  11.699  0.00  0.00    +0.000 A 
ATOM      5  C   UNL     1      45.716   6.446  10.962  0.00  0.00    +0.000 A 
ATOM      6  C   UNL     1      45.320   5.177  11.401  0.00  0.00    +0.000 A 
ATOM      7  C   UNL     1      45.853   4.682  12.598  0.00  0.00    +0.000 A 
ATOM      8  C   UNL     1      46.769   5.438  13.336  0.00  0.00    +0.000 A 
BRANCH   6   9
ATOM      9  C   UNL     1      44.379   4.335  10.568  0.00  0.00    +0.000 C 
BRANCH   9  10
ATOM     10  C   UNL     1      45.075   3.589   9.454  0.00  0.00    +0.000 A 
ATOM     11  C   UNL     1      45.634   4.274   8.372  0.00  0.00    +0.000 A 
ATOM     12  C   UNL     1      46.223   3.543   7.351  0.00  0.00    +0.000 A 
ATOM     13  N   UNL     1      46.293   2.195   7.334  0.00  0.00    +0.000 NA
ATOM     14  C   UNL     1      45.750   1.551   8.389  0.00  0.00    +0.000 A 
ATOM     15  C   UNL     1      45.140   2.192   9.456  0.00  0.00    +0.000 A 
ENDBRANCH   9  10
ENDBRANCH   6   9
ENDBRANCH   2   3
BRANCH   2  16
ATOM     16  N   UNL     1      48.020   7.403  15.068  0.00  0.00    +0.000 N 
ATOM     17  C   UNL     1      49.003   6.963  15.915  0.00  0.00    +0.000 C 
ATOM     18  O   UNL     1      50.120   6.653  15.506  0.00  0.00    +0.000 OA
ATOM     19  H   UNL     1      47.078   7.546  15.419  0.00  0.00    +0.000 HD
BRANCH  17  20
ATOM     20  C   UNL     1      48.681   6.917  17.347  0.00  0.00    +0.000 A 
ATOM     21  C   UNL     1      48.302   8.085  17.996  0.00  0.00    +0.000 A 
ATOM     22  S   UNL     1      47.980   7.876  19.656  0.00  0.00    +0.000 S 
ATOM     23  C   UNL     1      48.376   6.224  19.578  0.00  0.00    +0.000 A 
ATOM     24  N   UNL     1      48.358   5.450  20.698  0.00  0.00    +0.000 NA
ATOM     25  C   UNL     1      48.720   4.226  20.504  0.00  0.00    +0.000 A 
ATOM     26  N   UNL     1      49.080   3.702  19.290  0.00  0.00    +0.000 N 
ATOM     27  C   UNL     1      49.033   4.422  18.124  0.00  0.00    +0.000 A 
ATOM     28  O   UNL     1      49.217   3.889  17.036  0.00  0.00    +0.000 OA
ATOM     29  C   UNL     1      48.701   5.827  18.293  0.00  0.00    +0.000 A 
ATOM     30  H   UNL     1      49.319   2.724  19.202  0.00  0.00    +0.000 HD
ENDBRANCH  17  20
ENDBRANCH   2  16
TORSDOF 5
ENDMDL
MODEL 7
REMARK VINA RESULT:    -7.385      2.804      3.900
REMARK INTER + INTRA:         -10.414
REMARK INTER:                  -9.174
REMARK INTRA:                  -1.240
REMARK UNBOUND:                -0.871
REMARK  Name = 
REMARK  6 active torsions:
REMARK  status: ('A' for Active; 'I' for Inactive)
REMARK    1  A    between atoms: C_1  and  C_2
REMARK    2  A    between atoms: C_2  and  N_3
REMARK    3  A    between atoms: C_2  and  C_16
REMARK    4  A    between atoms: C_4  and  C_6
REMARK    5  A    between atoms: C_19  and  C_20
REMARK    6  A    between atoms: C_20  and  C_21
REMARK                            x       y       z     vdW  Elec       q    Type
REMARK                         _______ _______ _______ _____ _____    ______ ____
ROOT
ATOM      1  C   UNL     1      49.401   8.173  13.556  0.00  0.00    +0.000 C 
ATOM      2  C   UNL     1      48.779   6.890  14.116  0.00  0.00    +0.000 C 
ENDROOT
BRANCH   2   3
ATOM      3  C   UNL     1      47.627   6.391  13.263  0.00  0.00    +0.000 A 
ATOM      4  C   UNL     1      47.305   7.057  12.071  0.00  0.00    +0.000 A 
ATOM      5  C   UNL     1      46.293   6.581  11.234  0.00  0.00    +0.000 A 
ATOM      6  C   UNL     1      45.576   5.425  11.567  0.00  0.00    +0.000 A 
ATOM      7  C   UNL     1      45.887   4.761  12.760  0.00  0.00    +0.000 A 
ATOM      8  C   UNL     1      46.899   5.238  13.599  0.00  0.00    +0.000 A 
BRANCH   6   9
ATOM      9  C   UNL     1      44.527   4.875  10.627  0.00  0.00    +0.000 C 
BRANCH   9  10
ATOM     10  C   UNL     1      45.095   3.952   9.574  0.00  0.00    +0.000 A 
ATOM     11  C   UNL     1      45.684   4.462   8.415  0.00  0.00    +0.000 A 
ATOM     12  C   UNL     1      46.151   3.575   7.457  0.00  0.00    +0.000 A 
ATOM     13  N   UNL     1      46.074   2.233   7.573  0.00  0.00    +0.000 NA
ATOM     14  C   UNL     1      45.503   1.758   8.700  0.00  0.00    +0.000 A 
ATOM     15  C   UNL     1      45.007   2.563   9.715  0.00  0.00    +0.000 A 
ENDBRANCH   9  10
ENDBRANCH   6   9
ENDBRANCH   2   3
BRANCH   2  16
ATOM     16  N   UNL     1      48.340   7.071  15.489  0.00  0.00    +0.000 N 
ATOM     17  C   UNL     1      48.921   6.407  16.537  0.00  0.00    +0.000 C 
ATOM     18  O   UNL     1      49.858   5.630  16.373  0.00  0.00    +0.000 OA
ATOM     19  H   UNL     1      47.499   7.620  15.643  0.00  0.00    +0.000 HD
BRANCH  17  20
ATOM     20  C   UNL     1      48.403   6.696  17.882  0.00  0.00    +0.000 A 
ATOM     21  C   UNL     1      48.161   5.645  18.756  0.00  0.00    +0.000 A 
ATOM     22  S   UNL     1      47.544   6.136  20.267  0.00  0.00    +0.000 S 
ATOM     23  C   UNL     1      47.537   7.769  19.792  0.00  0.00    +0.000 A 
ATOM     24  N   UNL     1      47.064   8.735  20.626  0.00  0.00    +0.000 NA
ATOM     25  C   UNL     1      47.077   9.924  20.124  0.00  0.00    +0.000 A 
ATOM     26  N   UNL     1      47.539  10.237  18.873  0.00  0.00    +0.000 N 
ATOM     27  C   UNL     1      48.101   9.311  18.032  0.00  0.00    +0.000 A 
ATOM     28  O   UNL     1      48.639   9.644  16.982  0.00  0.00    +0.000 OA
ATOM     29  C   UNL     1      48.046   7.942  18.517  0.00  0.00    +0.000 A 
ATOM     30  H   UNL     1      47.555  11.197  18.555  0.00  0.00    +0.000 HD
ENDBRANCH  17  20
ENDBRANCH   2  16
TORSDOF 5
ENDMDL
MODEL 8
REMARK VINA RESULT:    -7.040      3.858      8.416
REMARK INTER + INTRA:          -9.969
REMARK INTER:                  -8.984
REMARK INTRA:                  -0.985
REMARK UNBOUND:                -0.871
REMARK  Name = 
REMARK  6 active torsions:
REMARK  status: ('A' for Active; 'I' for Inactive)
REMARK    1  A    between atoms: C_1  and  C_2
REMARK    2  A    between atoms: C_2  and  N_3
REMARK    3  A    between atoms: C_2  and  C_16
REMARK    4  A    between atoms: C_4  and  C_6
REMARK    5  A    between atoms: C_19  and  C_20
REMARK    6  A    between atoms: C_20  and  C_21
REMARK                            x       y       z     vdW  Elec       q    Type
REMARK                         _______ _______ _______ _____ _____    ______ ____
ROOT
ATOM      1  C   UNL     1      46.814   3.082  17.677  0.00  0.00    +0.000 C 
ATOM      2  C   UNL     1      47.699   3.503  16.500  0.00  0.00    +0.000 C 
ENDROOT
BRANCH   2   3
ATOM      3  C   UNL     1      49.015   4.105  16.958  0.00  0.00    +0.000 A 
ATOM      4  C   UNL     1      50.053   3.264  17.384  0.00  0.00    +0.000 A 
ATOM      5  C   UNL     1      51.297   3.787  17.748  0.00  0.00    +0.000 A 
ATOM      6  C   UNL     1      51.534   5.166  17.695  0.00  0.00    +0.000 A 
ATOM      7  C   UNL     1      50.498   6.012  17.279  0.00  0.00    +0.000 A 
ATOM      8  C   UNL     1      49.253   5.489  16.916  0.00  0.00    +0.000 A 
BRANCH   6   9
ATOM      9  C   UNL     1      52.900   5.723  18.026  0.00  0.00    +0.000 C 
BRANCH   9  10
ATOM     10  C   UNL     1      53.798   5.858  16.818  0.00  0.00    +0.000 A 
ATOM     11  C   UNL     1      54.955   5.084  16.695  0.00  0.00    +0.000 A 
ATOM     12  C   UNL     1      55.770   5.275  15.590  0.00  0.00    +0.000 A 
ATOM     13  N   UNL     1      55.517   6.170  14.612  0.00  0.00    +0.000 NA
ATOM     14  C   UNL     1      54.394   6.906  14.748  0.00  0.00    +0.000 A 
ATOM     15  C   UNL     1      53.515   6.790  15.814  0.00  0.00    +0.000 A 
ENDBRANCH   9  10
ENDBRANCH   6   9
ENDBRANCH   2   3
BRANCH   2  16
ATOM     16  N   UNL     1      47.006   4.429  15.621  0.00  0.00    +0.000 N 
ATOM     17  C   UNL     1      46.845   4.186  14.282  0.00  0.00    +0.000 C 
ATOM     18  O   UNL     1      47.269   3.162  13.753  0.00  0.00    +0.000 OA
ATOM     19  H   UNL     1      46.743   5.331  16.007  0.00  0.00    +0.000 HD
BRANCH  17  20
ATOM     20  C   UNL     1      46.102   5.189  13.506  0.00  0.00    +0.000 A 
ATOM     21  C   UNL     1      46.622   6.470  13.380  0.00  0.00    +0.000 A 
ATOM     22  S   UNL     1      45.640   7.524  12.470  0.00  0.00    +0.000 S 
ATOM     23  C   UNL     1      44.461   6.317  12.248  0.00  0.00    +0.000 A 
ATOM     24  N   UNL     1      43.306   6.586  11.580  0.00  0.00    +0.000 NA
ATOM     25  C   UNL     1      42.482   5.594  11.521  0.00  0.00    +0.000 A 
ATOM     26  N   UNL     1      42.718   4.353  12.052  0.00  0.00    +0.000 N 
ATOM     27  C   UNL     1      43.900   4.013  12.659  0.00  0.00    +0.000 A 
ATOM     28  O   UNL     1      44.139   2.858  12.990  0.00  0.00    +0.000 OA
ATOM     29  C   UNL     1      44.836   5.113  12.817  0.00  0.00    +0.000 A 
ATOM     30  H   UNL     1      42.044   3.608  11.939  0.00  0.00    +0.000 HD
ENDBRANCH  17  20
ENDBRANCH   2  16
TORSDOF 5
ENDMDL
MODEL 9
REMARK VINA RESULT:    -6.763      2.949      8.713
REMARK INTER + INTRA:          -9.611
REMARK INTER:                  -8.556
REMARK INTRA:                  -1.054
REMARK UNBOUND:                -0.871
REMARK  Name = 
REMARK  6 active torsions:
REMARK  status: ('A' for Active; 'I' for Inactive)
REMARK    1  A    between atoms: C_1  and  C_2
REMARK    2  A    between atoms: C_2  and  N_3
REMARK    3  A    between atoms: C_2  and  C_16
REMARK    4  A    between atoms: C_4  and  C_6
REMARK    5  A    between atoms: C_19  and  C_20
REMARK    6  A    between atoms: C_20  and  C_21
REMARK                            x       y       z     vdW  Elec       q    Type
REMARK                         _______ _______ _______ _____ _____    ______ ____
ROOT
ATOM      1  C   UNL     1      49.007   7.777  11.518  0.00  0.00    +0.000 C 
ATOM      2  C   UNL     1      48.036   7.385  12.636  0.00  0.00    +0.000 C 
ENDROOT
BRANCH   2   3
ATOM      3  C   UNL     1      48.755   7.068  13.936  0.00  0.00    +0.000 A 
ATOM      4  C   UNL     1      49.994   7.665  14.207  0.00  0.00    +0.000 A 
ATOM      5  C   UNL     1      50.648   7.442  15.423  0.00  0.00    +0.000 A 
ATOM      6  C   UNL     1      50.076   6.617  16.398  0.00  0.00    +0.000 A 
ATOM      7  C   UNL     1      48.842   6.011  16.129  0.00  0.00    +0.000 A 
ATOM      8  C   UNL     1      48.190   6.232  14.913  0.00  0.00    +0.000 A 
BRANCH   6   9
ATOM      9  C   UNL     1      50.752   6.432  17.738  0.00  0.00    +0.000 C 
BRANCH   9  10
ATOM     10  C   UNL     1      49.779   6.187  18.868  0.00  0.00    +0.000 A 
ATOM     11  C   UNL     1      49.686   4.932  19.476  0.00  0.00    +0.000 A 
ATOM     12  C   UNL     1      48.748   4.743  20.478  0.00  0.00    +0.000 A 
ATOM     13  N   UNL     1      47.907   5.705  20.913  0.00  0.00    +0.000 NA
ATOM     14  C   UNL     1      48.013   6.911  20.317  0.00  0.00    +0.000 A 
ATOM     15  C   UNL     1      48.919   7.198  19.306  0.00  0.00    +0.000 A 
ENDBRANCH   9  10
ENDBRANCH   6   9
ENDBRANCH   2   3
BRANCH   2  16
ATOM     16  N   UNL     1      47.201   6.263  12.243  0.00  0.00    +0.000 N 
ATOM     17  C   UNL     1      45.835   6.292  12.356  0.00  0.00    +0.000 C 
ATOM     18  O   UNL     1      45.241   7.279  12.786  0.00  0.00    +0.000 OA
ATOM     19  H   UNL     1      47.668   5.398  11.990  0.00  0.00    +0.000 HD
BRANCH  17  20
ATOM     20  C   UNL     1      45.101   5.104  11.900  0.00  0.00    +0.000 A 
ATOM     21  C   UNL     1      44.333   4.390  12.810  0.00  0.00    +0.000 A 
ATOM     22  S   UNL     1      43.560   3.029  12.138  0.00  0.00    +0.000 S 
ATOM     23  C   UNL     1      44.258   3.320  10.614  0.00  0.00    +0.000 A 
ATOM     24  N   UNL     1      44.038   2.470   9.574  0.00  0.00    +0.000 NA
ATOM     25  C   UNL     1      44.662   2.785   8.489  0.00  0.00    +0.000 A 
ATOM     26  N   UNL     1      45.468   3.884   8.344  0.00  0.00    +0.000 N 
ATOM     27  C   UNL     1      45.650   4.811   9.338  0.00  0.00    +0.000 A 
ATOM     28  O   UNL     1      46.255   5.857   9.133  0.00  0.00    +0.000 OA
ATOM     29  C   UNL     1      45.030   4.468  10.607  0.00  0.00    +0.000 A 
ATOM     30  H   UNL     1      45.898   4.093   7.454  0.00  0.00    +0.000 HD
ENDBRANCH  17  20
ENDBRANCH   2  16
TORSDOF 5
ENDMDL
