MODEL 1
REMARK VINA RESULT:    -8.009      0.000      0.000
REMARK INTER + INTRA:         -12.505
REMARK INTER:                 -11.287
REMARK INTRA:                  -1.218
REMARK UNBOUND:                -1.218
REMARK  Name = 
REMARK  7 active torsions:
REMARK  status: ('A' for Active; 'I' for Inactive)
REMARK    1  A    between atoms: C_2  and  C_19
REMARK    2  A    between atoms: N_3  and  C_4
REMARK    3  A    between atoms: C_4  and  C_5
REMARK    4  A    between atoms: C_8  and  C_9
REMARK    5  A    between atoms: C_9  and  O_10
REMARK    6  A    between atoms: O_10  and  C_11
REMARK    7  A    between atoms: C_11  and  C_12
REMARK                            x       y       z     vdW  Elec       q    Type
REMARK                         _______ _______ _______ _____ _____    ______ ____
ROOT
ATOM      1  C   UNL     1      46.918   7.881  13.194  0.00  0.00    +0.000 C 
ENDROOT
BRANCH   1   2
ATOM      2  C   UNL     1      46.138   6.910  12.360  0.00  0.00    +0.000 A 
ATOM      3  C   UNL     1      46.512   6.564  11.059  0.00  0.00    +0.000 A 
ATOM      4  C   UNL     1      45.738   5.656  10.335  0.00  0.00    +0.000 A 
ATOM      5  C   UNL     1      44.605   5.104  10.929  0.00  0.00    +0.000 A 
ATOM      6  N   UNL     1      44.227   5.424  12.194  0.00  0.00    +0.000 NA
ATOM      7  C   UNL     1      45.001   6.297  12.876  0.00  0.00    +0.000 A 
BRANCH   5   8
ATOM      8  C   UNL     1      43.735   4.131  10.167  0.00  0.00    +0.000 C 
BRANCH   8   9
ATOM      9  O   UNL     1      44.213   2.796  10.353  0.00  0.00    +0.000 OA
BRANCH   9  10
ATOM     10  C   UNL     1      44.335   2.098   9.110  0.00  0.00    +0.000 C 
BRANCH  10  11
ATOM     11  C   UNL     1      45.786   2.205   8.620  0.00  0.00    +0.000 C 
ATOM     12  C   UNL     1      45.934   3.159   7.443  0.00  0.00    +0.000 C 
ATOM     13  C   UNL     1      47.288   2.781   6.873  0.00  0.00    +0.000 C 
ATOM     14  C   UNL     1      47.452   1.307   7.216  0.00  0.00    +0.000 C 
ATOM     15  N   UNL     1      46.320   0.948   8.076  0.00  0.00    +0.000 NA
ATOM     16  H   UNL     1      46.625   0.330   8.829  0.00  0.00    +0.000 HD
ENDBRANCH  10  11
ENDBRANCH   9  10
ENDBRANCH   8   9
ENDBRANCH   5   8
ENDBRANCH   1   2
BRANCH   1  19
ATOM     17  O   UNL     1      49.521   6.903  13.683  0.00  0.00    +0.000 OA
ATOM     18  C   UNL     1      48.689   6.860  14.586  0.00  0.00    +0.000 C 
ATOM     19  N   UNL     1      47.394   7.284  14.414  0.00  0.00    +0.000 N 
ATOM     20  H   UNL     1      46.805   7.410  15.228  0.00  0.00    +0.000 HD
BRANCH  18  21
ATOM     21  C   UNL     1      49.005   6.297  15.902  0.00  0.00    +0.000 A 
ATOM     22  C   UNL     1      49.958   6.897  16.714  0.00  0.00    +0.000 A 
ATOM     23  S   UNL     1      50.191   6.091  18.201  0.00  0.00    +0.000 S 
ATOM     24  C   UNL     1      49.002   4.932  17.822  0.00  0.00    +0.000 A 
ATOM     25  N   UNL     1      48.679   3.943  18.699  0.00  0.00    +0.000 NA
ATOM     26  C   UNL     1      47.736   3.155  18.288  0.00  0.00    +0.000 A 
ATOM     27  N   UNL     1      47.097   3.261  17.084  0.00  0.00    +0.000 N 
ATOM     28  C   UNL     1      47.446   4.193  16.141  0.00  0.00    +0.000 A 
ATOM     29  O   UNL     1      46.962   4.152  15.015  0.00  0.00    +0.000 OA
ATOM     30  C   UNL     1      48.458   5.139  16.568  0.00  0.00    +0.000 A 
ATOM     31  H   UNL     1      46.395   2.594  16.804  0.00  0.00    +0.000 HD
ENDBRANCH  18  21
ENDBRANCH   1  19
TORSDOF 7
ENDMDL
MODEL 2
REMARK VINA RESULT:    -7.637      1.571      1.763
REMARK INTER + INTRA:         -11.981
REMARK INTER:                 -11.085
REMARK INTRA:                  -0.896
REMARK UNBOUND:                -1.218
REMARK  Name = 
REMARK  7 active torsions:
REMARK  status: ('A' for Active; 'I' for Inactive)
REMARK    1  A    between atoms: C_2  and  C_19
REMARK    2  A    between atoms: N_3  and  C_4
REMARK    3  A    between atoms: C_4  and  C_5
REMARK    4  A    between atoms: C_8  and  C_9
REMARK    5  A    between atoms: C_9  and  O_10
REMARK    6  A    between atoms: O_10  and  C_11
REMARK    7  A    between atoms: C_11  and  C_12
REMARK                            x       y       z     vdW  Elec       q    Type
REMARK                         _______ _______ _______ _____ _____    ______ ____
ROOT
ATOM      1  C   UNL     1      47.976   6.625  13.416  0.00  0.00    +0.000 C 
ENDROOT
BRANCH   1   2
ATOM      2  C   UNL     1      46.882   5.790  12.823  0.00  0.00    +0.000 A 
ATOM      3  C   UNL     1      46.161   6.184  11.693  0.00  0.00    +0.000 A 
ATOM      4  C   UNL     1      45.152   5.361  11.194  0.00  0.00    +0.000 A 
ATOM      5  C   UNL     1      44.884   4.151  11.831  0.00  0.00    +0.000 A 
ATOM      6  N   UNL     1      45.576   3.747  12.928  0.00  0.00    +0.000 NA
ATOM      7  C   UNL     1      46.556   4.560  13.383  0.00  0.00    +0.000 A 
BRANCH   5   8
ATOM      8  C   UNL     1      43.787   3.243  11.326  0.00  0.00    +0.000 C 
BRANCH   8   9
ATOM      9  O   UNL     1      43.822   3.178   9.898  0.00  0.00    +0.000 OA
BRANCH   9  10
ATOM     10  C   UNL     1      44.414   1.959   9.437  0.00  0.00    +0.000 C 
BRANCH  10  11
ATOM     11  C   UNL     1      45.755   2.281   8.764  0.00  0.00    +0.000 C 
ATOM     12  C   UNL     1      45.613   3.292   7.635  0.00  0.00    +0.000 C 
ATOM     13  C   UNL     1      46.910   3.125   6.869  0.00  0.00    +0.000 C 
ATOM     14  C   UNL     1      47.310   1.674   7.101  0.00  0.00    +0.000 C 
ATOM     15  N   UNL     1      46.365   1.131   8.082  0.00  0.00    +0.000 NA
ATOM     16  H   UNL     1      46.849   0.531   8.750  0.00  0.00    +0.000 HD
ENDBRANCH  10  11
ENDBRANCH   9  10
ENDBRANCH   8   9
ENDBRANCH   5   8
ENDBRANCH   1   2
BRANCH   1  19
ATOM     17  O   UNL     1      50.140   6.622  15.228  0.00  0.00    +0.000 OA
ATOM     18  C   UNL     1      48.996   6.709  15.667  0.00  0.00    +0.000 C 
ATOM     19  N   UNL     1      47.892   6.683  14.852  0.00  0.00    +0.000 N 
ATOM     20  H   UNL     1      46.992   6.951  15.233  0.00  0.00    +0.000 HD
BRANCH  18  21
ATOM     21  C   UNL     1      48.725   6.792  17.106  0.00  0.00    +0.000 A 
ATOM     22  C   UNL     1      48.361   8.000  17.685  0.00  0.00    +0.000 A 
ATOM     23  S   UNL     1      48.096   7.894  19.368  0.00  0.00    +0.000 S 
ATOM     24  C   UNL     1      48.425   6.223  19.372  0.00  0.00    +0.000 A 
ATOM     25  N   UNL     1      48.348   5.493  20.517  0.00  0.00    +0.000 NA
ATOM     26  C   UNL     1      48.594   4.231  20.361  0.00  0.00    +0.000 A 
ATOM     27  N   UNL     1      48.915   3.638  19.172  0.00  0.00    +0.000 N 
ATOM     28  C   UNL     1      49.080   4.349  18.012  0.00  0.00    +0.000 A 
ATOM     29  O   UNL     1      49.525   3.807  17.006  0.00  0.00    +0.000 OA
ATOM     30  C   UNL     1      48.762   5.760  18.114  0.00  0.00    +0.000 A 
ATOM     31  H   UNL     1      49.133   2.654  19.120  0.00  0.00    +0.000 HD
ENDBRANCH  18  21
ENDBRANCH   1  19
TORSDOF 7
ENDMDL
MODEL 3
REMARK VINA RESULT:    -7.074      3.178      4.283
REMARK INTER + INTRA:         -11.187
REMARK INTER:                 -10.187
REMARK INTRA:                  -0.999
REMARK UNBOUND:                -1.218
REMARK  Name = 
REMARK  7 active torsions:
REMARK  status: ('A' for Active; 'I' for Inactive)
REMARK    1  A    between atoms: C_2  and  C_19
REMARK    2  A    between atoms: N_3  and  C_4
REMARK    3  A    between atoms: C_4  and  C_5
REMARK    4  A    between atoms: C_8  and  C_9
REMARK    5  A    between atoms: C_9  and  O_10
REMARK    6  A    between atoms: O_10  and  C_11
REMARK    7  A    between atoms: C_11  and  C_12
REMARK                            x       y       z     vdW  Elec       q    Type
REMARK                         _______ _______ _______ _____ _____    ______ ____
ROOT
ATOM      1  C   UNL     1      48.933   6.033  17.467  0.00  0.00    +0.000 C 
ENDROOT
BRANCH   1   2
ATOM      2  C   UNL     1      48.190   5.558  16.254  0.00  0.00    +0.000 A 
ATOM      3  C   UNL     1      48.220   6.241  15.037  0.00  0.00    +0.000 A 
ATOM      4  C   UNL     1      47.502   5.747  13.948  0.00  0.00    +0.000 A 
ATOM      5  C   UNL     1      46.770   4.571  14.094  0.00  0.00    +0.000 A 
ATOM      6  N   UNL     1      46.731   3.889  15.268  0.00  0.00    +0.000 NA
ATOM      7  C   UNL     1      47.445   4.385  16.303  0.00  0.00    +0.000 A 
BRANCH   5   8
ATOM      8  C   UNL     1      45.968   4.016  12.939  0.00  0.00    +0.000 C 
BRANCH   8   9
ATOM      9  O   UNL     1      44.609   3.819  13.335  0.00  0.00    +0.000 OA
BRANCH   9  10
ATOM     10  C   UNL     1      43.730   3.768  12.207  0.00  0.00    +0.000 C 
BRANCH  10  11
ATOM     11  C   UNL     1      44.557   3.495  10.943  0.00  0.00    +0.000 C 
ATOM     12  C   UNL     1      44.175   4.410   9.788  0.00  0.00    +0.000 C 
ATOM     13  C   UNL     1      44.768   3.700   8.587  0.00  0.00    +0.000 C 
ATOM     14  C   UNL     1      44.759   2.226   8.968  0.00  0.00    +0.000 C 
ATOM     15  N   UNL     1      44.340   2.158  10.372  0.00  0.00    +0.000 NA
ATOM     16  H   UNL     1      44.885   1.459  10.875  0.00  0.00    +0.000 HD
ENDBRANCH  10  11
ENDBRANCH   9  10
ENDBRANCH   8   9
ENDBRANCH   5   8
ENDBRANCH   1   2
BRANCH   1  19
ATOM     17  O   UNL     1      51.578   6.161  16.490  0.00  0.00    +0.000 OA
ATOM     18  C   UNL     1      51.290   5.301  17.318  0.00  0.00    +0.000 C 
ATOM     19  N   UNL     1      50.018   5.154  17.814  0.00  0.00    +0.000 N 
ATOM     20  H   UNL     1      49.871   4.569  18.628  0.00  0.00    +0.000 HD
BRANCH  18  21
ATOM     21  C   UNL     1      52.277   4.328  17.798  0.00  0.00    +0.000 A 
ATOM     22  C   UNL     1      53.481   4.757  18.340  0.00  0.00    +0.000 A 
ATOM     23  S   UNL     1      54.499   3.478  18.832  0.00  0.00    +0.000 S 
ATOM     24  C   UNL     1      53.349   2.310  18.369  0.00  0.00    +0.000 A 
ATOM     25  N   UNL     1      53.584   0.982  18.547  0.00  0.00    +0.000 NA
ATOM     26  C   UNL     1      52.608   0.215  18.177  0.00  0.00    +0.000 A 
ATOM     27  N   UNL     1      51.429   0.653  17.641  0.00  0.00    +0.000 N 
ATOM     28  C   UNL     1      51.185   1.975  17.373  0.00  0.00    +0.000 A 
ATOM     29  O   UNL     1      50.185   2.309  16.745  0.00  0.00    +0.000 OA
ATOM     30  C   UNL     1      52.220   2.886  17.818  0.00  0.00    +0.000 A 
ATOM     31  H   UNL     1      50.719   0.004  17.337  0.00  0.00    +0.000 HD
ENDBRANCH  18  21
ENDBRANCH   1  19
TORSDOF 7
ENDMDL
MODEL 4
REMARK VINA RESULT:    -6.952      2.208      3.797
REMARK INTER + INTRA:         -11.015
REMARK INTER:                  -9.969
REMARK INTRA:                  -1.046
REMARK UNBOUND:                -1.218
REMARK  Name = 
REMARK  7 active torsions:
REMARK  status: ('A' for Active; 'I' for Inactive)
REMARK    1  A    between atoms: C_2  and  C_19
REMARK    2  A    between atoms: N_3  and  C_4
REMARK    3  A    between atoms: C_4  and  C_5
REMARK    4  A    between atoms: C_8  and  C_9
REMARK    5  A    between atoms: C_9  and  O_10
REMARK    6  A    between atoms: O_10  and  C_11
REMARK    7  A    between atoms: C_11  and  C_12
REMARK                            x       y       z     vdW  Elec       q    Type
REMARK                         _______ _______ _______ _____ _____    ______ ____
ROOT
ATOM      1  C   UNL     1      47.083   4.469  14.931  0.00  0.00    +0.000 C 
ENDROOT
BRANCH   1   2
ATOM      2  C   UNL     1      46.237   4.423  13.695  0.00  0.00    +0.000 A 
ATOM      3  C   UNL     1      45.981   3.238  13.001  0.00  0.00    +0.000 A 
ATOM      4  C   UNL     1      45.188   3.265  11.853  0.00  0.00    +0.000 A 
ATOM      5  C   UNL     1      44.659   4.480  11.422  0.00  0.00    +0.000 A 
ATOM      6  N   UNL     1      44.892   5.642  12.085  0.00  0.00    +0.000 NA
ATOM      7  C   UNL     1      45.654   5.584  13.200  0.00  0.00    +0.000 A 
BRANCH   5   8
ATOM      8  C   UNL     1      43.809   4.548  10.174  0.00  0.00    +0.000 C 
BRANCH   8   9
ATOM      9  O   UNL     1      44.308   3.637   9.191  0.00  0.00    +0.000 OA
BRANCH   9  10
ATOM     10  C   UNL     1      45.275   4.256   8.337  0.00  0.00    +0.000 C 
BRANCH  10  11
ATOM     11  C   UNL     1      45.928   3.178   7.461  0.00  0.00    +0.000 C 
ATOM     12  C   UNL     1      46.131   1.866   8.206  0.00  0.00    +0.000 C 
ATOM     13  C   UNL     1      47.139   1.139   7.337  0.00  0.00    +0.000 C 
ATOM     14  C   UNL     1      47.944   2.247   6.673  0.00  0.00    +0.000 C 
ATOM     15  N   UNL     1      47.294   3.512   7.033  0.00  0.00    +0.000 NA
ATOM     16  H   UNL     1      47.277   4.145   6.233  0.00  0.00    +0.000 HD
ENDBRANCH  10  11
ENDBRANCH   9  10
ENDBRANCH   8   9
ENDBRANCH   5   8
ENDBRANCH   1   2
BRANCH   1  19
ATOM     17  O   UNL     1      49.224   5.136  16.646  0.00  0.00    +0.000 OA
ATOM     18  C   UNL     1      48.670   6.028  16.008  0.00  0.00    +0.000 C 
ATOM     19  N   UNL     1      47.601   5.787  15.182  0.00  0.00    +0.000 N 
ATOM     20  H   UNL     1      47.306   6.509  14.535  0.00  0.00    +0.000 HD
BRANCH  18  21
ATOM     21  C   UNL     1      49.079   7.432  16.129  0.00  0.00    +0.000 A 
ATOM     22  C   UNL     1      49.025   8.077  17.357  0.00  0.00    +0.000 A 
ATOM     23  S   UNL     1      49.534   9.705  17.293  0.00  0.00    +0.000 S 
ATOM     24  C   UNL     1      49.876   9.591  15.628  0.00  0.00    +0.000 A 
ATOM     25  N   UNL     1      50.380  10.650  14.939  0.00  0.00    +0.000 NA
ATOM     26  C   UNL     1      50.620  10.406  13.690  0.00  0.00    +0.000 A 
ATOM     27  N   UNL     1      50.394   9.210  13.069  0.00  0.00    +0.000 N 
ATOM     28  C   UNL     1      49.815   8.144  13.707  0.00  0.00    +0.000 A 
ATOM     29  O   UNL     1      49.482   7.146  13.077  0.00  0.00    +0.000 OA
ATOM     30  C   UNL     1      49.577   8.339  15.123  0.00  0.00    +0.000 A 
ATOM     31  H   UNL     1      50.566   9.091  12.082  0.00  0.00    +0.000 HD
ENDBRANCH  18  21
ENDBRANCH   1  19
TORSDOF 7
ENDMDL
MODEL 5
REMARK VINA RESULT:    -6.790      2.831      8.000
REMARK INTER + INTRA:         -10.787
REMARK INTER:                  -9.265
REMARK INTRA:                  -1.521
REMARK UNBOUND:                -1.218
REMARK  Name = 
REMARK  7 active torsions:
REMARK  status: ('A' for Active; 'I' for Inactive)
REMARK    1  A    between atoms: C_2  and  C_19
REMARK    2  A    between atoms: N_3  and  C_4
REMARK    3  A    between atoms: C_4  and  C_5
REMARK    4  A    between atoms: C_8  and  C_9
REMARK    5  A    between atoms: C_9  and  O_10
REMARK    6  A    between atoms: O_10  and  C_11
REMARK    7  A    between atoms: C_11  and  C_12
REMARK                            x       y       z     vdW  Elec       q    Type
REMARK                         _______ _______ _______ _____ _____    ______ ____
ROOT
ATOM      1  C   UNL     1      47.703   7.771  11.954  0.00  0.00    +0.000 C 
ENDROOT
BRANCH   1   2
ATOM      2  C   UNL     1      48.208   7.896  13.360  0.00  0.00    +0.000 A 
ATOM      3  C   UNL     1      47.759   8.886  14.237  0.00  0.00    +0.000 A 
ATOM      4  C   UNL     1      48.274   8.949  15.532  0.00  0.00    +0.000 A 
ATOM      5  C   UNL     1      49.228   8.014  15.930  0.00  0.00    +0.000 A 
ATOM      6  N   UNL     1      49.675   7.041  15.093  0.00  0.00    +0.000 NA
ATOM      7  C   UNL     1      49.150   6.998  13.848  0.00  0.00    +0.000 A 
BRANCH   5   8
ATOM      8  C   UNL     1      49.819   8.063  17.320  0.00  0.00    +0.000 C 
BRANCH   8   9
ATOM      9  O   UNL     1      49.691   6.789  17.953  0.00  0.00    +0.000 OA
BRANCH   9  10
ATOM     10  C   UNL     1      48.379   6.593  18.491  0.00  0.00    +0.000 C 
BRANCH  10  11
ATOM     11  C   UNL     1      47.863   5.215  18.056  0.00  0.00    +0.000 C 
ATOM     12  C   UNL     1      48.924   4.130  18.178  0.00  0.00    +0.000 C 
ATOM     13  C   UNL     1      48.363   3.013  17.320  0.00  0.00    +0.000 C 
ATOM     14  C   UNL     1      47.528   3.722  16.263  0.00  0.00    +0.000 C 
ATOM     15  N   UNL     1      47.500   5.141  16.633  0.00  0.00    +0.000 NA
ATOM     16  H   UNL     1      46.571   5.533  16.477  0.00  0.00    +0.000 HD
ENDBRANCH  10  11
ENDBRANCH   9  10
ENDBRANCH   8   9
ENDBRANCH   5   8
ENDBRANCH   1   2
BRANCH   1  19
ATOM     17  O   UNL     1      44.893   7.505  11.956  0.00  0.00    +0.000 OA
ATOM     18  C   UNL     1      45.585   6.514  11.737  0.00  0.00    +0.000 C 
ATOM     19  N   UNL     1      46.957   6.557  11.754  0.00  0.00    +0.000 N 
ATOM     20  H   UNL     1      47.479   5.773  11.381  0.00  0.00    +0.000 HD
BRANCH  18  21
ATOM     21  C   UNL     1      44.992   5.195  11.498  0.00  0.00    +0.000 A 
ATOM     22  C   UNL     1      44.264   4.558  12.495  0.00  0.00    +0.000 A 
ATOM     23  S   UNL     1      43.661   3.031  12.028  0.00  0.00    +0.000 S 
ATOM     24  C   UNL     1      44.323   3.185  10.466  0.00  0.00    +0.000 A 
ATOM     25  N   UNL     1      44.150   2.214   9.529  0.00  0.00    +0.000 NA
ATOM     26  C   UNL     1      44.682   2.483   8.379  0.00  0.00    +0.000 A 
ATOM     27  N   UNL     1      45.376   3.624   8.086  0.00  0.00    +0.000 N 
ATOM     28  C   UNL     1      45.640   4.590   9.022  0.00  0.00    +0.000 A 
ATOM     29  O   UNL     1      46.400   5.517   8.764  0.00  0.00    +0.000 OA
ATOM     30  C   UNL     1      45.020   4.370  10.314  0.00  0.00    +0.000 A 
ATOM     31  H   UNL     1      45.800   3.761   7.181  0.00  0.00    +0.000 HD
ENDBRANCH  18  21
ENDBRANCH   1  19
TORSDOF 7
ENDMDL
MODEL 6
REMARK VINA RESULT:    -6.604      4.296      8.806
REMARK INTER + INTRA:         -10.525
REMARK INTER:                  -9.702
REMARK INTRA:                  -0.823
REMARK UNBOUND:                -1.218
REMARK  Name = 
REMARK  7 active torsions:
REMARK  status: ('A' for Active; 'I' for Inactive)
REMARK    1  A    between atoms: C_2  and  C_19
REMARK    2  A    between atoms: N_3  and  C_4
REMARK    3  A    between atoms: C_4  and  C_5
REMARK    4  A    between atoms: C_8  and  C_9
REMARK    5  A    between atoms: C_9  and  O_10
REMARK    6  A    between atoms: O_10  and  C_11
REMARK    7  A    between atoms: C_11  and  C_12
REMARK                            x       y       z     vdW  Elec       q    Type
REMARK                         _______ _______ _______ _____ _____    ______ ____
ROOT
ATOM      1  C   UNL     1      47.166   3.350  16.890  0.00  0.00    +0.000 C 
ENDROOT
BRANCH   1   2
ATOM      2  C   UNL     1      48.635   3.310  17.184  0.00  0.00    +0.000 A 
ATOM      3  C   UNL     1      49.420   2.179  16.948  0.00  0.00    +0.000 A 
ATOM      4  C   UNL     1      50.782   2.207  17.248  0.00  0.00    +0.000 A 
ATOM      5  C   UNL     1      51.338   3.371  17.776  0.00  0.00    +0.000 A 
ATOM      6  N   UNL     1      50.593   4.482  18.009  0.00  0.00    +0.000 NA
ATOM      7  C   UNL     1      49.278   4.431  17.698  0.00  0.00    +0.000 A 
BRANCH   5   8
ATOM      8  C   UNL     1      52.807   3.430  18.128  0.00  0.00    +0.000 C 
BRANCH   8   9
ATOM      9  O   UNL     1      53.183   2.261  18.859  0.00  0.00    +0.000 OA
BRANCH   9  10
ATOM     10  C   UNL     1      54.605   2.132  18.958  0.00  0.00    +0.000 C 
BRANCH  10  11
ATOM     11  C   UNL     1      55.071   1.013  18.018  0.00  0.00    +0.000 C 
ATOM     12  C   UNL     1      55.709   1.549  16.744  0.00  0.00    +0.000 C 
ATOM     13  C   UNL     1      55.683   0.346  15.823  0.00  0.00    +0.000 C 
ATOM     14  C   UNL     1      54.476  -0.462  16.279  0.00  0.00    +0.000 C 
ATOM     15  N   UNL     1      53.974   0.184  17.496  0.00  0.00    +0.000 NA
ATOM     16  H   UNL     1      53.693  -0.516  18.183  0.00  0.00    +0.000 HD
ENDBRANCH  10  11
ENDBRANCH   9  10
ENDBRANCH   8   9
ENDBRANCH   5   8
ENDBRANCH   1   2
BRANCH   1  19
ATOM     17  O   UNL     1      47.295   3.036  14.088  0.00  0.00    +0.000 OA
ATOM     18  C   UNL     1      46.898   4.102  14.550  0.00  0.00    +0.000 C 
ATOM     19  N   UNL     1      46.840   4.343  15.901  0.00  0.00    +0.000 N 
ATOM     20  H   UNL     1      46.330   5.151  16.235  0.00  0.00    +0.000 HD
BRANCH  18  21
ATOM     21  C   UNL     1      46.509   5.222  13.686  0.00  0.00    +0.000 A 
ATOM     22  C   UNL     1      47.374   6.289  13.485  0.00  0.00    +0.000 A 
ATOM     23  S   UNL     1      46.739   7.494  12.456  0.00  0.00    +0.000 S 
ATOM     24  C   UNL     1      45.302   6.612  12.217  0.00  0.00    +0.000 A 
ATOM     25  N   UNL     1      44.318   7.079  11.402  0.00  0.00    +0.000 NA
ATOM     26  C   UNL     1      43.298   6.286  11.293  0.00  0.00    +0.000 A 
ATOM     27  N   UNL     1      43.172   5.083  11.928  0.00  0.00    +0.000 N 
ATOM     28  C   UNL     1      44.103   4.614  12.817  0.00  0.00    +0.000 A 
ATOM     29  O   UNL     1      43.877   3.611  13.486  0.00  0.00    +0.000 OA
ATOM     30  C   UNL     1      45.294   5.432  12.937  0.00  0.00    +0.000 A 
ATOM     31  H   UNL     1      42.336   4.526  11.832  0.00  0.00    +0.000 HD
ENDBRANCH  18  21
ENDBRANCH   1  19
TORSDOF 7
ENDMDL
MODEL 7
REMARK VINA RESULT:    -6.537      2.429      3.164
REMARK INTER + INTRA:         -10.430
REMARK INTER:                  -9.689
REMARK INTRA:                  -0.741
REMARK UNBOUND:                -1.218
REMARK  Name = 
REMARK  7 active torsions:
REMARK  status: ('A' for Active; 'I' for Inactive)
REMARK    1  A    between atoms: C_2  and  C_19
REMARK    2  A    between atoms: N_3  and  C_4
REMARK    3  A    between atoms: C_4  and  C_5
REMARK    4  A    between atoms: C_8  and  C_9
REMARK    5  A    between atoms: C_9  and  O_10
REMARK    6  A    between atoms: O_10  and  C_11
REMARK    7  A    between atoms: C_11  and  C_12
REMARK                            x       y       z     vdW  Elec       q    Type
REMARK                         _______ _______ _______ _____ _____    ______ ____
ROOT
ATOM      1  C   UNL     1      46.871   4.213  14.897  0.00  0.00    +0.000 C 
ENDROOT
BRANCH   1   2
ATOM      2  C   UNL     1      46.089   4.390  13.631  0.00  0.00    +0.000 A 
ATOM      3  C   UNL     1      45.613   5.634  13.207  0.00  0.00    +0.000 A 
ATOM      4  C   UNL     1      44.887   5.728  12.020  0.00  0.00    +0.000 A 
ATOM      5  C   UNL     1      44.653   4.576  11.272  0.00  0.00    +0.000 A 
ATOM      6  N   UNL     1      45.110   3.358  11.665  0.00  0.00    +0.000 NA
ATOM      7  C   UNL     1      45.820   3.298  12.814  0.00  0.00    +0.000 A 
BRANCH   5   8
ATOM      8  C   UNL     1      43.856   4.640   9.990  0.00  0.00    +0.000 C 
BRANCH   8   9
ATOM      9  O   UNL     1      44.737   4.669   8.865  0.00  0.00    +0.000 OA
BRANCH   9  10
ATOM     10  C   UNL     1      44.661   3.461   8.101  0.00  0.00    +0.000 C 
BRANCH  10  11
ATOM     11  C   UNL     1      46.083   2.939   7.853  0.00  0.00    +0.000 C 
ATOM     12  C   UNL     1      46.507   3.074   6.397  0.00  0.00    +0.000 C 
ATOM     13  C   UNL     1      47.696   2.138   6.306  0.00  0.00    +0.000 C 
ATOM     14  C   UNL     1      47.425   1.067   7.354  0.00  0.00    +0.000 C 
ATOM     15  N   UNL     1      46.233   1.496   8.092  0.00  0.00    +0.000 NA
ATOM     16  H   UNL     1      46.342   1.306   9.088  0.00  0.00    +0.000 HD
ENDBRANCH  10  11
ENDBRANCH   9  10
ENDBRANCH   8   9
ENDBRANCH   5   8
ENDBRANCH   1   2
BRANCH   1  19
ATOM     17  O   UNL     1      49.056   4.465  16.667  0.00  0.00    +0.000 OA
ATOM     18  C   UNL     1      48.575   5.478  16.166  0.00  0.00    +0.000 C 
ATOM     19  N   UNL     1      47.491   5.439  15.324  0.00  0.00    +0.000 N 
ATOM     20  H   UNL     1      47.255   6.266  14.788  0.00  0.00    +0.000 HD
BRANCH  18  21
ATOM     21  C   UNL     1      49.092   6.814  16.479  0.00  0.00    +0.000 A 
ATOM     22  C   UNL     1      50.052   7.405  15.668  0.00  0.00    +0.000 A 
ATOM     23  S   UNL     1      50.532   8.954  16.199  0.00  0.00    +0.000 S 
ATOM     24  C   UNL     1      49.448   8.901  17.511  0.00  0.00    +0.000 A 
ATOM     25  N   UNL     1      49.334   9.948  18.373  0.00  0.00    +0.000 NA
ATOM     26  C   UNL     1      48.448   9.778  19.302  0.00  0.00    +0.000 A 
ATOM     27  N   UNL     1      47.677   8.659  19.452  0.00  0.00    +0.000 N 
ATOM     28  C   UNL     1      47.815   7.553  18.655  0.00  0.00    +0.000 A 
ATOM     29  O   UNL     1      47.221   6.514  18.922  0.00  0.00    +0.000 OA
ATOM     30  C   UNL     1      48.753   7.707  17.561  0.00  0.00    +0.000 A 
ATOM     31  H   UNL     1      47.028   8.570  20.220  0.00  0.00    +0.000 HD
ENDBRANCH  18  21
ENDBRANCH   1  19
TORSDOF 7
ENDMDL
MODEL 8
REMARK VINA RESULT:    -6.401      3.163      7.735
REMARK INTER + INTRA:         -10.239
REMARK INTER:                  -9.273
REMARK INTRA:                  -0.966
REMARK UNBOUND:                -1.218
REMARK  Name = 
REMARK  7 active torsions:
REMARK  status: ('A' for Active; 'I' for Inactive)
REMARK    1  A    between atoms: C_2  and  C_19
REMARK    2  A    between atoms: N_3  and  C_4
REMARK    3  A    between atoms: C_4  and  C_5
REMARK    4  A    between atoms: C_8  and  C_9
REMARK    5  A    between atoms: C_9  and  O_10
REMARK    6  A    between atoms: O_10  and  C_11
REMARK    7  A    between atoms: C_11  and  C_12
REMARK                            x       y       z     vdW  Elec       q    Type
REMARK                         _______ _______ _______ _____ _____    ______ ____
ROOT
ATOM      1  C   UNL     1      48.127   8.119  12.115  0.00  0.00    +0.000 C 
ENDROOT
BRANCH   1   2
ATOM      2  C   UNL     1      48.613   7.849  13.507  0.00  0.00    +0.000 A 
ATOM      3  C   UNL     1      49.394   8.760  14.223  0.00  0.00    +0.000 A 
ATOM      4  C   UNL     1      49.818   8.445  15.514  0.00  0.00    +0.000 A 
ATOM      5  C   UNL     1      49.447   7.223  16.071  0.00  0.00    +0.000 A 
ATOM      6  N   UNL     1      48.684   6.325  15.394  0.00  0.00    +0.000 NA
ATOM      7  C   UNL     1      48.279   6.662  14.149  0.00  0.00    +0.000 A 
BRANCH   5   8
ATOM      8  C   UNL     1      49.902   6.843  17.461  0.00  0.00    +0.000 C 
BRANCH   8   9
ATOM      9  O   UNL     1      48.774   6.511  18.274  0.00  0.00    +0.000 OA
BRANCH   9  10
ATOM     10  C   UNL     1      49.093   5.503  19.238  0.00  0.00    +0.000 C 
BRANCH  10  11
ATOM     11  C   UNL     1      48.566   4.151  18.739  0.00  0.00    +0.000 C 
ATOM     12  C   UNL     1      49.408   3.580  17.606  0.00  0.00    +0.000 C 
ATOM     13  C   UNL     1      48.496   2.529  17.006  0.00  0.00    +0.000 C 
ATOM     14  C   UNL     1      47.088   3.041  17.278  0.00  0.00    +0.000 C 
ATOM     15  N   UNL     1      47.230   4.225  18.131  0.00  0.00    +0.000 NA
ATOM     16  H   UNL     1      46.507   4.235  18.851  0.00  0.00    +0.000 HD
ENDBRANCH  10  11
ENDBRANCH   9  10
ENDBRANCH   8   9
ENDBRANCH   5   8
ENDBRANCH   1   2
BRANCH   1  19
ATOM     17  O   UNL     1      45.347   7.919  11.668  0.00  0.00    +0.000 OA
ATOM     18  C   UNL     1      46.072   6.982  11.343  0.00  0.00    +0.000 C 
ATOM     19  N   UNL     1      47.427   6.991  11.560  0.00  0.00    +0.000 N 
ATOM     20  H   UNL     1      48.003   6.292  11.106  0.00  0.00    +0.000 HD
BRANCH  18  21
ATOM     21  C   UNL     1      45.529   5.756  10.748  0.00  0.00    +0.000 A 
ATOM     22  C   UNL     1      45.775   5.452   9.416  0.00  0.00    +0.000 A 
ATOM     23  S   UNL     1      45.054   3.991   8.908  0.00  0.00    +0.000 S 
ATOM     24  C   UNL     1      44.418   3.699  10.461  0.00  0.00    +0.000 A 
ATOM     25  N   UNL     1      43.699   2.576  10.727  0.00  0.00    +0.000 NA
ATOM     26  C   UNL     1      43.308   2.474  11.958  0.00  0.00    +0.000 A 
ATOM     27  N   UNL     1      43.561   3.393  12.938  0.00  0.00    +0.000 N 
ATOM     28  C   UNL     1      44.213   4.574  12.693  0.00  0.00    +0.000 A 
ATOM     29  O   UNL     1      44.279   5.440  13.558  0.00  0.00    +0.000 OA
ATOM     30  C   UNL     1      44.725   4.717  11.345  0.00  0.00    +0.000 A 
ATOM     31  H   UNL     1      43.197   3.277  13.871  0.00  0.00    +0.000 HD
ENDBRANCH  18  21
ENDBRANCH   1  19
TORSDOF 7
ENDMDL
MODEL 9
REMARK VINA RESULT:    -6.346      3.646      8.783
REMARK INTER + INTRA:         -10.161
REMARK INTER:                  -8.632
REMARK INTRA:                  -1.529
REMARK UNBOUND:                -1.218
REMARK  Name = 
REMARK  7 active torsions:
REMARK  status: ('A' for Active; 'I' for Inactive)
REMARK    1  A    between atoms: C_2  and  C_19
REMARK    2  A    between atoms: N_3  and  C_4
REMARK    3  A    between atoms: C_4  and  C_5
REMARK    4  A    between atoms: C_8  and  C_9
REMARK    5  A    between atoms: C_9  and  O_10
REMARK    6  A    between atoms: O_10  and  C_11
REMARK    7  A    between atoms: C_11  and  C_12
REMARK                            x       y       z     vdW  Elec       q    Type
REMARK                         _______ _______ _______ _____ _____    ______ ____
ROOT
ATOM      1  C   UNL     1      47.294   3.535  16.557  0.00  0.00    +0.000 C 
ENDROOT
BRANCH   1   2
ATOM      2  C   UNL     1      47.955   4.221  17.714  0.00  0.00    +0.000 A 
ATOM      3  C   UNL     1      47.310   5.192  18.483  0.00  0.00    +0.000 A 
ATOM      4  C   UNL     1      47.984   5.796  19.544  0.00  0.00    +0.000 A 
ATOM      5  C   UNL     1      49.295   5.413  19.822  0.00  0.00    +0.000 A 
ATOM      6  N   UNL     1      49.939   4.468  19.089  0.00  0.00    +0.000 NA
ATOM      7  C   UNL     1      49.257   3.892  18.074  0.00  0.00    +0.000 A 
BRANCH   5   8
ATOM      8  C   UNL     1      50.061   6.058  20.954  0.00  0.00    +0.000 C 
BRANCH   8   9
ATOM      9  O   UNL     1      51.343   6.492  20.495  0.00  0.00    +0.000 OA
BRANCH   9  10
ATOM     10  C   UNL     1      51.264   7.740  19.801  0.00  0.00    +0.000 C 
BRANCH  10  11
ATOM     11  C   UNL     1      51.754   7.541  18.360  0.00  0.00    +0.000 C 
ATOM     12  C   UNL     1      50.616   7.558  17.350  0.00  0.00    +0.000 C 
ATOM     13  C   UNL     1      51.247   6.930  16.123  0.00  0.00    +0.000 C 
ATOM     14  C   UNL     1      52.311   5.991  16.675  0.00  0.00    +0.000 C 
ATOM     15  N   UNL     1      52.368   6.227  18.121  0.00  0.00    +0.000 NA
ATOM     16  H   UNL     1      53.335   6.216  18.447  0.00  0.00    +0.000 HD
ENDBRANCH  10  11
ENDBRANCH   9  10
ENDBRANCH   8   9
ENDBRANCH   5   8
ENDBRANCH   1   2
BRANCH   1  19
ATOM     17  O   UNL     1      47.252   3.259  13.748  0.00  0.00    +0.000 OA
ATOM     18  C   UNL     1      46.739   4.252  14.257  0.00  0.00    +0.000 C 
ATOM     19  N   UNL     1      46.751   4.474  15.612  0.00  0.00    +0.000 N 
ATOM     20  H   UNL     1      46.154   5.196  15.998  0.00  0.00    +0.000 HD
BRANCH  18  21
ATOM     21  C   UNL     1      46.124   5.306  13.444  0.00  0.00    +0.000 A 
ATOM     22  C   UNL     1      46.815   6.479  13.172  0.00  0.00    +0.000 A 
ATOM     23  S   UNL     1      45.931   7.584  12.218  0.00  0.00    +0.000 S 
ATOM     24  C   UNL     1      44.608   6.518  12.108  0.00  0.00    +0.000 A 
ATOM     25  N   UNL     1      43.498   6.845  11.394  0.00  0.00    +0.000 NA
ATOM     26  C   UNL     1      42.587   5.923  11.374  0.00  0.00    +0.000 A 
ATOM     27  N   UNL     1      42.683   4.716  12.007  0.00  0.00    +0.000 N 
ATOM     28  C   UNL     1      43.749   4.379  12.800  0.00  0.00    +0.000 A 
ATOM     29  O   UNL     1      43.724   3.357  13.478  0.00  0.00    +0.000 OA
ATOM     30  C   UNL     1      44.826   5.349  12.814  0.00  0.00    +0.000 A 
ATOM     31  H   UNL     1      41.924   4.052  11.986  0.00  0.00    +0.000 HD
ENDBRANCH  18  21
ENDBRANCH   1  19
TORSDOF 7
ENDMDL
