MODEL 1
REMARK VINA RESULT:    -7.784      0.000      0.000
REMARK INTER + INTRA:         -10.941
REMARK INTER:                 -10.287
REMARK INTRA:                  -0.654
REMARK UNBOUND:                -0.654
REMARK  Name = 
REMARK  6 active torsions:
REMARK  status: ('A' for Active; 'I' for Inactive)
REMARK    1  A    between atoms: N_1  and  C_2
REMARK    2  A    between atoms: C_2  and  C_3
REMARK    3  A    between atoms: C_6  and  O_7
REMARK    4  A    between atoms: O_7  and  C_8
REMARK    5  A    between atoms: C_8  and  C_9
REMARK    6  A    between atoms: C_9  and  C_12
REMARK                            x       y       z     vdW  Elec       q    Type
REMARK                         _______ _______ _______ _____ _____    ______ ____
ROOT
ATOM      1  O   UNL     1      43.669   4.591   9.595  0.00  0.00    +0.000 OA
ENDROOT
BRANCH   1   5
ATOM      2  C   UNL     1      46.538   2.334   7.680  0.00  0.00    +0.000 A 
ATOM      3  C   UNL     1      45.684   1.731   8.608  0.00  0.00    +0.000 A 
ATOM      4  C   UNL     1      44.709   2.497   9.247  0.00  0.00    +0.000 A 
ATOM      5  C   UNL     1      44.637   3.849   8.948  0.00  0.00    +0.000 A 
ATOM      6  N   UNL     1      45.434   4.461   8.049  0.00  0.00    +0.000 NA
ATOM      7  C   UNL     1      46.357   3.690   7.433  0.00  0.00    +0.000 A 
BRANCH   2   8
ATOM      8  C   UNL     1      47.603   1.564   6.951  0.00  0.00    +0.000 C 
BRANCH   8   9
ATOM      9  N   UNL     1      48.608   2.454   6.384  0.00  0.00    +0.000 NA
ATOM     10  H   UNL     1      48.688   3.286   6.965  0.00  0.00    +0.000 HD
ATOM     11  H   UNL     1      48.292   2.774   5.468  0.00  0.00    +0.000 HD
ENDBRANCH   8   9
ENDBRANCH   2   8
ENDBRANCH   1   5
BRANCH   1  12
ATOM     12  C   UNL     1      43.441   4.104  10.932  0.00  0.00    +0.000 C 
BRANCH  12  13
ATOM     13  C   UNL     1      43.527   5.248  11.951  0.00  0.00    +0.000 C 
ATOM     14  F   UNL     1      42.900   6.344  11.430  0.00  0.00    +0.000 F 
ATOM     15  F   UNL     1      42.803   4.909  13.060  0.00  0.00    +0.000 F 
BRANCH  13  16
ATOM     16  C   UNL     1      44.977   5.544  12.298  0.00  0.00    +0.000 A 
ATOM     17  C   UNL     1      45.709   6.502  11.577  0.00  0.00    +0.000 A 
ATOM     18  C   UNL     1      47.037   6.777  11.909  0.00  0.00    +0.000 A 
ATOM     19  C   UNL     1      47.649   6.096  12.959  0.00  0.00    +0.000 A 
ATOM     20  C   UNL     1      46.940   5.134  13.675  0.00  0.00    +0.000 A 
ATOM     21  C   UNL     1      45.611   4.858  13.346  0.00  0.00    +0.000 A 
ENDBRANCH  13  16
ENDBRANCH  12  13
ENDBRANCH   1  12
TORSDOF 6
ENDMDL
MODEL 2
REMARK VINA RESULT:    -7.647      1.256      1.575
REMARK INTER + INTRA:         -10.760
REMARK INTER:                 -10.016
REMARK INTRA:                  -0.744
REMARK UNBOUND:                -0.654
REMARK  Name = 
REMARK  6 active torsions:
REMARK  status: ('A' for Active; 'I' for Inactive)
REMARK    1  A    between atoms: N_1  and  C_2
REMARK    2  A    between atoms: C_2  and  C_3
REMARK    3  A    between atoms: C_6  and  O_7
REMARK    4  A    between atoms: O_7  and  C_8
REMARK    5  A    between atoms: C_8  and  C_9
REMARK    6  A    between atoms: C_9  and  C_12
REMARK                            x       y       z     vdW  Elec       q    Type
REMARK                         _______ _______ _______ _____ _____    ______ ____
ROOT
ATOM      1  O   UNL     1      44.252   2.502  10.277  0.00  0.00    +0.000 OA
ENDROOT
BRANCH   1   5
ATOM      2  C   UNL     1      46.545   2.672   6.855  0.00  0.00    +0.000 A 
ATOM      3  C   UNL     1      45.866   3.812   7.294  0.00  0.00    +0.000 A 
ATOM      4  C   UNL     1      45.098   3.752   8.458  0.00  0.00    +0.000 A 
ATOM      5  C   UNL     1      45.022   2.543   9.131  0.00  0.00    +0.000 A 
ATOM      6  N   UNL     1      45.674   1.428   8.745  0.00  0.00    +0.000 NA
ATOM      7  C   UNL     1      46.423   1.521   7.626  0.00  0.00    +0.000 A 
BRANCH   2   8
ATOM      8  C   UNL     1      47.395   2.672   5.616  0.00  0.00    +0.000 C 
BRANCH   8   9
ATOM      9  N   UNL     1      48.589   1.856   5.791  0.00  0.00    +0.000 NA
ATOM     10  H   UNL     1      49.346   2.240   5.228  0.00  0.00    +0.000 HD
ATOM     11  H   UNL     1      48.411   0.919   5.429  0.00  0.00    +0.000 HD
ENDBRANCH   8   9
ENDBRANCH   2   8
ENDBRANCH   1   5
BRANCH   1  12
ATOM     12  C   UNL     1      43.751   3.809  10.619  0.00  0.00    +0.000 C 
BRANCH  12  13
ATOM     13  C   UNL     1      43.927   4.084  12.119  0.00  0.00    +0.000 C 
ATOM     14  F   UNL     1      42.820   4.745  12.573  0.00  0.00    +0.000 F 
ATOM     15  F   UNL     1      43.937   2.893  12.790  0.00  0.00    +0.000 F 
BRANCH  13  16
ATOM     16  C   UNL     1      45.197   4.880  12.369  0.00  0.00    +0.000 A 
ATOM     17  C   UNL     1      45.632   5.849  11.451  0.00  0.00    +0.000 A 
ATOM     18  C   UNL     1      46.795   6.584  11.694  0.00  0.00    +0.000 A 
ATOM     19  C   UNL     1      47.536   6.356  12.851  0.00  0.00    +0.000 A 
ATOM     20  C   UNL     1      47.124   5.387  13.765  0.00  0.00    +0.000 A 
ATOM     21  C   UNL     1      45.961   4.652  13.525  0.00  0.00    +0.000 A 
ENDBRANCH  13  16
ENDBRANCH  12  13
ENDBRANCH   1  12
TORSDOF 6
ENDMDL
MODEL 3
REMARK VINA RESULT:    -7.234      2.669      5.703
REMARK INTER + INTRA:         -10.214
REMARK INTER:                  -9.892
REMARK INTRA:                  -0.322
REMARK UNBOUND:                -0.654
REMARK  Name = 
REMARK  6 active torsions:
REMARK  status: ('A' for Active; 'I' for Inactive)
REMARK    1  A    between atoms: N_1  and  C_2
REMARK    2  A    between atoms: C_2  and  C_3
REMARK    3  A    between atoms: C_6  and  O_7
REMARK    4  A    between atoms: O_7  and  C_8
REMARK    5  A    between atoms: C_8  and  C_9
REMARK    6  A    between atoms: C_9  and  C_12
REMARK                            x       y       z     vdW  Elec       q    Type
REMARK                         _______ _______ _______ _____ _____    ______ ____
ROOT
ATOM      1  O   UNL     1      43.735   4.459  10.663  0.00  0.00    +0.000 OA
ENDROOT
BRANCH   1   5
ATOM      2  C   UNL     1      46.802   6.163  12.827  0.00  0.00    +0.000 A 
ATOM      3  C   UNL     1      46.659   6.463  11.469  0.00  0.00    +0.000 A 
ATOM      4  C   UNL     1      45.613   5.891  10.744  0.00  0.00    +0.000 A 
ATOM      5  C   UNL     1      44.759   5.019  11.400  0.00  0.00    +0.000 A 
ATOM      6  N   UNL     1      44.860   4.717  12.710  0.00  0.00    +0.000 NA
ATOM      7  C   UNL     1      45.869   5.299  13.391  0.00  0.00    +0.000 A 
BRANCH   2   8
ATOM      8  C   UNL     1      47.900   6.751  13.667  0.00  0.00    +0.000 C 
BRANCH   8   9
ATOM      9  N   UNL     1      49.209   6.517  13.071  0.00  0.00    +0.000 NA
ATOM     10  H   UNL     1      49.904   7.087  13.549  0.00  0.00    +0.000 HD
ATOM     11  H   UNL     1      49.197   6.834  12.101  0.00  0.00    +0.000 HD
ENDBRANCH   8   9
ENDBRANCH   2   8
ENDBRANCH   1   5
BRANCH   1  12
ATOM     12  C   UNL     1      44.185   4.070   9.350  0.00  0.00    +0.000 C 
BRANCH  12  13
ATOM     13  C   UNL     1      44.843   2.684   9.388  0.00  0.00    +0.000 C 
ATOM     14  F   UNL     1      45.490   2.541  10.583  0.00  0.00    +0.000 F 
ATOM     15  F   UNL     1      43.864   1.729   9.391  0.00  0.00    +0.000 F 
BRANCH  13  16
ATOM     16  C   UNL     1      45.791   2.511   8.213  0.00  0.00    +0.000 A 
ATOM     17  C   UNL     1      45.981   3.546   7.283  0.00  0.00    +0.000 A 
ATOM     18  C   UNL     1      46.862   3.384   6.212  0.00  0.00    +0.000 A 
ATOM     19  C   UNL     1      47.558   2.187   6.056  0.00  0.00    +0.000 A 
ATOM     20  C   UNL     1      47.370   1.146   6.964  0.00  0.00    +0.000 A 
ATOM     21  C   UNL     1      46.490   1.307   8.037  0.00  0.00    +0.000 A 
ENDBRANCH  13  16
ENDBRANCH  12  13
ENDBRANCH   1  12
TORSDOF 6
ENDMDL
MODEL 4
REMARK VINA RESULT:    -7.073      2.711      5.937
REMARK INTER + INTRA:         -10.001
REMARK INTER:                  -9.578
REMARK INTRA:                  -0.422
REMARK UNBOUND:                -0.654
REMARK  Name = 
REMARK  6 active torsions:
REMARK  status: ('A' for Active; 'I' for Inactive)
REMARK    1  A    between atoms: N_1  and  C_2
REMARK    2  A    between atoms: C_2  and  C_3
REMARK    3  A    between atoms: C_6  and  O_7
REMARK    4  A    between atoms: O_7  and  C_8
REMARK    5  A    between atoms: C_8  and  C_9
REMARK    6  A    between atoms: C_9  and  C_12
REMARK                            x       y       z     vdW  Elec       q    Type
REMARK                         _______ _______ _______ _____ _____    ______ ____
ROOT
ATOM      1  O   UNL     1      43.664   3.967  10.962  0.00  0.00    +0.000 OA
ENDROOT
BRANCH   1   5
ATOM      2  C   UNL     1      46.502   4.883  13.808  0.00  0.00    +0.000 A 
ATOM      3  C   UNL     1      46.411   3.580  13.311  0.00  0.00    +0.000 A 
ATOM      4  C   UNL     1      45.455   3.277  12.341  0.00  0.00    +0.000 A 
ATOM      5  C   UNL     1      44.607   4.288  11.917  0.00  0.00    +0.000 A 
ATOM      6  N   UNL     1      44.674   5.559  12.365  0.00  0.00    +0.000 NA
ATOM      7  C   UNL     1      45.621   5.827  13.289  0.00  0.00    +0.000 A 
BRANCH   2   8
ATOM      8  C   UNL     1      47.514   5.278  14.846  0.00  0.00    +0.000 C 
BRANCH   8   9
ATOM      9  N   UNL     1      47.144   4.781  16.165  0.00  0.00    +0.000 NA
ATOM     10  H   UNL     1      46.151   4.944  16.321  0.00  0.00    +0.000 HD
ATOM     11  H   UNL     1      47.638   5.320  16.876  0.00  0.00    +0.000 HD
ENDBRANCH   8   9
ENDBRANCH   2   8
ENDBRANCH   1   5
BRANCH   1  12
ATOM     12  C   UNL     1      44.205   3.074   9.970  0.00  0.00    +0.000 C 
BRANCH  12  13
ATOM     13  C   UNL     1      44.822   3.861   8.806  0.00  0.00    +0.000 C 
ATOM     14  F   UNL     1      43.812   4.355   8.029  0.00  0.00    +0.000 F 
ATOM     15  F   UNL     1      45.464   4.960   9.306  0.00  0.00    +0.000 F 
BRANCH  13  16
ATOM     16  C   UNL     1      45.765   2.979   8.005  0.00  0.00    +0.000 A 
ATOM     17  C   UNL     1      45.996   1.645   8.380  0.00  0.00    +0.000 A 
ATOM     18  C   UNL     1      46.855   0.837   7.633  0.00  0.00    +0.000 A 
ATOM     19  C   UNL     1      47.495   1.352   6.508  0.00  0.00    +0.000 A 
ATOM     20  C   UNL     1      47.286   2.678   6.131  0.00  0.00    +0.000 A 
ATOM     21  C   UNL     1      46.426   3.488   6.876  0.00  0.00    +0.000 A 
ENDBRANCH  13  16
ENDBRANCH  12  13
ENDBRANCH   1  12
TORSDOF 6
ENDMDL
MODEL 5
REMARK VINA RESULT:    -6.796      2.821      5.807
REMARK INTER + INTRA:          -9.635
REMARK INTER:                  -8.939
REMARK INTRA:                  -0.697
REMARK UNBOUND:                -0.654
REMARK  Name = 
REMARK  6 active torsions:
REMARK  status: ('A' for Active; 'I' for Inactive)
REMARK    1  A    between atoms: N_1  and  C_2
REMARK    2  A    between atoms: C_2  and  C_3
REMARK    3  A    between atoms: C_6  and  O_7
REMARK    4  A    between atoms: O_7  and  C_8
REMARK    5  A    between atoms: C_8  and  C_9
REMARK    6  A    between atoms: C_9  and  C_12
REMARK                            x       y       z     vdW  Elec       q    Type
REMARK                         _______ _______ _______ _____ _____    ______ ____
ROOT
ATOM      1  O   UNL     1      44.813   4.961  12.005  0.00  0.00    +0.000 OA
ENDROOT
BRANCH   1   5
ATOM      2  C   UNL     1      48.315   6.896  12.998  0.00  0.00    +0.000 A 
ATOM      3  C   UNL     1      47.729   7.118  11.749  0.00  0.00    +0.000 A 
ATOM      4  C   UNL     1      46.539   6.467  11.421  0.00  0.00    +0.000 A 
ATOM      5  C   UNL     1      45.987   5.600  12.351  0.00  0.00    +0.000 A 
ATOM      6  N   UNL     1      46.518   5.373  13.570  0.00  0.00    +0.000 NA
ATOM      7  C   UNL     1      47.659   6.030  13.866  0.00  0.00    +0.000 A 
BRANCH   2   8
ATOM      8  C   UNL     1      49.590   7.571  13.417  0.00  0.00    +0.000 C 
BRANCH   8   9
ATOM      9  N   UNL     1      50.127   6.984  14.637  0.00  0.00    +0.000 NA
ATOM     10  H   UNL     1      50.559   7.713  15.201  0.00  0.00    +0.000 HD
ATOM     11  H   UNL     1      50.872   6.330  14.395  0.00  0.00    +0.000 HD
ENDBRANCH   8   9
ENDBRANCH   2   8
ENDBRANCH   1   5
BRANCH   1  12
ATOM     12  C   UNL     1      45.056   3.601  11.598  0.00  0.00    +0.000 C 
BRANCH  12  13
ATOM     13  C   UNL     1      44.271   3.266  10.322  0.00  0.00    +0.000 C 
ATOM     14  F   UNL     1      43.515   2.152  10.554  0.00  0.00    +0.000 F 
ATOM     15  F   UNL     1      43.374   4.267  10.077  0.00  0.00    +0.000 F 
BRANCH  13  16
ATOM     16  C   UNL     1      45.219   3.064   9.151  0.00  0.00    +0.000 A 
ATOM     17  C   UNL     1      45.662   1.780   8.795  0.00  0.00    +0.000 A 
ATOM     18  C   UNL     1      46.524   1.602   7.711  0.00  0.00    +0.000 A 
ATOM     19  C   UNL     1      46.956   2.703   6.975  0.00  0.00    +0.000 A 
ATOM     20  C   UNL     1      46.536   3.985   7.324  0.00  0.00    +0.000 A 
ATOM     21  C   UNL     1      45.673   4.165   8.407  0.00  0.00    +0.000 A 
ENDBRANCH  13  16
ENDBRANCH  12  13
ENDBRANCH   1  12
TORSDOF 6
ENDMDL
MODEL 6
REMARK VINA RESULT:    -6.429      3.148      6.072
REMARK INTER + INTRA:          -9.150
REMARK INTER:                  -8.545
REMARK INTRA:                  -0.605
REMARK UNBOUND:                -0.654
REMARK  Name = 
REMARK  6 active torsions:
REMARK  status: ('A' for Active; 'I' for Inactive)
REMARK    1  A    between atoms: N_1  and  C_2
REMARK    2  A    between atoms: C_2  and  C_3
REMARK    3  A    between atoms: C_6  and  O_7
REMARK    4  A    between atoms: O_7  and  C_8
REMARK    5  A    between atoms: C_8  and  C_9
REMARK    6  A    between atoms: C_9  and  C_12
REMARK                            x       y       z     vdW  Elec       q    Type
REMARK                         _______ _______ _______ _____ _____    ______ ____
ROOT
ATOM      1  O   UNL     1      45.540   3.590  12.939  0.00  0.00    +0.000 OA
ENDROOT
BRANCH   1   5
ATOM      2  C   UNL     1      48.201   5.902  15.076  0.00  0.00    +0.000 A 
ATOM      3  C   UNL     1      47.873   6.254  13.764  0.00  0.00    +0.000 A 
ATOM      4  C   UNL     1      46.964   5.473  13.048  0.00  0.00    +0.000 A 
ATOM      5  C   UNL     1      46.432   4.353  13.667  0.00  0.00    +0.000 A 
ATOM      6  N   UNL     1      46.715   3.992  14.935  0.00  0.00    +0.000 NA
ATOM      7  C   UNL     1      47.583   4.776  15.609  0.00  0.00    +0.000 A 
BRANCH   2   8
ATOM      8  C   UNL     1      49.164   6.704  15.905  0.00  0.00    +0.000 C 
BRANCH   8   9
ATOM      9  N   UNL     1      50.438   6.879  15.218  0.00  0.00    +0.000 NA
ATOM     10  H   UNL     1      50.271   6.990  14.220  0.00  0.00    +0.000 HD
ATOM     11  H   UNL     1      50.994   6.030  15.323  0.00  0.00    +0.000 HD
ENDBRANCH   8   9
ENDBRANCH   2   8
ENDBRANCH   1   5
BRANCH   1  12
ATOM     12  C   UNL     1      44.449   4.389  12.443  0.00  0.00    +0.000 C 
BRANCH  12  13
ATOM     13  C   UNL     1      43.665   3.630  11.363  0.00  0.00    +0.000 C 
ATOM     14  F   UNL     1      43.287   2.418  11.869  0.00  0.00    +0.000 F 
ATOM     15  F   UNL     1      42.499   4.297  11.111  0.00  0.00    +0.000 F 
BRANCH  13  16
ATOM     16  C   UNL     1      44.504   3.474  10.105  0.00  0.00    +0.000 A 
ATOM     17  C   UNL     1      44.782   2.202   9.578  0.00  0.00    +0.000 A 
ATOM     18  C   UNL     1      45.544   2.068   8.415  0.00  0.00    +0.000 A 
ATOM     19  C   UNL     1      46.041   3.199   7.772  0.00  0.00    +0.000 A 
ATOM     20  C   UNL     1      45.785   4.467   8.291  0.00  0.00    +0.000 A 
ATOM     21  C   UNL     1      45.022   4.604   9.453  0.00  0.00    +0.000 A 
ENDBRANCH  13  16
ENDBRANCH  12  13
ENDBRANCH   1  12
TORSDOF 6
ENDMDL
MODEL 7
REMARK VINA RESULT:    -6.421      2.578      5.337
REMARK INTER + INTRA:          -9.139
REMARK INTER:                  -8.370
REMARK INTRA:                  -0.770
REMARK UNBOUND:                -0.654
REMARK  Name = 
REMARK  6 active torsions:
REMARK  status: ('A' for Active; 'I' for Inactive)
REMARK    1  A    between atoms: N_1  and  C_2
REMARK    2  A    between atoms: C_2  and  C_3
REMARK    3  A    between atoms: C_6  and  O_7
REMARK    4  A    between atoms: O_7  and  C_8
REMARK    5  A    between atoms: C_8  and  C_9
REMARK    6  A    between atoms: C_9  and  C_12
REMARK                            x       y       z     vdW  Elec       q    Type
REMARK                         _______ _______ _______ _____ _____    ______ ____
ROOT
ATOM      1  O   UNL     1      44.361   5.227  12.838  0.00  0.00    +0.000 OA
ENDROOT
BRANCH   1   5
ATOM      2  C   UNL     1      47.957   7.240  12.756  0.00  0.00    +0.000 A 
ATOM      3  C   UNL     1      46.865   7.738  12.040  0.00  0.00    +0.000 A 
ATOM      4  C   UNL     1      45.647   7.058  12.078  0.00  0.00    +0.000 A 
ATOM      5  C   UNL     1      45.573   5.888  12.818  0.00  0.00    +0.000 A 
ATOM      6  N   UNL     1      46.601   5.385  13.531  0.00  0.00    +0.000 NA
ATOM      7  C   UNL     1      47.761   6.074  13.489  0.00  0.00    +0.000 A 
BRANCH   2   8
ATOM      8  C   UNL     1      49.293   7.928  12.764  0.00  0.00    +0.000 C 
BRANCH   8   9
ATOM      9  N   UNL     1      50.304   7.133  12.079  0.00  0.00    +0.000 NA
ATOM     10  H   UNL     1      50.207   6.156  12.351  0.00  0.00    +0.000 HD
ATOM     11  H   UNL     1      51.230   7.427  12.393  0.00  0.00    +0.000 HD
ENDBRANCH   8   9
ENDBRANCH   2   8
ENDBRANCH   1   5
BRANCH   1  12
ATOM     12  C   UNL     1      44.520   3.829  12.526  0.00  0.00    +0.000 C 
BRANCH  12  13
ATOM     13  C   UNL     1      43.660   3.440  11.315  0.00  0.00    +0.000 C 
ATOM     14  F   UNL     1      43.039   2.253  11.585  0.00  0.00    +0.000 F 
ATOM     15  F   UNL     1      42.652   4.352  11.176  0.00  0.00    +0.000 F 
BRANCH  13  16
ATOM     16  C   UNL     1      44.514   3.353  10.061  0.00  0.00    +0.000 A 
ATOM     17  C   UNL     1      44.966   4.515   9.415  0.00  0.00    +0.000 A 
ATOM     18  C   UNL     1      45.759   4.427   8.269  0.00  0.00    +0.000 A 
ATOM     19  C   UNL     1      46.104   3.180   7.753  0.00  0.00    +0.000 A 
ATOM     20  C   UNL     1      45.652   2.018   8.376  0.00  0.00    +0.000 A 
ATOM     21  C   UNL     1      44.860   2.103   9.523  0.00  0.00    +0.000 A 
ENDBRANCH  13  16
ENDBRANCH  12  13
ENDBRANCH   1  12
TORSDOF 6
ENDMDL
MODEL 8
REMARK VINA RESULT:    -6.199      4.419      6.398
REMARK INTER + INTRA:          -8.846
REMARK INTER:                  -8.347
REMARK INTRA:                  -0.499
REMARK UNBOUND:                -0.654
REMARK  Name = 
REMARK  6 active torsions:
REMARK  status: ('A' for Active; 'I' for Inactive)
REMARK    1  A    between atoms: N_1  and  C_2
REMARK    2  A    between atoms: C_2  and  C_3
REMARK    3  A    between atoms: C_6  and  O_7
REMARK    4  A    between atoms: O_7  and  C_8
REMARK    5  A    between atoms: C_8  and  C_9
REMARK    6  A    between atoms: C_9  and  C_12
REMARK                            x       y       z     vdW  Elec       q    Type
REMARK                         _______ _______ _______ _____ _____    ______ ____
ROOT
ATOM      1  O   UNL     1      47.307   3.583  14.608  0.00  0.00    +0.000 OA
ENDROOT
BRANCH   1   5
ATOM      2  C   UNL     1      44.414   4.781  11.927  0.00  0.00    +0.000 A 
ATOM      3  C   UNL     1      45.000   5.718  12.782  0.00  0.00    +0.000 A 
ATOM      4  C   UNL     1      45.985   5.309  13.682  0.00  0.00    +0.000 A 
ATOM      5  C   UNL     1      46.335   3.968  13.707  0.00  0.00    +0.000 A 
ATOM      6  N   UNL     1      45.801   3.040  12.887  0.00  0.00    +0.000 NA
ATOM      7  C   UNL     1      44.863   3.468  12.015  0.00  0.00    +0.000 A 
BRANCH   2   8
ATOM      8  C   UNL     1      43.355   5.157  10.930  0.00  0.00    +0.000 C 
BRANCH   8   9
ATOM      9  N   UNL     1      43.755   4.810   9.572  0.00  0.00    +0.000 NA
ATOM     10  H   UNL     1      43.064   4.181   9.167  0.00  0.00    +0.000 HD
ATOM     11  H   UNL     1      44.632   4.289   9.605  0.00  0.00    +0.000 HD
ENDBRANCH   8   9
ENDBRANCH   2   8
ENDBRANCH   1   5
BRANCH   1  12
ATOM     12  C   UNL     1      47.498   4.578  15.631  0.00  0.00    +0.000 C 
BRANCH  12  13
ATOM     13  C   UNL     1      47.639   3.921  17.011  0.00  0.00    +0.000 C 
ATOM     14  F   UNL     1      47.198   4.799  17.961  0.00  0.00    +0.000 F 
ATOM     15  F   UNL     1      46.788   2.854  17.083  0.00  0.00    +0.000 F 
BRANCH  13  16
ATOM     16  C   UNL     1      49.080   3.505  17.259  0.00  0.00    +0.000 A 
ATOM     17  C   UNL     1      49.507   2.194  16.992  0.00  0.00    +0.000 A 
ATOM     18  C   UNL     1      50.835   1.822  17.212  0.00  0.00    +0.000 A 
ATOM     19  C   UNL     1      51.748   2.752  17.706  0.00  0.00    +0.000 A 
ATOM     20  C   UNL     1      51.335   4.053  17.988  0.00  0.00    +0.000 A 
ATOM     21  C   UNL     1      50.008   4.428  17.768  0.00  0.00    +0.000 A 
ENDBRANCH  13  16
ENDBRANCH  12  13
ENDBRANCH   1  12
TORSDOF 6
ENDMDL
MODEL 9
REMARK VINA RESULT:    -5.588      4.368      7.124
REMARK INTER + INTRA:          -8.039
REMARK INTER:                  -7.598
REMARK INTRA:                  -0.441
REMARK UNBOUND:                -0.654
REMARK  Name = 
REMARK  6 active torsions:
REMARK  status: ('A' for Active; 'I' for Inactive)
REMARK    1  A    between atoms: N_1  and  C_2
REMARK    2  A    between atoms: C_2  and  C_3
REMARK    3  A    between atoms: C_6  and  O_7
REMARK    4  A    between atoms: O_7  and  C_8
REMARK    5  A    between atoms: C_8  and  C_9
REMARK    6  A    between atoms: C_9  and  C_12
REMARK                            x       y       z     vdW  Elec       q    Type
REMARK                         _______ _______ _______ _____ _____    ______ ____
ROOT
ATOM      1  O   UNL     1      46.520   3.972  14.562  0.00  0.00    +0.000 OA
ENDROOT
BRANCH   1   5
ATOM      2  C   UNL     1      48.766   5.226  17.782  0.00  0.00    +0.000 A 
ATOM      3  C   UNL     1      47.852   4.181  17.938  0.00  0.00    +0.000 A 
ATOM      4  C   UNL     1      47.100   3.754  16.842  0.00  0.00    +0.000 A 
ATOM      5  C   UNL     1      47.277   4.405  15.631  0.00  0.00    +0.000 A 
ATOM      6  N   UNL     1      48.160   5.407  15.442  0.00  0.00    +0.000 NA
ATOM      7  C   UNL     1      48.886   5.786  16.515  0.00  0.00    +0.000 A 
BRANCH   2   8
ATOM      8  C   UNL     1      49.612   5.727  18.918  0.00  0.00    +0.000 C 
BRANCH   8   9
ATOM      9  N   UNL     1      51.033   5.597  18.621  0.00  0.00    +0.000 NA
ATOM     10  H   UNL     1      51.155   5.430  17.624  0.00  0.00    +0.000 HD
ATOM     11  H   UNL     1      51.400   4.772  19.097  0.00  0.00    +0.000 HD
ENDBRANCH   8   9
ENDBRANCH   2   8
ENDBRANCH   1   5
BRANCH   1  12
ATOM     12  C   UNL     1      46.482   4.957  13.512  0.00  0.00    +0.000 C 
BRANCH  12  13
ATOM     13  C   UNL     1      45.078   5.044  12.897  0.00  0.00    +0.000 C 
ATOM     14  F   UNL     1      44.242   4.223  13.600  0.00  0.00    +0.000 F 
ATOM     15  F   UNL     1      44.589   6.306  13.086  0.00  0.00    +0.000 F 
BRANCH  13  16
ATOM     16  C   UNL     1      45.117   4.673  11.423  0.00  0.00    +0.000 A 
ATOM     17  C   UNL     1      45.664   5.552  10.474  0.00  0.00    +0.000 A 
ATOM     18  C   UNL     1      45.707   5.199   9.124  0.00  0.00    +0.000 A 
ATOM     19  C   UNL     1      45.200   3.970   8.707  0.00  0.00    +0.000 A 
ATOM     20  C   UNL     1      44.642   3.094   9.635  0.00  0.00    +0.000 A 
ATOM     21  C   UNL     1      44.600   3.443  10.987  0.00  0.00    +0.000 A 
ENDBRANCH  13  16
ENDBRANCH  12  13
ENDBRANCH   1  12
TORSDOF 6
ENDMDL
