MODEL 1
REMARK VINA RESULT:    -6.674      0.000      0.000
REMARK INTER + INTRA:          -8.657
REMARK INTER:                  -8.234
REMARK INTRA:                  -0.422
REMARK UNBOUND:                -0.422
REMARK  Name = 
REMARK  5 active torsions:
REMARK  status: ('A' for Active; 'I' for Inactive)
REMARK    1  A    between atoms: C_1  and  O_2
REMARK    2  A    between atoms: O_2  and  C_3
REMARK    3  A    between atoms: C_5  and  C_6
REMARK    4  A    between atoms: N_13  and  C_14
REMARK    5  A    between atoms: C_14  and  C_15
REMARK                            x       y       z     vdW  Elec       q    Type
REMARK                         _______ _______ _______ _____ _____    ______ ____
ROOT
ATOM      1  C   UNL     1      45.628   3.693  12.739  0.00  0.00    +0.000 A 
ATOM      2  C   UNL     1      46.260   3.650  13.995  0.00  0.00    +0.000 A 
ATOM      3  C   UNL     1      47.022   4.708  14.496  0.00  0.00    +0.000 A 
ATOM      4  C   UNL     1      47.200   5.847  13.712  0.00  0.00    +0.000 A 
ATOM      5  C   UNL     1      46.635   5.907  12.420  0.00  0.00    +0.000 A 
ATOM      6  C   UNL     1      46.673   6.910  11.415  0.00  0.00    +0.000 A 
ATOM      7  C   UNL     1      45.955   6.450  10.342  0.00  0.00    +0.000 A 
ATOM      8  N   UNL     1      45.468   5.197  10.651  0.00  0.00    +0.000 N 
ATOM      9  C   UNL     1      45.861   4.833  11.937  0.00  0.00    +0.000 A 
ENDROOT
BRANCH   3  10
ATOM     10  C   UNL     1      47.590   4.546  15.867  0.00  0.00    +0.000 C 
ATOM     11  N   UNL     1      46.998   3.672  16.734  0.00  0.00    +0.000 N 
ATOM     12  O   UNL     1      48.581   5.174  16.226  0.00  0.00    +0.000 OA
ATOM     13  H   UNL     1      46.190   3.107  16.534  0.00  0.00    +0.000 HD
ATOM     14  H   UNL     1      47.421   3.591  17.650  0.00  0.00    +0.000 HD
ENDBRANCH   3  10
BRANCH   1  16
ATOM     15  C   UNL     1      43.426   2.873  12.447  0.00  0.00    +0.000 C 
ATOM     16  O   UNL     1      44.835   2.666  12.280  0.00  0.00    +0.000 OA
ENDBRANCH   1  16
BRANCH   8  17
ATOM     17  C   UNL     1      44.618   4.455   9.721  0.00  0.00    +0.000 C 
BRANCH  17  18
ATOM     18  C   UNL     1      45.396   3.494   8.874  0.00  0.00    +0.000 A 
ATOM     19  C   UNL     1      46.212   3.907   7.840  0.00  0.00    +0.000 A 
ATOM     20  N   UNL     1      46.943   3.071   7.072  0.00  0.00    +0.000 NA
ATOM     21  C   UNL     1      46.828   1.768   7.359  0.00  0.00    +0.000 A 
ATOM     22  N   UNL     1      46.076   1.242   8.338  0.00  0.00    +0.000 NA
ATOM     23  C   UNL     1      45.374   2.127   9.078  0.00  0.00    +0.000 A 
ENDBRANCH  17  18
ENDBRANCH   8  17
TORSDOF 4
ENDMDL
MODEL 2
REMARK VINA RESULT:    -6.551      2.344      3.221
REMARK INTER + INTRA:          -8.504
REMARK INTER:                  -7.894
REMARK INTRA:                  -0.610
REMARK UNBOUND:                -0.422
REMARK  Name = 
REMARK  5 active torsions:
REMARK  status: ('A' for Active; 'I' for Inactive)
REMARK    1  A    between atoms: C_1  and  O_2
REMARK    2  A    between atoms: O_2  and  C_3
REMARK    3  A    between atoms: C_5  and  C_6
REMARK    4  A    between atoms: N_13  and  C_14
REMARK    5  A    between atoms: C_14  and  C_15
REMARK                            x       y       z     vdW  Elec       q    Type
REMARK                         _______ _______ _______ _____ _____    ______ ____
ROOT
ATOM      1  C   UNL     1      45.820   6.990  12.235  0.00  0.00    +0.000 A 
ATOM      2  C   UNL     1      46.551   7.933  12.982  0.00  0.00    +0.000 A 
ATOM      3  C   UNL     1      47.478   7.570  13.961  0.00  0.00    +0.000 A 
ATOM      4  C   UNL     1      47.671   6.218  14.245  0.00  0.00    +0.000 A 
ATOM      5  C   UNL     1      46.914   5.241  13.563  0.00  0.00    +0.000 A 
ATOM      6  C   UNL     1      46.886   3.825  13.662  0.00  0.00    +0.000 A 
ATOM      7  C   UNL     1      45.957   3.363  12.766  0.00  0.00    +0.000 A 
ATOM      8  N   UNL     1      45.413   4.447  12.110  0.00  0.00    +0.000 N 
ATOM      9  C   UNL     1      45.991   5.629  12.571  0.00  0.00    +0.000 A 
ENDROOT
BRANCH   3  10
ATOM     10  C   UNL     1      48.220   8.674  14.636  0.00  0.00    +0.000 C 
ATOM     11  N   UNL     1      47.679   9.260  15.745  0.00  0.00    +0.000 N 
ATOM     12  O   UNL     1      49.310   9.058  14.222  0.00  0.00    +0.000 OA
ATOM     13  H   UNL     1      46.798   9.013  16.166  0.00  0.00    +0.000 HD
ATOM     14  H   UNL     1      48.221  10.001  16.172  0.00  0.00    +0.000 HD
ENDBRANCH   3  10
BRANCH   1  16
ATOM     15  C   UNL     1      44.501   8.720  11.300  0.00  0.00    +0.000 C 
ATOM     16  O   UNL     1      44.949   7.359  11.235  0.00  0.00    +0.000 OA
ENDBRANCH   1  16
BRANCH   8  17
ATOM     17  C   UNL     1      44.416   4.281  11.052  0.00  0.00    +0.000 C 
BRANCH  17  18
ATOM     18  C   UNL     1      45.026   3.856   9.752  0.00  0.00    +0.000 A 
ATOM     19  C   UNL     1      45.626   4.747   8.884  0.00  0.00    +0.000 A 
ATOM     20  N   UNL     1      46.203   4.396   7.716  0.00  0.00    +0.000 NA
ATOM     21  C   UNL     1      46.157   3.091   7.413  0.00  0.00    +0.000 A 
ATOM     22  N   UNL     1      45.611   2.128   8.172  0.00  0.00    +0.000 NA
ATOM     23  C   UNL     1      45.057   2.538   9.332  0.00  0.00    +0.000 A 
ENDBRANCH  17  18
ENDBRANCH   8  17
TORSDOF 4
ENDMDL
MODEL 3
REMARK VINA RESULT:    -6.096      3.050      5.839
REMARK INTER + INTRA:          -7.943
REMARK INTER:                  -7.276
REMARK INTRA:                  -0.668
REMARK UNBOUND:                -0.422
REMARK  Name = 
REMARK  5 active torsions:
REMARK  status: ('A' for Active; 'I' for Inactive)
REMARK    1  A    between atoms: C_1  and  O_2
REMARK    2  A    between atoms: O_2  and  C_3
REMARK    3  A    between atoms: C_5  and  C_6
REMARK    4  A    between atoms: N_13  and  C_14
REMARK    5  A    between atoms: C_14  and  C_15
REMARK                            x       y       z     vdW  Elec       q    Type
REMARK                         _______ _______ _______ _____ _____    ______ ____
ROOT
ATOM      1  C   UNL     1      46.401   4.959  12.956  0.00  0.00    +0.000 A 
ATOM      2  C   UNL     1      45.651   3.878  12.456  0.00  0.00    +0.000 A 
ATOM      3  C   UNL     1      44.591   4.042  11.562  0.00  0.00    +0.000 A 
ATOM      4  C   UNL     1      44.226   5.330  11.168  0.00  0.00    +0.000 A 
ATOM      5  C   UNL     1      44.912   6.446  11.695  0.00  0.00    +0.000 A 
ATOM      6  C   UNL     1      44.744   7.841  11.493  0.00  0.00    +0.000 A 
ATOM      7  C   UNL     1      45.681   8.487  12.258  0.00  0.00    +0.000 A 
ATOM      8  N   UNL     1      46.428   7.537  12.921  0.00  0.00    +0.000 N 
ATOM      9  C   UNL     1      45.986   6.258  12.588  0.00  0.00    +0.000 A 
ENDROOT
BRANCH   3  10
ATOM     10  C   UNL     1      43.919   2.803  11.071  0.00  0.00    +0.000 C 
ATOM     11  N   UNL     1      44.413   2.172   9.965  0.00  0.00    +0.000 N 
ATOM     12  O   UNL     1      42.941   2.336  11.646  0.00  0.00    +0.000 OA
ATOM     13  H   UNL     1      45.212   2.469   9.430  0.00  0.00    +0.000 HD
ATOM     14  H   UNL     1      43.929   1.332   9.672  0.00  0.00    +0.000 HD
ENDBRANCH   3  10
BRANCH   1  16
ATOM     15  C   UNL     1      47.141   4.409  15.137  0.00  0.00    +0.000 C 
ATOM     16  O   UNL     1      47.479   4.781  13.793  0.00  0.00    +0.000 OA
ENDBRANCH   1  16
BRANCH   8  17
ATOM     17  C   UNL     1      47.546   7.910  13.788  0.00  0.00    +0.000 C 
BRANCH  17  18
ATOM     18  C   UNL     1      48.774   8.279  13.014  0.00  0.00    +0.000 A 
ATOM     19  C   UNL     1      49.363   9.525  13.102  0.00  0.00    +0.000 A 
ATOM     20  N   UNL     1      50.480   9.885  12.435  0.00  0.00    +0.000 NA
ATOM     21  C   UNL     1      51.010   8.945  11.640  0.00  0.00    +0.000 A 
ATOM     22  N   UNL     1      50.539   7.700  11.473  0.00  0.00    +0.000 NA
ATOM     23  C   UNL     1      49.425   7.396  12.172  0.00  0.00    +0.000 A 
ENDBRANCH  17  18
ENDBRANCH   8  17
TORSDOF 4
ENDMDL
MODEL 4
REMARK VINA RESULT:    -5.893      2.163      2.651
REMARK INTER + INTRA:          -7.693
REMARK INTER:                  -7.193
REMARK INTRA:                  -0.500
REMARK UNBOUND:                -0.422
REMARK  Name = 
REMARK  5 active torsions:
REMARK  status: ('A' for Active; 'I' for Inactive)
REMARK    1  A    between atoms: C_1  and  O_2
REMARK    2  A    between atoms: O_2  and  C_3
REMARK    3  A    between atoms: C_5  and  C_6
REMARK    4  A    between atoms: N_13  and  C_14
REMARK    5  A    between atoms: C_14  and  C_15
REMARK                            x       y       z     vdW  Elec       q    Type
REMARK                         _______ _______ _______ _____ _____    ______ ____
ROOT
ATOM      1  C   UNL     1      46.430   5.483  13.062  0.00  0.00    +0.000 A 
ATOM      2  C   UNL     1      47.585   5.949  13.717  0.00  0.00    +0.000 A 
ATOM      3  C   UNL     1      47.915   7.303  13.800  0.00  0.00    +0.000 A 
ATOM      4  C   UNL     1      47.090   8.242  13.180  0.00  0.00    +0.000 A 
ATOM      5  C   UNL     1      45.954   7.813  12.458  0.00  0.00    +0.000 A 
ATOM      6  C   UNL     1      44.972   8.529  11.726  0.00  0.00    +0.000 A 
ATOM      7  C   UNL     1      44.087   7.615  11.215  0.00  0.00    +0.000 A 
ATOM      8  N   UNL     1      44.485   6.357  11.614  0.00  0.00    +0.000 N 
ATOM      9  C   UNL     1      45.634   6.441  12.396  0.00  0.00    +0.000 A 
ENDROOT
BRANCH   3  10
ATOM     10  C   UNL     1      49.141   7.658  14.573  0.00  0.00    +0.000 C 
ATOM     11  N   UNL     1      49.463   8.975  14.742  0.00  0.00    +0.000 N 
ATOM     12  O   UNL     1      49.857   6.793  15.067  0.00  0.00    +0.000 OA
ATOM     13  H   UNL     1      48.939   9.756  14.384  0.00  0.00    +0.000 HD
ATOM     14  H   UNL     1      50.301   9.167  15.278  0.00  0.00    +0.000 HD
ENDBRANCH   3  10
BRANCH   1  16
ATOM     15  C   UNL     1      46.907   3.302  13.851  0.00  0.00    +0.000 C 
ATOM     16  O   UNL     1      46.088   4.150  13.035  0.00  0.00    +0.000 OA
ENDBRANCH   1  16
BRANCH   8  17
ATOM     17  C   UNL     1      43.714   5.163  11.266  0.00  0.00    +0.000 C 
BRANCH  17  18
ATOM     18  C   UNL     1      44.372   4.346  10.197  0.00  0.00    +0.000 A 
ATOM     19  C   UNL     1      45.078   4.914   9.154  0.00  0.00    +0.000 A 
ATOM     20  N   UNL     1      45.701   4.207   8.187  0.00  0.00    +0.000 NA
ATOM     21  C   UNL     1      45.591   2.875   8.277  0.00  0.00    +0.000 A 
ATOM     22  N   UNL     1      44.941   2.204   9.241  0.00  0.00    +0.000 NA
ATOM     23  C   UNL     1      44.345   2.963  10.185  0.00  0.00    +0.000 A 
ENDBRANCH  17  18
ENDBRANCH   8  17
TORSDOF 4
ENDMDL
MODEL 5
REMARK VINA RESULT:    -5.739      3.171      6.039
REMARK INTER + INTRA:          -7.503
REMARK INTER:                  -6.829
REMARK INTRA:                  -0.674
REMARK UNBOUND:                -0.422
REMARK  Name = 
REMARK  5 active torsions:
REMARK  status: ('A' for Active; 'I' for Inactive)
REMARK    1  A    between atoms: C_1  and  O_2
REMARK    2  A    between atoms: O_2  and  C_3
REMARK    3  A    between atoms: C_5  and  C_6
REMARK    4  A    between atoms: N_13  and  C_14
REMARK    5  A    between atoms: C_14  and  C_15
REMARK                            x       y       z     vdW  Elec       q    Type
REMARK                         _______ _______ _______ _____ _____    ______ ____
ROOT
ATOM      1  C   UNL     1      45.729   5.998  11.729  0.00  0.00    +0.000 A 
ATOM      2  C   UNL     1      44.987   4.964  11.128  0.00  0.00    +0.000 A 
ATOM      3  C   UNL     1      44.885   3.685  11.680  0.00  0.00    +0.000 A 
ATOM      4  C   UNL     1      45.573   3.397  12.859  0.00  0.00    +0.000 A 
ATOM      5  C   UNL     1      46.379   4.387  13.462  0.00  0.00    +0.000 A 
ATOM      6  C   UNL     1      47.191   4.367  14.626  0.00  0.00    +0.000 A 
ATOM      7  C   UNL     1      47.765   5.605  14.754  0.00  0.00    +0.000 A 
ATOM      8  N   UNL     1      47.330   6.394  13.710  0.00  0.00    +0.000 N 
ATOM      9  C   UNL     1      46.460   5.675  12.894  0.00  0.00    +0.000 A 
ENDROOT
BRANCH   3  10
ATOM     10  C   UNL     1      44.019   2.703  10.964  0.00  0.00    +0.000 C 
ATOM     11  N   UNL     1      44.438   2.196   9.766  0.00  0.00    +0.000 N 
ATOM     12  O   UNL     1      42.948   2.334  11.434  0.00  0.00    +0.000 OA
ATOM     13  H   UNL     1      45.300   2.428   9.302  0.00  0.00    +0.000 HD
ATOM     14  H   UNL     1      43.820   1.529   9.319  0.00  0.00    +0.000 HD
ENDBRANCH   3  10
BRANCH   1  16
ATOM     15  C   UNL     1      44.613   8.068  11.456  0.00  0.00    +0.000 C 
ATOM     16  O   UNL     1      45.776   7.269  11.204  0.00  0.00    +0.000 OA
ENDBRANCH   1  16
BRANCH   8  17
ATOM     17  C   UNL     1      47.732   7.795  13.590  0.00  0.00    +0.000 C 
BRANCH  17  18
ATOM     18  C   UNL     1      49.098   7.952  12.994  0.00  0.00    +0.000 A 
ATOM     19  C   UNL     1      49.355   7.729  11.655  0.00  0.00    +0.000 A 
ATOM     20  N   UNL     1      50.568   7.881  11.081  0.00  0.00    +0.000 NA
ATOM     21  C   UNL     1      51.556   8.261  11.902  0.00  0.00    +0.000 A 
ATOM     22  N   UNL     1      51.434   8.513  13.215  0.00  0.00    +0.000 NA
ATOM     23  C   UNL     1      50.197   8.352  13.730  0.00  0.00    +0.000 A 
ENDBRANCH  17  18
ENDBRANCH   8  17
TORSDOF 4
ENDMDL
MODEL 6
REMARK VINA RESULT:    -5.699      3.007      7.017
REMARK INTER + INTRA:          -7.454
REMARK INTER:                  -6.865
REMARK INTRA:                  -0.588
REMARK UNBOUND:                -0.422
REMARK  Name = 
REMARK  5 active torsions:
REMARK  status: ('A' for Active; 'I' for Inactive)
REMARK    1  A    between atoms: C_1  and  O_2
REMARK    2  A    between atoms: O_2  and  C_3
REMARK    3  A    between atoms: C_5  and  C_6
REMARK    4  A    between atoms: N_13  and  C_14
REMARK    5  A    between atoms: C_14  and  C_15
REMARK                            x       y       z     vdW  Elec       q    Type
REMARK                         _______ _______ _______ _____ _____    ______ ____
ROOT
ATOM      1  C   UNL     1      47.139   4.939  14.025  0.00  0.00    +0.000 A 
ATOM      2  C   UNL     1      46.035   4.216  13.535  0.00  0.00    +0.000 A 
ATOM      3  C   UNL     1      45.331   4.593  12.389  0.00  0.00    +0.000 A 
ATOM      4  C   UNL     1      45.706   5.754  11.712  0.00  0.00    +0.000 A 
ATOM      5  C   UNL     1      46.768   6.543  12.205  0.00  0.00    +0.000 A 
ATOM      6  C   UNL     1      47.337   7.759  11.744  0.00  0.00    +0.000 A 
ATOM      7  C   UNL     1      48.350   8.096  12.604  0.00  0.00    +0.000 A 
ATOM      8  N   UNL     1      48.432   7.124  13.579  0.00  0.00    +0.000 N 
ATOM      9  C   UNL     1      47.472   6.139  13.358  0.00  0.00    +0.000 A 
ENDROOT
BRANCH   3  10
ATOM     10  C   UNL     1      44.216   3.702  11.953  0.00  0.00    +0.000 C 
ATOM     11  N   UNL     1      44.091   2.466  12.520  0.00  0.00    +0.000 N 
ATOM     12  O   UNL     1      43.404   4.062  11.107  0.00  0.00    +0.000 OA
ATOM     13  H   UNL     1      44.698   2.082  13.226  0.00  0.00    +0.000 HD
ATOM     14  H   UNL     1      43.317   1.899  12.198  0.00  0.00    +0.000 HD
ENDBRANCH   3  10
BRANCH   1  16
ATOM     15  C   UNL     1      47.062   4.117  16.244  0.00  0.00    +0.000 C 
ATOM     16  O   UNL     1      47.858   4.527  15.124  0.00  0.00    +0.000 OA
ENDBRANCH   1  16
BRANCH   8  17
ATOM     17  C   UNL     1      49.452   7.174  14.626  0.00  0.00    +0.000 C 
BRANCH  17  18
ATOM     18  C   UNL     1      48.940   7.777  15.898  0.00  0.00    +0.000 A 
ATOM     19  C   UNL     1      49.017   7.127  17.114  0.00  0.00    +0.000 A 
ATOM     20  N   UNL     1      48.585   7.650  18.282  0.00  0.00    +0.000 NA
ATOM     21  C   UNL     1      48.045   8.873  18.207  0.00  0.00    +0.000 A 
ATOM     22  N   UNL     1      47.919   9.609  17.091  0.00  0.00    +0.000 NA
ATOM     23  C   UNL     1      48.375   9.038  15.957  0.00  0.00    +0.000 A 
ENDBRANCH  17  18
ENDBRANCH   8  17
TORSDOF 4
ENDMDL
MODEL 7
REMARK VINA RESULT:    -5.495      2.814      4.370
REMARK INTER + INTRA:          -7.202
REMARK INTER:                  -6.732
REMARK INTRA:                  -0.470
REMARK UNBOUND:                -0.422
REMARK  Name = 
REMARK  5 active torsions:
REMARK  status: ('A' for Active; 'I' for Inactive)
REMARK    1  A    between atoms: C_1  and  O_2
REMARK    2  A    between atoms: O_2  and  C_3
REMARK    3  A    between atoms: C_5  and  C_6
REMARK    4  A    between atoms: N_13  and  C_14
REMARK    5  A    between atoms: C_14  and  C_15
REMARK                            x       y       z     vdW  Elec       q    Type
REMARK                         _______ _______ _______ _____ _____    ______ ____
ROOT
ATOM      1  C   UNL     1      47.744   4.762  15.994  0.00  0.00    +0.000 A 
ATOM      2  C   UNL     1      48.523   5.352  17.007  0.00  0.00    +0.000 A 
ATOM      3  C   UNL     1      49.167   6.580  16.849  0.00  0.00    +0.000 A 
ATOM      4  C   UNL     1      49.071   7.245  15.626  0.00  0.00    +0.000 A 
ATOM      5  C   UNL     1      48.352   6.659  14.562  0.00  0.00    +0.000 A 
ATOM      6  C   UNL     1      48.112   7.090  13.231  0.00  0.00    +0.000 A 
ATOM      7  C   UNL     1      47.350   6.131  12.614  0.00  0.00    +0.000 A 
ATOM      8  N   UNL     1      47.104   5.124  13.523  0.00  0.00    +0.000 N 
ATOM      9  C   UNL     1      47.700   5.423  14.746  0.00  0.00    +0.000 A 
ENDROOT
BRANCH   3  10
ATOM     10  C   UNL     1      49.914   7.113  18.027  0.00  0.00    +0.000 C 
ATOM     11  N   UNL     1      49.756   6.510  19.242  0.00  0.00    +0.000 N 
ATOM     12  O   UNL     1      50.672   8.071  17.922  0.00  0.00    +0.000 OA
ATOM     13  H   UNL     1      49.166   5.716  19.430  0.00  0.00    +0.000 HD
ATOM     14  H   UNL     1      50.287   6.902  20.011  0.00  0.00    +0.000 HD
ENDBRANCH   3  10
BRANCH   1  16
ATOM     15  C   UNL     1      47.258   2.974  17.469  0.00  0.00    +0.000 C 
ATOM     16  O   UNL     1      47.070   3.576  16.181  0.00  0.00    +0.000 OA
ENDBRANCH   1  16
BRANCH   8  17
ATOM     17  C   UNL     1      46.272   3.970  13.181  0.00  0.00    +0.000 C 
BRANCH  17  18
ATOM     18  C   UNL     1      44.979   4.365  12.536  0.00  0.00    +0.000 A 
ATOM     19  C   UNL     1      44.731   4.178  11.190  0.00  0.00    +0.000 A 
ATOM     20  N   UNL     1      43.570   4.503  10.582  0.00  0.00    +0.000 NA
ATOM     21  C   UNL     1      42.634   5.050  11.369  0.00  0.00    +0.000 A 
ATOM     22  N   UNL     1      42.750   5.277  12.686  0.00  0.00    +0.000 NA
ATOM     23  C   UNL     1      43.929   4.925  13.241  0.00  0.00    +0.000 A 
ENDBRANCH  17  18
ENDBRANCH   8  17
TORSDOF 4
ENDMDL
MODEL 8
REMARK VINA RESULT:    -5.423      4.041      5.486
REMARK INTER + INTRA:          -7.113
REMARK INTER:                  -6.454
REMARK INTRA:                  -0.659
REMARK UNBOUND:                -0.422
REMARK  Name = 
REMARK  5 active torsions:
REMARK  status: ('A' for Active; 'I' for Inactive)
REMARK    1  A    between atoms: C_1  and  O_2
REMARK    2  A    between atoms: O_2  and  C_3
REMARK    3  A    between atoms: C_5  and  C_6
REMARK    4  A    between atoms: N_13  and  C_14
REMARK    5  A    between atoms: C_14  and  C_15
REMARK                            x       y       z     vdW  Elec       q    Type
REMARK                         _______ _______ _______ _____ _____    ______ ____
ROOT
ATOM      1  C   UNL     1      47.304   5.379  14.155  0.00  0.00    +0.000 A 
ATOM      2  C   UNL     1      47.094   4.486  15.222  0.00  0.00    +0.000 A 
ATOM      3  C   UNL     1      47.720   4.627  16.462  0.00  0.00    +0.000 A 
ATOM      4  C   UNL     1      48.622   5.675  16.653  0.00  0.00    +0.000 A 
ATOM      5  C   UNL     1      48.909   6.557  15.589  0.00  0.00    +0.000 A 
ATOM      6  C   UNL     1      49.782   7.673  15.493  0.00  0.00    +0.000 A 
ATOM      7  C   UNL     1      49.679   8.174  14.221  0.00  0.00    +0.000 A 
ATOM      8  N   UNL     1      48.765   7.409  13.528  0.00  0.00    +0.000 N 
ATOM      9  C   UNL     1      48.258   6.403  14.348  0.00  0.00    +0.000 A 
ENDROOT
BRANCH   3  10
ATOM     10  C   UNL     1      47.362   3.638  17.521  0.00  0.00    +0.000 C 
ATOM     11  N   UNL     1      48.111   3.584  18.662  0.00  0.00    +0.000 N 
ATOM     12  O   UNL     1      46.405   2.882  17.390  0.00  0.00    +0.000 OA
ATOM     13  H   UNL     1      48.907   4.164  18.867  0.00  0.00    +0.000 HD
ATOM     14  H   UNL     1      47.827   2.901  19.354  0.00  0.00    +0.000 HD
ENDBRANCH   3  10
BRANCH   1  16
ATOM     15  C   UNL     1      45.269   4.855  13.065  0.00  0.00    +0.000 C 
ATOM     16  O   UNL     1      46.640   5.261  12.956  0.00  0.00    +0.000 OA
ENDBRANCH   1  16
BRANCH   8  17
ATOM     17  C   UNL     1      48.398   7.720  12.146  0.00  0.00    +0.000 C 
BRANCH  17  18
ATOM     18  C   UNL     1      47.380   8.815  12.056  0.00  0.00    +0.000 A 
ATOM     19  C   UNL     1      47.719  10.126  11.784  0.00  0.00    +0.000 A 
ATOM     20  N   UNL     1      46.826  11.133  11.674  0.00  0.00    +0.000 NA
ATOM     21  C   UNL     1      45.543  10.795  11.862  0.00  0.00    +0.000 A 
ATOM     22  N   UNL     1      45.086   9.561  12.125  0.00  0.00    +0.000 NA
ATOM     23  C   UNL     1      46.024   8.595  12.214  0.00  0.00    +0.000 A 
ENDBRANCH  17  18
ENDBRANCH   8  17
TORSDOF 4
ENDMDL
MODEL 9
REMARK VINA RESULT:    -5.189      2.917      7.367
REMARK INTER + INTRA:          -6.825
REMARK INTER:                  -6.591
REMARK INTRA:                  -0.233
REMARK UNBOUND:                -0.422
REMARK  Name = 
REMARK  5 active torsions:
REMARK  status: ('A' for Active; 'I' for Inactive)
REMARK    1  A    between atoms: C_1  and  O_2
REMARK    2  A    between atoms: O_2  and  C_3
REMARK    3  A    between atoms: C_5  and  C_6
REMARK    4  A    between atoms: N_13  and  C_14
REMARK    5  A    between atoms: C_14  and  C_15
REMARK                            x       y       z     vdW  Elec       q    Type
REMARK                         _______ _______ _______ _____ _____    ______ ____
ROOT
ATOM      1  C   UNL     1      46.515   6.513  12.210  0.00  0.00    +0.000 A 
ATOM      2  C   UNL     1      45.609   5.871  11.345  0.00  0.00    +0.000 A 
ATOM      3  C   UNL     1      45.052   4.621  11.623  0.00  0.00    +0.000 A 
ATOM      4  C   UNL     1      45.429   3.954  12.788  0.00  0.00    +0.000 A 
ATOM      5  C   UNL     1      46.383   4.533  13.654  0.00  0.00    +0.000 A 
ATOM      6  C   UNL     1      46.956   4.080  14.870  0.00  0.00    +0.000 A 
ATOM      7  C   UNL     1      47.839   5.038  15.296  0.00  0.00    +0.000 A 
ATOM      8  N   UNL     1      47.825   6.074  14.386  0.00  0.00    +0.000 N 
ATOM      9  C   UNL     1      46.924   5.801  13.359  0.00  0.00    +0.000 A 
ENDROOT
BRANCH   3  10
ATOM     10  C   UNL     1      44.064   4.084  10.642  0.00  0.00    +0.000 C 
ATOM     11  N   UNL     1      43.979   4.654   9.403  0.00  0.00    +0.000 N 
ATOM     12  O   UNL     1      43.336   3.137  10.922  0.00  0.00    +0.000 OA
ATOM     13  H   UNL     1      44.534   5.427   9.075  0.00  0.00    +0.000 HD
ATOM     14  H   UNL     1      43.298   4.253   8.770  0.00  0.00    +0.000 HD
ENDBRANCH   3  10
BRANCH   1  16
ATOM     15  C   UNL     1      46.120   8.847  12.258  0.00  0.00    +0.000 C 
ATOM     16  O   UNL     1      47.014   7.769  11.951  0.00  0.00    +0.000 OA
ENDBRANCH   1  16
BRANCH   8  17
ATOM     17  C   UNL     1      48.632   7.278  14.585  0.00  0.00    +0.000 C 
BRANCH  17  18
ATOM     18  C   UNL     1      49.339   7.284  15.906  0.00  0.00    +0.000 A 
ATOM     19  C   UNL     1      50.637   6.838  16.057  0.00  0.00    +0.000 A 
ATOM     20  N   UNL     1      51.311   6.849  17.227  0.00  0.00    +0.000 NA
ATOM     21  C   UNL     1      50.634   7.320  18.283  0.00  0.00    +0.000 A 
ATOM     22  N   UNL     1      49.376   7.787  18.266  0.00  0.00    +0.000 NA
ATOM     23  C   UNL     1      48.756   7.758  17.067  0.00  0.00    +0.000 A 
ENDBRANCH  17  18
ENDBRANCH   8  17
TORSDOF 4
ENDMDL
