MODEL 1
REMARK VINA RESULT:    -7.182      0.000      0.000
REMARK INTER + INTRA:         -10.892
REMARK INTER:                  -9.702
REMARK INTRA:                  -1.190
REMARK UNBOUND:                -1.190
REMARK  Name = 
REMARK  7 active torsions:
REMARK  status: ('A' for Active; 'I' for Inactive)
REMARK    1  A    between atoms: C_1  and  C_2
REMARK    2  A    between atoms: C_2  and  N_3
REMARK    3  A    between atoms: C_2  and  C_16
REMARK    4  A    between atoms: C_4  and  C_6
REMARK    5  A    between atoms: C_19  and  C_20
REMARK    6  A    between atoms: C_20  and  N_21
REMARK    7  A    between atoms: C_22  and  C_24
REMARK                            x       y       z     vdW  Elec       q    Type
REMARK                         _______ _______ _______ _____ _____    ______ ____
ROOT
ATOM      1  C   UNL     1      49.058   7.729  11.371  0.00  0.00    +0.000 C 
ATOM      2  C   UNL     1      47.798   7.734  12.240  0.00  0.00    +0.000 C 
ENDROOT
BRANCH   2   3
ATOM      3  C   UNL     1      48.204   7.807  13.711  0.00  0.00    +0.000 A 
ATOM      4  C   UNL     1      47.965   8.961  14.470  0.00  0.00    +0.000 A 
ATOM      5  C   UNL     1      48.252   8.988  15.845  0.00  0.00    +0.000 A 
ATOM      6  C   UNL     1      48.794   7.864  16.490  0.00  0.00    +0.000 A 
ATOM      7  C   UNL     1      49.061   6.725  15.722  0.00  0.00    +0.000 A 
ATOM      8  C   UNL     1      48.786   6.704  14.352  0.00  0.00    +0.000 A 
BRANCH   6   9
ATOM      9  C   UNL     1      49.078   7.852  17.974  0.00  0.00    +0.000 C 
BRANCH   9  10
ATOM     10  N   UNL     1      49.369   6.528  18.480  0.00  0.00    +0.000 N 
ATOM     11  C   UNL     1      48.358   5.675  18.890  0.00  0.00    +0.000 C 
ATOM     12  O   UNL     1      47.172   5.984  18.880  0.00  0.00    +0.000 OA
ATOM     13  H   UNL     1      50.332   6.245  18.609  0.00  0.00    +0.000 HD
BRANCH  11  14
ATOM     14  C   UNL     1      48.899   4.295  19.341  0.00  0.00    +0.000 C 
ATOM     15  C   UNL     1      48.291   3.124  18.593  0.00  0.00    +0.000 C 
ATOM     16  C   UNL     1      49.085   3.081  17.301  0.00  0.00    +0.000 C 
ATOM     17  C   UNL     1      50.445   3.662  17.662  0.00  0.00    +0.000 C 
ATOM     18  N   UNL     1      50.344   4.185  19.032  0.00  0.00    +0.000 NA
ATOM     19  H   UNL     1      50.792   5.099  19.084  0.00  0.00    +0.000 HD
ENDBRANCH  11  14
ENDBRANCH   9  10
ENDBRANCH   6   9
ENDBRANCH   2   3
BRANCH   2  20
ATOM     20  N   UNL     1      46.972   6.553  12.023  0.00  0.00    +0.000 N 
ATOM     21  C   UNL     1      45.599   6.562  12.068  0.00  0.00    +0.000 C 
ATOM     22  O   UNL     1      44.943   7.576  12.290  0.00  0.00    +0.000 OA
ATOM     23  H   UNL     1      47.429   5.668  12.228  0.00  0.00    +0.000 HD
BRANCH  21  24
ATOM     24  C   UNL     1      44.939   5.284  11.779  0.00  0.00    +0.000 A 
ATOM     25  C   UNL     1      44.183   4.649  12.756  0.00  0.00    +0.000 A 
ATOM     26  S   UNL     1      43.522   3.160  12.243  0.00  0.00    +0.000 S 
ATOM     27  C   UNL     1      44.244   3.304  10.709  0.00  0.00    +0.000 A 
ATOM     28  N   UNL     1      44.118   2.322   9.774  0.00  0.00    +0.000 NA
ATOM     29  C   UNL     1      44.742   2.558   8.670  0.00  0.00    +0.000 A 
ATOM     30  N   UNL     1      45.465   3.689   8.401  0.00  0.00    +0.000 N 
ATOM     31  C   UNL     1      45.570   4.735   9.291  0.00  0.00    +0.000 A 
ATOM     32  O   UNL     1      46.134   5.773   8.979  0.00  0.00    +0.000 OA
ATOM     33  C   UNL     1      44.937   4.494  10.570  0.00  0.00    +0.000 A 
ATOM     34  H   UNL     1      45.902   3.832   7.503  0.00  0.00    +0.000 HD
ENDBRANCH  21  24
ENDBRANCH   2  20
TORSDOF 6
ENDMDL
MODEL 2
REMARK VINA RESULT:    -7.097      1.280      2.116
REMARK INTER + INTRA:         -10.776
REMARK INTER:                  -9.666
REMARK INTRA:                  -1.111
REMARK UNBOUND:                -1.190
REMARK  Name = 
REMARK  7 active torsions:
REMARK  status: ('A' for Active; 'I' for Inactive)
REMARK    1  A    between atoms: C_1  and  C_2
REMARK    2  A    between atoms: C_2  and  N_3
REMARK    3  A    between atoms: C_2  and  C_16
REMARK    4  A    between atoms: C_4  and  C_6
REMARK    5  A    between atoms: C_19  and  C_20
REMARK    6  A    between atoms: C_20  and  N_21
REMARK    7  A    between atoms: C_22  and  C_24
REMARK                            x       y       z     vdW  Elec       q    Type
REMARK                         _______ _______ _______ _____ _____    ______ ____
ROOT
ATOM      1  C   UNL     1      49.839   8.041  11.587  0.00  0.00    +0.000 C 
ATOM      2  C   UNL     1      48.402   8.008  12.113  0.00  0.00    +0.000 C 
ENDROOT
BRANCH   2   3
ATOM      3  C   UNL     1      48.428   7.895  13.636  0.00  0.00    +0.000 A 
ATOM      4  C   UNL     1      48.694   6.670  14.266  0.00  0.00    +0.000 A 
ATOM      5  C   UNL     1      48.813   6.593  15.663  0.00  0.00    +0.000 A 
ATOM      6  C   UNL     1      48.659   7.736  16.464  0.00  0.00    +0.000 A 
ATOM      7  C   UNL     1      48.362   8.950  15.835  0.00  0.00    +0.000 A 
ATOM      8  C   UNL     1      48.232   9.024  14.445  0.00  0.00    +0.000 A 
BRANCH   6   9
ATOM      9  C   UNL     1      48.818   7.688  17.966  0.00  0.00    +0.000 C 
BRANCH   9  10
ATOM     10  N   UNL     1      49.143   6.365  18.455  0.00  0.00    +0.000 N 
ATOM     11  C   UNL     1      48.153   5.451  18.774  0.00  0.00    +0.000 C 
ATOM     12  O   UNL     1      46.956   5.699  18.692  0.00  0.00    +0.000 OA
ATOM     13  H   UNL     1      50.109   6.128  18.641  0.00  0.00    +0.000 HD
BRANCH  11  14
ATOM     14  C   UNL     1      48.736   4.087  19.223  0.00  0.00    +0.000 C 
ATOM     15  C   UNL     1      48.213   2.906  18.429  0.00  0.00    +0.000 C 
ATOM     16  C   UNL     1      49.062   2.923  17.172  0.00  0.00    +0.000 C 
ATOM     17  C   UNL     1      50.378   3.555  17.603  0.00  0.00    +0.000 C 
ATOM     18  N   UNL     1      50.196   4.046  18.975  0.00  0.00    +0.000 NA
ATOM     19  H   UNL     1      50.600   4.978  19.063  0.00  0.00    +0.000 HD
ENDBRANCH  11  14
ENDBRANCH   9  10
ENDBRANCH   6   9
ENDBRANCH   2   3
BRANCH   2  20
ATOM     20  N   UNL     1      47.635   6.900  11.557  0.00  0.00    +0.000 N 
ATOM     21  C   UNL     1      46.268   6.909  11.422  0.00  0.00    +0.000 C 
ATOM     22  O   UNL     1      45.568   7.862  11.754  0.00  0.00    +0.000 OA
ATOM     23  H   UNL     1      48.079   5.989  11.639  0.00  0.00    +0.000 HD
BRANCH  21  24
ATOM     24  C   UNL     1      45.677   5.719  10.799  0.00  0.00    +0.000 A 
ATOM     25  C   UNL     1      45.790   5.515   9.430  0.00  0.00    +0.000 A 
ATOM     26  S   UNL     1      45.012   4.095   8.888  0.00  0.00    +0.000 S 
ATOM     27  C   UNL     1      44.479   3.720  10.460  0.00  0.00    +0.000 A 
ATOM     28  N   UNL     1      43.697   2.631  10.699  0.00  0.00    +0.000 NA
ATOM     29  C   UNL     1      43.347   2.491  11.933  0.00  0.00    +0.000 A 
ATOM     30  N   UNL     1      43.719   3.321  12.955  0.00  0.00    +0.000 N 
ATOM     31  C   UNL     1      44.557   4.399  12.772  0.00  0.00    +0.000 A 
ATOM     32  O   UNL     1      44.954   5.057  13.722  0.00  0.00    +0.000 OA
ATOM     33  C   UNL     1      44.930   4.636  11.394  0.00  0.00    +0.000 A 
ATOM     34  H   UNL     1      43.443   3.138  13.908  0.00  0.00    +0.000 HD
ENDBRANCH  21  24
ENDBRANCH   2  20
TORSDOF 6
ENDMDL
MODEL 3
REMARK VINA RESULT:    -6.968      3.561      8.988
REMARK INTER + INTRA:         -10.602
REMARK INTER:                  -9.583
REMARK INTRA:                  -1.019
REMARK UNBOUND:                -1.190
REMARK  Name = 
REMARK  7 active torsions:
REMARK  status: ('A' for Active; 'I' for Inactive)
REMARK    1  A    between atoms: C_1  and  C_2
REMARK    2  A    between atoms: C_2  and  N_3
REMARK    3  A    between atoms: C_2  and  C_16
REMARK    4  A    between atoms: C_4  and  C_6
REMARK    5  A    between atoms: C_19  and  C_20
REMARK    6  A    between atoms: C_20  and  N_21
REMARK    7  A    between atoms: C_22  and  C_24
REMARK                            x       y       z     vdW  Elec       q    Type
REMARK                         _______ _______ _______ _____ _____    ______ ____
ROOT
ATOM      1  C   UNL     1      47.466   2.860  17.407  0.00  0.00    +0.000 C 
ATOM      2  C   UNL     1      48.292   4.126  17.161  0.00  0.00    +0.000 C 
ENDROOT
BRANCH   2   3
ATOM      3  C   UNL     1      47.954   4.684  15.779  0.00  0.00    +0.000 A 
ATOM      4  C   UNL     1      47.175   3.950  14.874  0.00  0.00    +0.000 A 
ATOM      5  C   UNL     1      46.787   4.508  13.645  0.00  0.00    +0.000 A 
ATOM      6  C   UNL     1      47.178   5.808  13.288  0.00  0.00    +0.000 A 
ATOM      7  C   UNL     1      47.983   6.525  14.180  0.00  0.00    +0.000 A 
ATOM      8  C   UNL     1      48.379   5.965  15.398  0.00  0.00    +0.000 A 
BRANCH   6   9
ATOM      9  C   UNL     1      46.746   6.446  11.988  0.00  0.00    +0.000 C 
BRANCH   9  10
ATOM     10  N   UNL     1      45.764   5.658  11.274  0.00  0.00    +0.000 N 
ATOM     11  C   UNL     1      44.406   5.840  11.478  0.00  0.00    +0.000 C 
ATOM     12  O   UNL     1      43.949   6.645  12.281  0.00  0.00    +0.000 OA
ATOM     13  H   UNL     1      46.073   4.907  10.670  0.00  0.00    +0.000 HD
BRANCH  11  14
ATOM     14  C   UNL     1      43.548   4.926  10.568  0.00  0.00    +0.000 C 
ATOM     15  C   UNL     1      44.359   3.938   9.751  0.00  0.00    +0.000 C 
ATOM     16  C   UNL     1      44.630   2.811  10.730  0.00  0.00    +0.000 C 
ATOM     17  C   UNL     1      43.454   2.846  11.696  0.00  0.00    +0.000 C 
ATOM     18  N   UNL     1      42.676   4.054  11.390  0.00  0.00    +0.000 NA
ATOM     19  H   UNL     1      42.417   4.524  12.257  0.00  0.00    +0.000 HD
ENDBRANCH  11  14
ENDBRANCH   9  10
ENDBRANCH   6   9
ENDBRANCH   2   3
BRANCH   2  20
ATOM     20  N   UNL     1      49.725   3.876  17.247  0.00  0.00    +0.000 N 
ATOM     21  C   UNL     1      50.478   4.127  18.368  0.00  0.00    +0.000 C 
ATOM     22  O   UNL     1      50.004   4.580  19.407  0.00  0.00    +0.000 OA
ATOM     23  H   UNL     1      50.216   3.889  16.357  0.00  0.00    +0.000 HD
BRANCH  21  24
ATOM     24  C   UNL     1      51.898   3.769  18.281  0.00  0.00    +0.000 A 
ATOM     25  C   UNL     1      52.877   4.708  18.582  0.00  0.00    +0.000 A 
ATOM     26  S   UNL     1      54.468   4.116  18.391  0.00  0.00    +0.000 S 
ATOM     27  C   UNL     1      53.901   2.596  17.876  0.00  0.00    +0.000 A 
ATOM     28  N   UNL     1      54.762   1.612  17.496  0.00  0.00    +0.000 NA
ATOM     29  C   UNL     1      54.185   0.526  17.103  0.00  0.00    +0.000 A 
ATOM     30  N   UNL     1      52.833   0.320  17.072  0.00  0.00    +0.000 N 
ATOM     31  C   UNL     1      51.926   1.262  17.504  0.00  0.00    +0.000 A 
ATOM     32  O   UNL     1      50.732   1.007  17.562  0.00  0.00    +0.000 OA
ATOM     33  C   UNL     1      52.518   2.522  17.898  0.00  0.00    +0.000 A 
ATOM     34  H   UNL     1      52.443  -0.566  16.789  0.00  0.00    +0.000 HD
ENDBRANCH  21  24
ENDBRANCH   2  20
TORSDOF 6
ENDMDL
MODEL 4
REMARK VINA RESULT:    -6.871      4.957      7.940
REMARK INTER + INTRA:         -10.471
REMARK INTER:                  -9.344
REMARK INTRA:                  -1.127
REMARK UNBOUND:                -1.190
REMARK  Name = 
REMARK  7 active torsions:
REMARK  status: ('A' for Active; 'I' for Inactive)
REMARK    1  A    between atoms: C_1  and  C_2
REMARK    2  A    between atoms: C_2  and  N_3
REMARK    3  A    between atoms: C_2  and  C_16
REMARK    4  A    between atoms: C_4  and  C_6
REMARK    5  A    between atoms: C_19  and  C_20
REMARK    6  A    between atoms: C_20  and  N_21
REMARK    7  A    between atoms: C_22  and  C_24
REMARK                            x       y       z     vdW  Elec       q    Type
REMARK                         _______ _______ _______ _____ _____    ______ ____
ROOT
ATOM      1  C   UNL     1      50.978   9.378  12.614  0.00  0.00    +0.000 C 
ATOM      2  C   UNL     1      50.534   8.378  11.542  0.00  0.00    +0.000 C 
ENDROOT
BRANCH   2   3
ATOM      3  C   UNL     1      49.356   7.563  12.074  0.00  0.00    +0.000 A 
ATOM      4  C   UNL     1      49.344   7.085  13.391  0.00  0.00    +0.000 A 
ATOM      5  C   UNL     1      48.218   6.421  13.903  0.00  0.00    +0.000 A 
ATOM      6  C   UNL     1      47.081   6.210  13.106  0.00  0.00    +0.000 A 
ATOM      7  C   UNL     1      47.109   6.660  11.781  0.00  0.00    +0.000 A 
ATOM      8  C   UNL     1      48.236   7.310  11.269  0.00  0.00    +0.000 A 
BRANCH   6   9
ATOM      9  C   UNL     1      45.842   5.531  13.641  0.00  0.00    +0.000 C 
BRANCH   9  10
ATOM     10  N   UNL     1      44.915   5.147  12.597  0.00  0.00    +0.000 N 
ATOM     11  C   UNL     1      44.708   3.818  12.270  0.00  0.00    +0.000 C 
ATOM     12  O   UNL     1      45.301   2.892  12.810  0.00  0.00    +0.000 OA
ATOM     13  H   UNL     1      44.466   5.865  12.043  0.00  0.00    +0.000 HD
BRANCH  11  14
ATOM     14  C   UNL     1      43.636   3.645  11.165  0.00  0.00    +0.000 C 
ATOM     15  C   UNL     1      43.773   4.629  10.019  0.00  0.00    +0.000 C 
ATOM     16  C   UNL     1      44.854   4.011   9.152  0.00  0.00    +0.000 C 
ATOM     17  C   UNL     1      44.744   2.514   9.404  0.00  0.00    +0.000 C 
ATOM     18  N   UNL     1      43.788   2.328  10.504  0.00  0.00    +0.000 NA
ATOM     19  H   UNL     1      44.151   1.638  11.161  0.00  0.00    +0.000 HD
ENDBRANCH  11  14
ENDBRANCH   9  10
ENDBRANCH   6   9
ENDBRANCH   2   3
BRANCH   2  20
ATOM     20  N   UNL     1      51.610   7.477  11.148  0.00  0.00    +0.000 N 
ATOM     21  C   UNL     1      52.505   7.750  10.142  0.00  0.00    +0.000 C 
ATOM     22  O   UNL     1      52.481   8.789   9.488  0.00  0.00    +0.000 OA
ATOM     23  H   UNL     1      51.444   6.496  11.356  0.00  0.00    +0.000 HD
BRANCH  21  24
ATOM     24  C   UNL     1      53.546   6.742   9.919  0.00  0.00    +0.000 A 
ATOM     25  C   UNL     1      54.495   6.484  10.900  0.00  0.00    +0.000 A 
ATOM     26  S   UNL     1      55.641   5.303  10.444  0.00  0.00    +0.000 S 
ATOM     27  C   UNL     1      54.923   5.116   8.913  0.00  0.00    +0.000 A 
ATOM     28  N   UNL     1      55.452   4.275   7.982  0.00  0.00    +0.000 NA
ATOM     29  C   UNL     1      54.817   4.259   6.859  0.00  0.00    +0.000 A 
ATOM     30  N   UNL     1      53.692   4.987   6.582  0.00  0.00    +0.000 N 
ATOM     31  C   UNL     1      53.086   5.805   7.510  0.00  0.00    +0.000 A 
ATOM     32  O   UNL     1      52.025   6.359   7.265  0.00  0.00    +0.000 OA
ATOM     33  C   UNL     1      53.795   5.904   8.768  0.00  0.00    +0.000 A 
ATOM     34  H   UNL     1      53.218   4.905   5.695  0.00  0.00    +0.000 HD
ENDBRANCH  21  24
ENDBRANCH   2  20
TORSDOF 6
ENDMDL
MODEL 5
REMARK VINA RESULT:    -6.746      3.025      9.074
REMARK INTER + INTRA:         -10.302
REMARK INTER:                  -9.074
REMARK INTRA:                  -1.228
REMARK UNBOUND:                -1.190
REMARK  Name = 
REMARK  7 active torsions:
REMARK  status: ('A' for Active; 'I' for Inactive)
REMARK    1  A    between atoms: C_1  and  C_2
REMARK    2  A    between atoms: C_2  and  N_3
REMARK    3  A    between atoms: C_2  and  C_16
REMARK    4  A    between atoms: C_4  and  C_6
REMARK    5  A    between atoms: C_19  and  C_20
REMARK    6  A    between atoms: C_20  and  N_21
REMARK    7  A    between atoms: C_22  and  C_24
REMARK                            x       y       z     vdW  Elec       q    Type
REMARK                         _______ _______ _______ _____ _____    ______ ____
ROOT
ATOM      1  C   UNL     1      47.867   2.922  15.465  0.00  0.00    +0.000 C 
ATOM      2  C   UNL     1      47.097   4.229  15.678  0.00  0.00    +0.000 C 
ENDROOT
BRANCH   2   3
ATOM      3  C   UNL     1      46.722   4.817  14.319  0.00  0.00    +0.000 A 
ATOM      4  C   UNL     1      47.346   5.976  13.836  0.00  0.00    +0.000 A 
ATOM      5  C   UNL     1      47.067   6.456  12.546  0.00  0.00    +0.000 A 
ATOM      6  C   UNL     1      46.150   5.794  11.713  0.00  0.00    +0.000 A 
ATOM      7  C   UNL     1      45.506   4.657  12.211  0.00  0.00    +0.000 A 
ATOM      8  C   UNL     1      45.775   4.187  13.500  0.00  0.00    +0.000 A 
BRANCH   6   9
ATOM      9  C   UNL     1      45.858   6.268  10.308  0.00  0.00    +0.000 C 
BRANCH   9  10
ATOM     10  N   UNL     1      45.239   5.248   9.488  0.00  0.00    +0.000 N 
ATOM     11  C   UNL     1      45.869   4.749   8.361  0.00  0.00    +0.000 C 
ATOM     12  O   UNL     1      46.960   5.145   7.969  0.00  0.00    +0.000 OA
ATOM     13  H   UNL     1      44.296   4.947   9.698  0.00  0.00    +0.000 HD
BRANCH  11  14
ATOM     14  C   UNL     1      45.045   3.630   7.674  0.00  0.00    +0.000 C 
ATOM     15  C   UNL     1      45.891   2.615   6.929  0.00  0.00    +0.000 C 
ATOM     16  C   UNL     1      46.363   1.679   8.025  0.00  0.00    +0.000 C 
ATOM     17  C   UNL     1      45.273   1.743   9.086  0.00  0.00    +0.000 C 
ATOM     18  N   UNL     1      44.345   2.811   8.691  0.00  0.00    +0.000 NA
ATOM     19  H   UNL     1      44.107   3.377   9.505  0.00  0.00    +0.000 HD
ENDBRANCH  11  14
ENDBRANCH   9  10
ENDBRANCH   6   9
ENDBRANCH   2   3
BRANCH   2  20
ATOM     20  N   UNL     1      47.869   5.207  16.434  0.00  0.00    +0.000 N 
ATOM     21  C   UNL     1      47.638   5.507  17.755  0.00  0.00    +0.000 C 
ATOM     22  O   UNL     1      46.758   4.967  18.420  0.00  0.00    +0.000 OA
ATOM     23  H   UNL     1      48.309   5.932  15.873  0.00  0.00    +0.000 HD
BRANCH  21  24
ATOM     24  C   UNL     1      48.547   6.487  18.359  0.00  0.00    +0.000 A 
ATOM     25  C   UNL     1      48.047   7.510  19.155  0.00  0.00    +0.000 A 
ATOM     26  S   UNL     1      49.254   8.567  19.740  0.00  0.00    +0.000 S 
ATOM     27  C   UNL     1      50.480   7.707  18.931  0.00  0.00    +0.000 A 
ATOM     28  N   UNL     1      51.776   8.120  18.971  0.00  0.00    +0.000 NA
ATOM     29  C   UNL     1      52.588   7.385  18.288  0.00  0.00    +0.000 A 
ATOM     30  N   UNL     1      52.233   6.267  17.583  0.00  0.00    +0.000 N 
ATOM     31  C   UNL     1      50.945   5.778  17.562  0.00  0.00    +0.000 A 
ATOM     32  O   UNL     1      50.683   4.719  17.010  0.00  0.00    +0.000 OA
ATOM     33  C   UNL     1      49.984   6.600  18.265  0.00  0.00    +0.000 A 
ATOM     34  H   UNL     1      52.920   5.713  17.096  0.00  0.00    +0.000 HD
ENDBRANCH  21  24
ENDBRANCH   2  20
TORSDOF 6
ENDMDL
MODEL 6
REMARK VINA RESULT:    -6.530      5.115      8.048
REMARK INTER + INTRA:         -10.010
REMARK INTER:                  -8.910
REMARK INTRA:                  -1.100
REMARK UNBOUND:                -1.190
REMARK  Name = 
REMARK  7 active torsions:
REMARK  status: ('A' for Active; 'I' for Inactive)
REMARK    1  A    between atoms: C_1  and  C_2
REMARK    2  A    between atoms: C_2  and  N_3
REMARK    3  A    between atoms: C_2  and  C_16
REMARK    4  A    between atoms: C_4  and  C_6
REMARK    5  A    between atoms: C_19  and  C_20
REMARK    6  A    between atoms: C_20  and  N_21
REMARK    7  A    between atoms: C_22  and  C_24
REMARK                            x       y       z     vdW  Elec       q    Type
REMARK                         _______ _______ _______ _____ _____    ______ ____
ROOT
ATOM      1  C   UNL     1      52.014   8.369  12.760  0.00  0.00    +0.000 C 
ATOM      2  C   UNL     1      51.217   9.002  11.616  0.00  0.00    +0.000 C 
ENDROOT
BRANCH   2   3
ATOM      3  C   UNL     1      49.735   8.682  11.799  0.00  0.00    +0.000 A 
ATOM      4  C   UNL     1      49.297   7.362  11.982  0.00  0.00    +0.000 A 
ATOM      5  C   UNL     1      47.947   7.084  12.248  0.00  0.00    +0.000 A 
ATOM      6  C   UNL     1      47.000   8.119  12.326  0.00  0.00    +0.000 A 
ATOM      7  C   UNL     1      47.434   9.431  12.111  0.00  0.00    +0.000 A 
ATOM      8  C   UNL     1      48.777   9.705  11.835  0.00  0.00    +0.000 A 
BRANCH   6   9
ATOM      9  C   UNL     1      45.548   7.852  12.646  0.00  0.00    +0.000 C 
BRANCH   9  10
ATOM     10  N   UNL     1      44.915   6.966  11.692  0.00  0.00    +0.000 N 
ATOM     11  C   UNL     1      44.084   5.938  12.104  0.00  0.00    +0.000 C 
ATOM     12  O   UNL     1      43.849   5.694  13.281  0.00  0.00    +0.000 OA
ATOM     13  H   UNL     1      45.143   7.048  10.709  0.00  0.00    +0.000 HD
BRANCH  11  14
ATOM     14  C   UNL     1      43.479   5.157  10.910  0.00  0.00    +0.000 C 
ATOM     15  C   UNL     1      44.515   4.476  10.035  0.00  0.00    +0.000 C 
ATOM     16  C   UNL     1      44.829   3.199  10.791  0.00  0.00    +0.000 C 
ATOM     17  C   UNL     1      43.555   2.882  11.562  0.00  0.00    +0.000 C 
ATOM     18  N   UNL     1      42.652   4.029  11.400  0.00  0.00    +0.000 NA
ATOM     19  H   UNL     1      42.228   4.261  12.298  0.00  0.00    +0.000 HD
ENDBRANCH  11  14
ENDBRANCH   9  10
ENDBRANCH   6   9
ENDBRANCH   2   3
BRANCH   2  20
ATOM     20  N   UNL     1      51.658   8.529  10.309  0.00  0.00    +0.000 N 
ATOM     21  C   UNL     1      52.726   9.058   9.626  0.00  0.00    +0.000 C 
ATOM     22  O   UNL     1      53.413   9.977  10.064  0.00  0.00    +0.000 OA
ATOM     23  H   UNL     1      50.936   8.083   9.750  0.00  0.00    +0.000 HD
BRANCH  21  24
ATOM     24  C   UNL     1      53.046   8.423   8.343  0.00  0.00    +0.000 A 
ATOM     25  C   UNL     1      53.026   9.164   7.169  0.00  0.00    +0.000 A 
ATOM     26  S   UNL     1      53.393   8.244   5.778  0.00  0.00    +0.000 S 
ATOM     27  C   UNL     1      53.567   6.821   6.695  0.00  0.00    +0.000 A 
ATOM     28  N   UNL     1      53.836   5.626   6.102  0.00  0.00    +0.000 NA
ATOM     29  C   UNL     1      53.912   4.632   6.922  0.00  0.00    +0.000 A 
ATOM     30  N   UNL     1      53.764   4.719   8.279  0.00  0.00    +0.000 N 
ATOM     31  C   UNL     1      53.551   5.915   8.930  0.00  0.00    +0.000 A 
ATOM     32  O   UNL     1      53.529   5.972  10.151  0.00  0.00    +0.000 OA
ATOM     33  C   UNL     1      53.398   7.053   8.050  0.00  0.00    +0.000 A 
ATOM     34  H   UNL     1      53.870   3.910   8.872  0.00  0.00    +0.000 HD
ENDBRANCH  21  24
ENDBRANCH   2  20
TORSDOF 6
ENDMDL
MODEL 7
REMARK VINA RESULT:    -6.389      3.655      5.156
REMARK INTER + INTRA:          -9.821
REMARK INTER:                  -8.798
REMARK INTRA:                  -1.023
REMARK UNBOUND:                -1.190
REMARK  Name = 
REMARK  7 active torsions:
REMARK  status: ('A' for Active; 'I' for Inactive)
REMARK    1  A    between atoms: C_1  and  C_2
REMARK    2  A    between atoms: C_2  and  N_3
REMARK    3  A    between atoms: C_2  and  C_16
REMARK    4  A    between atoms: C_4  and  C_6
REMARK    5  A    between atoms: C_19  and  C_20
REMARK    6  A    between atoms: C_20  and  N_21
REMARK    7  A    between atoms: C_22  and  C_24
REMARK                            x       y       z     vdW  Elec       q    Type
REMARK                         _______ _______ _______ _____ _____    ______ ____
ROOT
ATOM      1  C   UNL     1      46.792   3.270  17.768  0.00  0.00    +0.000 C 
ATOM      2  C   UNL     1      47.624   3.472  16.498  0.00  0.00    +0.000 C 
ENDROOT
BRANCH   2   3
ATOM      3  C   UNL     1      48.998   4.020  16.881  0.00  0.00    +0.000 A 
ATOM      4  C   UNL     1      50.019   3.167  17.320  0.00  0.00    +0.000 A 
ATOM      5  C   UNL     1      51.308   3.663  17.576  0.00  0.00    +0.000 A 
ATOM      6  C   UNL     1      51.601   5.026  17.410  0.00  0.00    +0.000 A 
ATOM      7  C   UNL     1      50.571   5.880  17.003  0.00  0.00    +0.000 A 
ATOM      8  C   UNL     1      49.286   5.387  16.759  0.00  0.00    +0.000 A 
BRANCH   6   9
ATOM      9  C   UNL     1      52.987   5.581  17.643  0.00  0.00    +0.000 C 
BRANCH   9  10
ATOM     10  N   UNL     1      54.023   4.576  17.526  0.00  0.00    +0.000 N 
ATOM     11  C   UNL     1      54.670   4.074  18.642  0.00  0.00    +0.000 C 
ATOM     12  O   UNL     1      54.438   4.456  19.783  0.00  0.00    +0.000 OA
ATOM     13  H   UNL     1      54.334   4.289  16.607  0.00  0.00    +0.000 HD
BRANCH  11  14
ATOM     14  C   UNL     1      55.699   2.973  18.279  0.00  0.00    +0.000 C 
ATOM     15  C   UNL     1      55.728   1.815  19.259  0.00  0.00    +0.000 C 
ATOM     16  C   UNL     1      54.559   0.954  18.819  0.00  0.00    +0.000 C 
ATOM     17  C   UNL     1      54.417   1.224  17.328  0.00  0.00    +0.000 C 
ATOM     18  N   UNL     1      55.329   2.328  16.998  0.00  0.00    +0.000 NA
ATOM     19  H   UNL     1      54.856   2.992  16.386  0.00  0.00    +0.000 HD
ENDBRANCH  11  14
ENDBRANCH   9  10
ENDBRANCH   6   9
ENDBRANCH   2   3
BRANCH   2  20
ATOM     20  N   UNL     1      46.983   4.382  15.557  0.00  0.00    +0.000 N 
ATOM     21  C   UNL     1      46.963   4.185  14.198  0.00  0.00    +0.000 C 
ATOM     22  O   UNL     1      47.480   3.214  13.654  0.00  0.00    +0.000 OA
ATOM     23  H   UNL     1      46.900   5.343  15.880  0.00  0.00    +0.000 HD
BRANCH  21  24
ATOM     24  C   UNL     1      46.230   5.187  13.415  0.00  0.00    +0.000 A 
ATOM     25  C   UNL     1      46.727   6.477  13.288  0.00  0.00    +0.000 A 
ATOM     26  S   UNL     1      45.720   7.506  12.368  0.00  0.00    +0.000 S 
ATOM     27  C   UNL     1      44.576   6.268  12.132  0.00  0.00    +0.000 A 
ATOM     28  N   UNL     1      43.417   6.497  11.456  0.00  0.00    +0.000 NA
ATOM     29  C   UNL     1      42.635   5.473  11.382  0.00  0.00    +0.000 A 
ATOM     30  N   UNL     1      42.908   4.237  11.901  0.00  0.00    +0.000 N 
ATOM     31  C   UNL     1      44.092   3.941  12.539  0.00  0.00    +0.000 A 
ATOM     32  O   UNL     1      44.348   2.801  12.897  0.00  0.00    +0.000 OA
ATOM     33  C   UNL     1      44.979   5.073  12.702  0.00  0.00    +0.000 A 
ATOM     34  H   UNL     1      42.271   3.464  11.779  0.00  0.00    +0.000 HD
ENDBRANCH  21  24
ENDBRANCH   2  20
TORSDOF 6
ENDMDL
MODEL 8
REMARK VINA RESULT:    -6.331      3.078      7.960
REMARK INTER + INTRA:          -9.742
REMARK INTER:                  -8.384
REMARK INTRA:                  -1.357
REMARK UNBOUND:                -1.190
REMARK  Name = 
REMARK  7 active torsions:
REMARK  status: ('A' for Active; 'I' for Inactive)
REMARK    1  A    between atoms: C_1  and  C_2
REMARK    2  A    between atoms: C_2  and  N_3
REMARK    3  A    between atoms: C_2  and  C_16
REMARK    4  A    between atoms: C_4  and  C_6
REMARK    5  A    between atoms: C_19  and  C_20
REMARK    6  A    between atoms: C_20  and  N_21
REMARK    7  A    between atoms: C_22  and  C_24
REMARK                            x       y       z     vdW  Elec       q    Type
REMARK                         _______ _______ _______ _____ _____    ______ ____
ROOT
ATOM      1  C   UNL     1      50.059  10.293  14.073  0.00  0.00    +0.000 C 
ATOM      2  C   UNL     1      49.778   8.789  14.010  0.00  0.00    +0.000 C 
ENDROOT
BRANCH   2   3
ATOM      3  C   UNL     1      48.400   8.562  13.391  0.00  0.00    +0.000 A 
ATOM      4  C   UNL     1      47.665   9.627  12.853  0.00  0.00    +0.000 A 
ATOM      5  C   UNL     1      46.444   9.398  12.199  0.00  0.00    +0.000 A 
ATOM      6  C   UNL     1      45.924   8.099  12.078  0.00  0.00    +0.000 A 
ATOM      7  C   UNL     1      46.645   7.042  12.644  0.00  0.00    +0.000 A 
ATOM      8  C   UNL     1      47.855   7.273  13.305  0.00  0.00    +0.000 A 
BRANCH   6   9
ATOM      9  C   UNL     1      44.631   7.819  11.348  0.00  0.00    +0.000 C 
BRANCH   9  10
ATOM     10  N   UNL     1      44.521   6.445  10.904  0.00  0.00    +0.000 N 
ATOM     11  C   UNL     1      43.373   5.705  11.128  0.00  0.00    +0.000 C 
ATOM     12  O   UNL     1      42.398   6.140  11.729  0.00  0.00    +0.000 OA
ATOM     13  H   UNL     1      45.325   5.991  10.490  0.00  0.00    +0.000 HD
BRANCH  11  14
ATOM     14  C   UNL     1      43.463   4.283  10.519  0.00  0.00    +0.000 C 
ATOM     15  C   UNL     1      44.877   3.740  10.436  0.00  0.00    +0.000 C 
ATOM     16  C   UNL     1      45.137   3.222  11.838  0.00  0.00    +0.000 C 
ATOM     17  C   UNL     1      43.764   2.838  12.370  0.00  0.00    +0.000 C 
ATOM     18  N   UNL     1      42.773   3.305  11.392  0.00  0.00    +0.000 NA
ATOM     19  H   UNL     1      41.994   3.748  11.879  0.00  0.00    +0.000 HD
ENDBRANCH  11  14
ENDBRANCH   9  10
ENDBRANCH   6   9
ENDBRANCH   2   3
BRANCH   2  20
ATOM     20  N   UNL     1      49.830   8.161  15.325  0.00  0.00    +0.000 N 
ATOM     21  C   UNL     1      50.938   7.519  15.821  0.00  0.00    +0.000 C 
ATOM     22  O   UNL     1      51.992   7.422  15.199  0.00  0.00    +0.000 OA
ATOM     23  H   UNL     1      48.929   7.868  15.694  0.00  0.00    +0.000 HD
BRANCH  21  24
ATOM     24  C   UNL     1      50.815   6.987  17.183  0.00  0.00    +0.000 A 
ATOM     25  C   UNL     1      51.623   7.475  18.202  0.00  0.00    +0.000 A 
ATOM     26  S   UNL     1      51.356   6.711  19.706  0.00  0.00    +0.000 S 
ATOM     27  C   UNL     1      50.170   5.688  19.040  0.00  0.00    +0.000 A 
ATOM     28  N   UNL     1      49.558   4.732  19.792  0.00  0.00    +0.000 NA
ATOM     29  C   UNL     1      48.703   4.015  19.144  0.00  0.00    +0.000 A 
ATOM     30  N   UNL     1      48.385   4.172  17.822  0.00  0.00    +0.000 N 
ATOM     31  C   UNL     1      48.932   5.163  17.038  0.00  0.00    +0.000 A 
ATOM     32  O   UNL     1      48.549   5.343  15.891  0.00  0.00    +0.000 OA
ATOM     33  C   UNL     1      49.943   5.958  17.701  0.00  0.00    +0.000 A 
ATOM     34  H   UNL     1      47.680   3.602  17.380  0.00  0.00    +0.000 HD
ENDBRANCH  21  24
ENDBRANCH   2  20
TORSDOF 6
ENDMDL
MODEL 9
REMARK VINA RESULT:    -6.318      4.095      6.274
REMARK INTER + INTRA:          -9.724
REMARK INTER:                  -8.750
REMARK INTRA:                  -0.974
REMARK UNBOUND:                -1.190
REMARK  Name = 
REMARK  7 active torsions:
REMARK  status: ('A' for Active; 'I' for Inactive)
REMARK    1  A    between atoms: C_1  and  C_2
REMARK    2  A    between atoms: C_2  and  N_3
REMARK    3  A    between atoms: C_2  and  C_16
REMARK    4  A    between atoms: C_4  and  C_6
REMARK    5  A    between atoms: C_19  and  C_20
REMARK    6  A    between atoms: C_20  and  N_21
REMARK    7  A    between atoms: C_22  and  C_24
REMARK                            x       y       z     vdW  Elec       q    Type
REMARK                         _______ _______ _______ _____ _____    ______ ____
ROOT
ATOM      1  C   UNL     1      45.275   9.393  12.504  0.00  0.00    +0.000 C 
ATOM      2  C   UNL     1      46.105   8.138  12.792  0.00  0.00    +0.000 C 
ENDROOT
BRANCH   2   3
ATOM      3  C   UNL     1      47.519   8.338  12.251  0.00  0.00    +0.000 A 
ATOM      4  C   UNL     1      47.956   9.596  11.814  0.00  0.00    +0.000 A 
ATOM      5  C   UNL     1      49.286   9.794  11.410  0.00  0.00    +0.000 A 
ATOM      6  C   UNL     1      50.208   8.735  11.423  0.00  0.00    +0.000 A 
ATOM      7  C   UNL     1      49.761   7.473  11.829  0.00  0.00    +0.000 A 
ATOM      8  C   UNL     1      48.434   7.275  12.220  0.00  0.00    +0.000 A 
BRANCH   6   9
ATOM      9  C   UNL     1      51.654   8.927  11.028  0.00  0.00    +0.000 C 
BRANCH   9  10
ATOM     10  N   UNL     1      52.065   8.048   9.955  0.00  0.00    +0.000 N 
ATOM     11  C   UNL     1      53.175   7.229  10.079  0.00  0.00    +0.000 C 
ATOM     12  O   UNL     1      53.890   7.211  11.074  0.00  0.00    +0.000 OA
ATOM     13  H   UNL     1      51.579   8.085   9.068  0.00  0.00    +0.000 HD
BRANCH  11  14
ATOM     14  C   UNL     1      53.391   6.338   8.829  0.00  0.00    +0.000 C 
ATOM     15  C   UNL     1      52.722   6.868   7.576  0.00  0.00    +0.000 C 
ATOM     16  C   UNL     1      53.698   7.915   7.073  0.00  0.00    +0.000 C 
ATOM     17  C   UNL     1      55.059   7.445   7.565  0.00  0.00    +0.000 C 
ATOM     18  N   UNL     1      54.826   6.306   8.463  0.00  0.00    +0.000 NA
ATOM     19  H   UNL     1      55.409   6.400   9.294  0.00  0.00    +0.000 HD
ENDBRANCH  11  14
ENDBRANCH   9  10
ENDBRANCH   6   9
ENDBRANCH   2   3
BRANCH   2  20
ATOM     20  N   UNL     1      45.522   6.942  12.198  0.00  0.00    +0.000 N 
ATOM     21  C   UNL     1      45.524   5.709  12.805  0.00  0.00    +0.000 C 
ATOM     22  O   UNL     1      46.015   5.508  13.913  0.00  0.00    +0.000 OA
ATOM     23  H   UNL     1      45.471   6.949  11.183  0.00  0.00    +0.000 HD
BRANCH  21  24
ATOM     24  C   UNL     1      44.850   4.632  12.072  0.00  0.00    +0.000 A 
ATOM     25  C   UNL     1      44.013   3.746  12.739  0.00  0.00    +0.000 A 
ATOM     26  S   UNL     1      43.347   2.545  11.725  0.00  0.00    +0.000 S 
ATOM     27  C   UNL     1      44.174   3.153  10.367  0.00  0.00    +0.000 A 
ATOM     28  N   UNL     1      44.084   2.543   9.153  0.00  0.00    +0.000 NA
ATOM     29  C   UNL     1      44.788   3.100   8.226  0.00  0.00    +0.000 A 
ATOM     30  N   UNL     1      45.557   4.220   8.389  0.00  0.00    +0.000 N 
ATOM     31  C   UNL     1      45.631   4.906   9.581  0.00  0.00    +0.000 A 
ATOM     32  O   UNL     1      46.244   5.961   9.664  0.00  0.00    +0.000 OA
ATOM     33  C   UNL     1      44.907   4.287  10.670  0.00  0.00    +0.000 A 
ATOM     34  H   UNL     1      46.057   4.631   7.615  0.00  0.00    +0.000 HD
ENDBRANCH  21  24
ENDBRANCH   2  20
TORSDOF 6
ENDMDL
