MODEL 1
REMARK VINA RESULT:    -8.543      0.000      0.000
REMARK INTER + INTRA:         -12.021
REMARK INTER:                 -11.040
REMARK INTRA:                  -0.981
REMARK UNBOUND:                -0.981
REMARK  Name = 
REMARK  6 active torsions:
REMARK  status: ('A' for Active; 'I' for Inactive)
REMARK    1  A    between atoms: C_1  and  C_2
REMARK    2  A    between atoms: C_7  and  C_8
REMARK    3  A    between atoms: N_10  and  C_11
REMARK    4  A    between atoms: C_11  and  C_12
REMARK    5  A    between atoms: C_15  and  C_16
REMARK    6  A    between atoms: C_16  and  C_17
REMARK                            x       y       z     vdW  Elec       q    Type
REMARK                         _______ _______ _______ _____ _____    ______ ____
ROOT
ATOM      1  C   UNL     1      47.149   5.396  14.121  0.00  0.00    +0.000 C 
ATOM      2  O   UNL     1      47.200   4.182  14.313  0.00  0.00    +0.000 OA
ATOM      3  N   UNL     1      46.020   5.987  13.617  0.00  0.00    +0.000 N 
ATOM      4  H   UNL     1      45.973   6.991  13.473  0.00  0.00    +0.000 HD
ENDROOT
BRANCH   1  11
ATOM      5  C   UNL     1      51.714   9.973  11.836  0.00  0.00    +0.000 C 
ATOM      6  C   UNL     1      50.816   8.996  12.536  0.00  0.00    +0.000 A 
ATOM      7  N   UNL     1      50.979   8.705  13.787  0.00  0.00    +0.000 NA
ATOM      8  C   UNL     1      50.089   7.801  14.281  0.00  0.00    +0.000 A 
ATOM      9  S   UNL     1      50.165   7.308  15.907  0.00  0.00    +0.000 S 
ATOM     10  C   UNL     1      48.831   6.266  15.709  0.00  0.00    +0.000 A 
ATOM     11  C   UNL     1      48.301   6.263  14.423  0.00  0.00    +0.000 A 
ATOM     12  C   UNL     1      49.057   7.182  13.596  0.00  0.00    +0.000 A 
ATOM     13  C   UNL     1      48.912   7.546  12.201  0.00  0.00    +0.000 A 
ATOM     14  O   UNL     1      48.047   7.102  11.453  0.00  0.00    +0.000 OA
ATOM     15  N   UNL     1      49.834   8.456  11.743  0.00  0.00    +0.000 N 
ATOM     16  H   UNL     1      49.744   8.716  10.773  0.00  0.00    +0.000 HD
ENDBRANCH   1  11
BRANCH   3  17
ATOM     17  C   UNL     1      44.845   5.217  13.291  0.00  0.00    +0.000 C 
BRANCH  17  18
ATOM     18  C   UNL     1      44.840   4.787  11.847  0.00  0.00    +0.000 A 
ATOM     19  C   UNL     1      44.188   3.612  11.450  0.00  0.00    +0.000 A 
ATOM     20  C   UNL     1      44.170   3.224  10.106  0.00  0.00    +0.000 A 
ATOM     21  C   UNL     1      44.816   3.997   9.132  0.00  0.00    +0.000 A 
ATOM     22  C   UNL     1      45.489   5.159   9.534  0.00  0.00    +0.000 A 
ATOM     23  C   UNL     1      45.507   5.546  10.877  0.00  0.00    +0.000 A 
BRANCH  21  24
ATOM     24  C   UNL     1      44.748   3.622   7.667  0.00  0.00    +0.000 C 
BRANCH  24  25
ATOM     25  C   UNL     1      45.978   2.885   7.193  0.00  0.00    +0.000 A 
ATOM     26  C   UNL     1      46.666   3.300   6.049  0.00  0.00    +0.000 A 
ATOM     27  C   UNL     1      47.744   2.547   5.609  0.00  0.00    +0.000 A 
ATOM     28  N   UNL     1      48.184   1.431   6.227  0.00  0.00    +0.000 NA
ATOM     29  C   UNL     1      47.512   1.050   7.333  0.00  0.00    +0.000 A 
ATOM     30  C   UNL     1      46.421   1.733   7.850  0.00  0.00    +0.000 A 
ENDBRANCH  24  25
ENDBRANCH  21  24
ENDBRANCH  17  18
ENDBRANCH   3  17
TORSDOF 5
ENDMDL
MODEL 2
REMARK VINA RESULT:    -8.438      1.923      3.537
REMARK INTER + INTRA:         -11.886
REMARK INTER:                 -11.050
REMARK INTRA:                  -0.836
REMARK UNBOUND:                -0.981
REMARK  Name = 
REMARK  6 active torsions:
REMARK  status: ('A' for Active; 'I' for Inactive)
REMARK    1  A    between atoms: C_1  and  C_2
REMARK    2  A    between atoms: C_7  and  C_8
REMARK    3  A    between atoms: N_10  and  C_11
REMARK    4  A    between atoms: C_11  and  C_12
REMARK    5  A    between atoms: C_15  and  C_16
REMARK    6  A    between atoms: C_16  and  C_17
REMARK                            x       y       z     vdW  Elec       q    Type
REMARK                         _______ _______ _______ _____ _____    ______ ____
ROOT
ATOM      1  C   UNL     1      47.443   7.237  13.266  0.00  0.00    +0.000 C 
ATOM      2  O   UNL     1      48.006   7.815  12.339  0.00  0.00    +0.000 OA
ATOM      3  N   UNL     1      46.094   6.999  13.239  0.00  0.00    +0.000 N 
ATOM      4  H   UNL     1      45.632   6.508  13.998  0.00  0.00    +0.000 HD
ENDROOT
BRANCH   1  11
ATOM      5  C   UNL     1      48.192   2.529  18.195  0.00  0.00    +0.000 C 
ATOM      6  C   UNL     1      48.209   3.659  17.208  0.00  0.00    +0.000 A 
ATOM      7  N   UNL     1      49.082   4.611  17.285  0.00  0.00    +0.000 NA
ATOM      8  C   UNL     1      48.970   5.565  16.322  0.00  0.00    +0.000 A 
ATOM      9  S   UNL     1      50.038   6.888  16.281  0.00  0.00    +0.000 S 
ATOM     10  C   UNL     1      49.269   7.536  14.905  0.00  0.00    +0.000 A 
ATOM     11  C   UNL     1      48.196   6.779  14.446  0.00  0.00    +0.000 A 
ATOM     12  C   UNL     1      48.040   5.615  15.295  0.00  0.00    +0.000 A 
ATOM     13  C   UNL     1      47.089   4.523  15.248  0.00  0.00    +0.000 A 
ATOM     14  O   UNL     1      46.209   4.405  14.402  0.00  0.00    +0.000 OA
ATOM     15  N   UNL     1      47.235   3.586  16.242  0.00  0.00    +0.000 N 
ATOM     16  H   UNL     1      46.578   2.821  16.220  0.00  0.00    +0.000 HD
ENDBRANCH   1  11
BRANCH   3  17
ATOM     17  C   UNL     1      45.276   7.413  12.125  0.00  0.00    +0.000 C 
BRANCH  17  18
ATOM     18  C   UNL     1      45.070   6.296  11.136  0.00  0.00    +0.000 A 
ATOM     19  C   UNL     1      43.953   5.455  11.224  0.00  0.00    +0.000 A 
ATOM     20  C   UNL     1      43.755   4.430  10.293  0.00  0.00    +0.000 A 
ATOM     21  C   UNL     1      44.679   4.214   9.262  0.00  0.00    +0.000 A 
ATOM     22  C   UNL     1      45.809   5.039   9.189  0.00  0.00    +0.000 A 
ATOM     23  C   UNL     1      46.007   6.064  10.120  0.00  0.00    +0.000 A 
BRANCH  21  24
ATOM     24  C   UNL     1      44.441   3.151   8.212  0.00  0.00    +0.000 C 
BRANCH  24  25
ATOM     25  C   UNL     1      45.724   2.622   7.614  0.00  0.00    +0.000 A 
ATOM     26  C   UNL     1      46.331   3.267   6.532  0.00  0.00    +0.000 A 
ATOM     27  C   UNL     1      47.465   2.702   5.969  0.00  0.00    +0.000 A 
ATOM     28  N   UNL     1      48.034   1.560   6.409  0.00  0.00    +0.000 NA
ATOM     29  C   UNL     1      47.438   0.955   7.457  0.00  0.00    +0.000 A 
ATOM     30  C   UNL     1      46.301   1.439   8.087  0.00  0.00    +0.000 A 
ENDBRANCH  24  25
ENDBRANCH  21  24
ENDBRANCH  17  18
ENDBRANCH   3  17
TORSDOF 5
ENDMDL
MODEL 3
REMARK VINA RESULT:    -8.390      2.665      3.891
REMARK INTER + INTRA:         -11.823
REMARK INTER:                 -10.897
REMARK INTRA:                  -0.926
REMARK UNBOUND:                -0.981
REMARK  Name = 
REMARK  6 active torsions:
REMARK  status: ('A' for Active; 'I' for Inactive)
REMARK    1  A    between atoms: C_1  and  C_2
REMARK    2  A    between atoms: C_7  and  C_8
REMARK    3  A    between atoms: N_10  and  C_11
REMARK    4  A    between atoms: C_11  and  C_12
REMARK    5  A    between atoms: C_15  and  C_16
REMARK    6  A    between atoms: C_16  and  C_17
REMARK                            x       y       z     vdW  Elec       q    Type
REMARK                         _______ _______ _______ _____ _____    ______ ____
ROOT
ATOM      1  C   UNL     1      47.518   5.646  14.326  0.00  0.00    +0.000 C 
ATOM      2  O   UNL     1      48.441   6.034  13.612  0.00  0.00    +0.000 OA
ATOM      3  N   UNL     1      46.214   5.929  14.016  0.00  0.00    +0.000 N 
ATOM      4  H   UNL     1      45.452   5.595  14.598  0.00  0.00    +0.000 HD
ENDROOT
BRANCH   1  11
ATOM      5  C   UNL     1      49.809   5.579  20.789  0.00  0.00    +0.000 C 
ATOM      6  C   UNL     1      49.265   5.374  19.405  0.00  0.00    +0.000 A 
ATOM      7  N   UNL     1      48.874   4.210  18.998  0.00  0.00    +0.000 NA
ATOM      8  C   UNL     1      48.408   4.181  17.720  0.00  0.00    +0.000 A 
ATOM      9  S   UNL     1      47.857   2.727  17.030  0.00  0.00    +0.000 S 
ATOM     10  C   UNL     1      47.495   3.502  15.556  0.00  0.00    +0.000 A 
ATOM     11  C   UNL     1      47.779   4.863  15.547  0.00  0.00    +0.000 A 
ATOM     12  C   UNL     1      48.313   5.245  16.839  0.00  0.00    +0.000 A 
ATOM     13  C   UNL     1      48.758   6.529  17.343  0.00  0.00    +0.000 A 
ATOM     14  O   UNL     1      48.732   7.574  16.702  0.00  0.00    +0.000 OA
ATOM     15  N   UNL     1      49.225   6.511  18.635  0.00  0.00    +0.000 N 
ATOM     16  H   UNL     1      49.537   7.398  18.997  0.00  0.00    +0.000 HD
ENDBRANCH   1  11
BRANCH   3  17
ATOM     17  C   UNL     1      45.864   6.690  12.842  0.00  0.00    +0.000 C 
BRANCH  17  18
ATOM     18  C   UNL     1      45.564   5.798  11.665  0.00  0.00    +0.000 A 
ATOM     19  C   UNL     1      44.821   4.621  11.827  0.00  0.00    +0.000 A 
ATOM     20  C   UNL     1      44.528   3.804  10.730  0.00  0.00    +0.000 A 
ATOM     21  C   UNL     1      44.986   4.139   9.449  0.00  0.00    +0.000 A 
ATOM     22  C   UNL     1      45.750   5.303   9.292  0.00  0.00    +0.000 A 
ATOM     23  C   UNL     1      46.042   6.120  10.388  0.00  0.00    +0.000 A 
BRANCH  21  24
ATOM     24  C   UNL     1      44.620   3.298   8.245  0.00  0.00    +0.000 C 
BRANCH  24  25
ATOM     25  C   UNL     1      45.822   2.656   7.593  0.00  0.00    +0.000 A 
ATOM     26  C   UNL     1      46.408   3.219   6.456  0.00  0.00    +0.000 A 
ATOM     27  C   UNL     1      47.461   2.553   5.847  0.00  0.00    +0.000 A 
ATOM     28  N   UNL     1      47.971   1.386   6.294  0.00  0.00    +0.000 NA
ATOM     29  C   UNL     1      47.397   0.860   7.396  0.00  0.00    +0.000 A 
ATOM     30  C   UNL     1      46.339   1.448   8.073  0.00  0.00    +0.000 A 
ENDBRANCH  24  25
ENDBRANCH  21  24
ENDBRANCH  17  18
ENDBRANCH   3  17
TORSDOF 5
ENDMDL
MODEL 4
REMARK VINA RESULT:    -8.003      1.849      2.405
REMARK INTER + INTRA:         -11.324
REMARK INTER:                 -10.581
REMARK INTRA:                  -0.742
REMARK UNBOUND:                -0.981
REMARK  Name = 
REMARK  6 active torsions:
REMARK  status: ('A' for Active; 'I' for Inactive)
REMARK    1  A    between atoms: C_1  and  C_2
REMARK    2  A    between atoms: C_7  and  C_8
REMARK    3  A    between atoms: N_10  and  C_11
REMARK    4  A    between atoms: C_11  and  C_12
REMARK    5  A    between atoms: C_15  and  C_16
REMARK    6  A    between atoms: C_16  and  C_17
REMARK                            x       y       z     vdW  Elec       q    Type
REMARK                         _______ _______ _______ _____ _____    ______ ____
ROOT
ATOM      1  C   UNL     1      46.389   8.511  13.000  0.00  0.00    +0.000 C 
ATOM      2  O   UNL     1      45.350   9.158  12.882  0.00  0.00    +0.000 OA
ATOM      3  N   UNL     1      46.368   7.142  13.064  0.00  0.00    +0.000 N 
ATOM      4  H   UNL     1      47.228   6.608  13.145  0.00  0.00    +0.000 HD
ENDROOT
BRANCH   1  11
ATOM      5  C   UNL     1      52.979   8.159  14.860  0.00  0.00    +0.000 C 
ATOM      6  C   UNL     1      51.586   8.443  14.380  0.00  0.00    +0.000 A 
ATOM      7  N   UNL     1      51.270   9.587  13.862  0.00  0.00    +0.000 NA
ATOM      8  C   UNL     1      49.970   9.697  13.476  0.00  0.00    +0.000 A 
ATOM      9  S   UNL     1      49.390  11.136  12.779  0.00  0.00    +0.000 S 
ATOM     10  C   UNL     1      47.822  10.487  12.615  0.00  0.00    +0.000 A 
ATOM     11  C   UNL     1      47.698   9.182  13.079  0.00  0.00    +0.000 A 
ATOM     12  C   UNL     1      48.981   8.732  13.579  0.00  0.00    +0.000 A 
ATOM     13  C   UNL     1      49.386   7.467  14.159  0.00  0.00    +0.000 A 
ATOM     14  O   UNL     1      48.643   6.504  14.313  0.00  0.00    +0.000 OA
ATOM     15  N   UNL     1      50.704   7.402  14.539  0.00  0.00    +0.000 N 
ATOM     16  H   UNL     1      50.998   6.527  14.945  0.00  0.00    +0.000 HD
ENDBRANCH   1  11
BRANCH   3  17
ATOM     17  C   UNL     1      45.133   6.401  12.996  0.00  0.00    +0.000 C 
BRANCH  17  18
ATOM     18  C   UNL     1      45.000   5.653  11.695  0.00  0.00    +0.000 A 
ATOM     19  C   UNL     1      43.995   4.692  11.519  0.00  0.00    +0.000 A 
ATOM     20  C   UNL     1      43.863   4.011  10.304  0.00  0.00    +0.000 A 
ATOM     21  C   UNL     1      44.743   4.266   9.243  0.00  0.00    +0.000 A 
ATOM     22  C   UNL     1      45.762   5.210   9.429  0.00  0.00    +0.000 A 
ATOM     23  C   UNL     1      45.894   5.890  10.643  0.00  0.00    +0.000 A 
BRANCH  21  24
ATOM     24  C   UNL     1      44.569   3.584   7.904  0.00  0.00    +0.000 C 
BRANCH  24  25
ATOM     25  C   UNL     1      45.801   2.826   7.468  0.00  0.00    +0.000 A 
ATOM     26  C   UNL     1      46.607   3.303   6.430  0.00  0.00    +0.000 A 
ATOM     27  C   UNL     1      47.683   2.535   6.014  0.00  0.00    +0.000 A 
ATOM     28  N   UNL     1      48.015   1.347   6.561  0.00  0.00    +0.000 NA
ATOM     29  C   UNL     1      47.231   0.906   7.565  0.00  0.00    +0.000 A 
ATOM     30  C   UNL     1      46.131   1.598   8.050  0.00  0.00    +0.000 A 
ENDBRANCH  24  25
ENDBRANCH  21  24
ENDBRANCH  17  18
ENDBRANCH   3  17
TORSDOF 5
ENDMDL
MODEL 5
REMARK VINA RESULT:    -6.698      2.529      3.321
REMARK INTER + INTRA:          -9.637
REMARK INTER:                  -9.053
REMARK INTRA:                  -0.584
REMARK UNBOUND:                -0.981
REMARK  Name = 
REMARK  6 active torsions:
REMARK  status: ('A' for Active; 'I' for Inactive)
REMARK    1  A    between atoms: C_1  and  C_2
REMARK    2  A    between atoms: C_7  and  C_8
REMARK    3  A    between atoms: N_10  and  C_11
REMARK    4  A    between atoms: C_11  and  C_12
REMARK    5  A    between atoms: C_15  and  C_16
REMARK    6  A    between atoms: C_16  and  C_17
REMARK                            x       y       z     vdW  Elec       q    Type
REMARK                         _______ _______ _______ _____ _____    ______ ____
ROOT
ATOM      1  C   UNL     1      48.432   5.943  15.586  0.00  0.00    +0.000 C 
ATOM      2  O   UNL     1      48.657   4.960  16.290  0.00  0.00    +0.000 OA
ATOM      3  N   UNL     1      47.369   5.967  14.722  0.00  0.00    +0.000 N 
ATOM      4  H   UNL     1      47.175   6.785  14.152  0.00  0.00    +0.000 HD
ENDROOT
BRANCH   1  11
ATOM      5  C   UNL     1      50.553  11.405  19.147  0.00  0.00    +0.000 C 
ATOM      6  C   UNL     1      50.235  10.277  18.209  0.00  0.00    +0.000 A 
ATOM      7  N   UNL     1      50.799  10.184  17.049  0.00  0.00    +0.000 NA
ATOM      8  C   UNL     1      50.408   9.109  16.311  0.00  0.00    +0.000 A 
ATOM      9  S   UNL     1      51.052   8.840  14.760  0.00  0.00    +0.000 S 
ATOM     10  C   UNL     1      50.115   7.431  14.557  0.00  0.00    +0.000 A 
ATOM     11  C   UNL     1      49.298   7.133  15.642  0.00  0.00    +0.000 A 
ATOM     12  C   UNL     1      49.492   8.135  16.671  0.00  0.00    +0.000 A 
ATOM     13  C   UNL     1      48.892   8.281  17.982  0.00  0.00    +0.000 A 
ATOM     14  O   UNL     1      48.073   7.504  18.461  0.00  0.00    +0.000 OA
ATOM     15  N   UNL     1      49.311   9.381  18.689  0.00  0.00    +0.000 N 
ATOM     16  H   UNL     1      48.901   9.494  19.603  0.00  0.00    +0.000 HD
ENDBRANCH   1  11
BRANCH   3  17
ATOM     17  C   UNL     1      46.468   4.847  14.600  0.00  0.00    +0.000 C 
BRANCH  17  18
ATOM     18  C   UNL     1      46.022   4.641  13.176  0.00  0.00    +0.000 A 
ATOM     19  C   UNL     1      45.522   3.403  12.752  0.00  0.00    +0.000 A 
ATOM     20  C   UNL     1      45.091   3.219  11.434  0.00  0.00    +0.000 A 
ATOM     21  C   UNL     1      45.165   4.267  10.506  0.00  0.00    +0.000 A 
ATOM     22  C   UNL     1      45.688   5.498  10.925  0.00  0.00    +0.000 A 
ATOM     23  C   UNL     1      46.118   5.681  12.242  0.00  0.00    +0.000 A 
BRANCH  21  24
ATOM     24  C   UNL     1      44.642   4.100   9.096  0.00  0.00    +0.000 C 
BRANCH  24  25
ATOM     25  C   UNL     1      45.545   3.250   8.234  0.00  0.00    +0.000 A 
ATOM     26  C   UNL     1      46.112   3.765   7.064  0.00  0.00    +0.000 A 
ATOM     27  C   UNL     1      46.872   2.925   6.265  0.00  0.00    +0.000 A 
ATOM     28  N   UNL     1      47.112   1.628   6.551  0.00  0.00    +0.000 NA
ATOM     29  C   UNL     1      46.561   1.150   7.686  0.00  0.00    +0.000 A 
ATOM     30  C   UNL     1      45.784   1.909   8.549  0.00  0.00    +0.000 A 
ENDBRANCH  24  25
ENDBRANCH  21  24
ENDBRANCH  17  18
ENDBRANCH   3  17
TORSDOF 5
ENDMDL
MODEL 6
REMARK VINA RESULT:    -6.424      2.405      3.000
REMARK INTER + INTRA:          -9.282
REMARK INTER:                  -8.882
REMARK INTRA:                  -0.400
REMARK UNBOUND:                -0.981
REMARK  Name = 
REMARK  6 active torsions:
REMARK  status: ('A' for Active; 'I' for Inactive)
REMARK    1  A    between atoms: C_1  and  C_2
REMARK    2  A    between atoms: C_7  and  C_8
REMARK    3  A    between atoms: N_10  and  C_11
REMARK    4  A    between atoms: C_11  and  C_12
REMARK    5  A    between atoms: C_15  and  C_16
REMARK    6  A    between atoms: C_16  and  C_17
REMARK                            x       y       z     vdW  Elec       q    Type
REMARK                         _______ _______ _______ _____ _____    ______ ____
ROOT
ATOM      1  C   UNL     1      44.512   7.724  12.055  0.00  0.00    +0.000 C 
ATOM      2  O   UNL     1      43.493   7.601  11.378  0.00  0.00    +0.000 OA
ATOM      3  N   UNL     1      44.854   6.791  12.998  0.00  0.00    +0.000 N 
ATOM      4  H   UNL     1      45.704   6.885  13.546  0.00  0.00    +0.000 HD
ENDROOT
BRANCH   1  11
ATOM      5  C   UNL     1      50.941  10.086  11.729  0.00  0.00    +0.000 C 
ATOM      6  C   UNL     1      49.472   9.782  11.763  0.00  0.00    +0.000 A 
ATOM      7  N   UNL     1      48.586  10.715  11.623  0.00  0.00    +0.000 NA
ATOM      8  C   UNL     1      47.295  10.287  11.678  0.00  0.00    +0.000 A 
ATOM      9  S   UNL     1      46.008  11.387  11.514  0.00  0.00    +0.000 S 
ATOM     10  C   UNL     1      44.854  10.145  11.692  0.00  0.00    +0.000 A 
ATOM     11  C   UNL     1      45.405   8.882  11.880  0.00  0.00    +0.000 A 
ATOM     12  C   UNL     1      46.851   8.988  11.862  0.00  0.00    +0.000 A 
ATOM     13  C   UNL     1      47.881   7.979  12.007  0.00  0.00    +0.000 A 
ATOM     14  O   UNL     1      47.664   6.783  12.166  0.00  0.00    +0.000 OA
ATOM     15  N   UNL     1      49.168   8.456  11.951  0.00  0.00    +0.000 N 
ATOM     16  H   UNL     1      49.894   7.764  12.051  0.00  0.00    +0.000 HD
ENDBRANCH   1  11
BRANCH   3  17
ATOM     17  C   UNL     1      44.038   5.626  13.239  0.00  0.00    +0.000 C 
BRANCH  17  18
ATOM     18  C   UNL     1      44.199   4.595  12.153  0.00  0.00    +0.000 A 
ATOM     19  C   UNL     1      43.296   3.531  12.032  0.00  0.00    +0.000 A 
ATOM     20  C   UNL     1      43.438   2.585  11.011  0.00  0.00    +0.000 A 
ATOM     21  C   UNL     1      44.496   2.675  10.098  0.00  0.00    +0.000 A 
ATOM     22  C   UNL     1      45.414   3.725  10.234  0.00  0.00    +0.000 A 
ATOM     23  C   UNL     1      45.272   4.670  11.254  0.00  0.00    +0.000 A 
BRANCH  21  24
ATOM     24  C   UNL     1      44.622   1.695   8.951  0.00  0.00    +0.000 C 
BRANCH  24  25
ATOM     25  C   UNL     1      45.752   2.040   8.009  0.00  0.00    +0.000 A 
ATOM     26  C   UNL     1      45.712   3.205   7.236  0.00  0.00    +0.000 A 
ATOM     27  C   UNL     1      46.734   3.440   6.330  0.00  0.00    +0.000 A 
ATOM     28  N   UNL     1      47.785   2.612   6.150  0.00  0.00    +0.000 NA
ATOM     29  C   UNL     1      47.810   1.496   6.908  0.00  0.00    +0.000 A 
ATOM     30  C   UNL     1      46.834   1.171   7.839  0.00  0.00    +0.000 A 
ENDBRANCH  24  25
ENDBRANCH  21  24
ENDBRANCH  17  18
ENDBRANCH   3  17
TORSDOF 5
ENDMDL
MODEL 7
REMARK VINA RESULT:    -6.034      3.709      6.142
REMARK INTER + INTRA:          -8.779
REMARK INTER:                  -7.654
REMARK INTRA:                  -1.125
REMARK UNBOUND:                -0.981
REMARK  Name = 
REMARK  6 active torsions:
REMARK  status: ('A' for Active; 'I' for Inactive)
REMARK    1  A    between atoms: C_1  and  C_2
REMARK    2  A    between atoms: C_7  and  C_8
REMARK    3  A    between atoms: N_10  and  C_11
REMARK    4  A    between atoms: C_11  and  C_12
REMARK    5  A    between atoms: C_15  and  C_16
REMARK    6  A    between atoms: C_16  and  C_17
REMARK                            x       y       z     vdW  Elec       q    Type
REMARK                         _______ _______ _______ _____ _____    ______ ____
ROOT
ATOM      1  C   UNL     1      50.633   7.512  17.068  0.00  0.00    +0.000 C 
ATOM      2  O   UNL     1      50.279   8.334  17.911  0.00  0.00    +0.000 OA
ATOM      3  N   UNL     1      50.110   7.525  15.801  0.00  0.00    +0.000 N 
ATOM      4  H   UNL     1      50.415   6.856  15.101  0.00  0.00    +0.000 HD
ENDROOT
BRANCH   1  11
ATOM      5  C   UNL     1      52.044   0.842  17.801  0.00  0.00    +0.000 C 
ATOM      6  C   UNL     1      51.952   2.336  17.692  0.00  0.00    +0.000 A 
ATOM      7  N   UNL     1      52.973   3.095  17.931  0.00  0.00    +0.000 NA
ATOM      8  C   UNL     1      52.735   4.428  17.793  0.00  0.00    +0.000 A 
ATOM      9  S   UNL     1      53.970   5.563  18.074  0.00  0.00    +0.000 S 
ATOM     10  C   UNL     1      52.927   6.864  17.721  0.00  0.00    +0.000 A 
ATOM     11  C   UNL     1      51.634   6.479  17.387  0.00  0.00    +0.000 A 
ATOM     12  C   UNL     1      51.543   5.033  17.431  0.00  0.00    +0.000 A 
ATOM     13  C   UNL     1      50.433   4.141  17.167  0.00  0.00    +0.000 A 
ATOM     14  O   UNL     1      49.313   4.507  16.825  0.00  0.00    +0.000 OA
ATOM     15  N   UNL     1      50.715   2.806  17.323  0.00  0.00    +0.000 N 
ATOM     16  H   UNL     1      49.950   2.174  17.143  0.00  0.00    +0.000 HD
ENDBRANCH   1  11
BRANCH   3  17
ATOM     17  C   UNL     1      49.125   8.499  15.400  0.00  0.00    +0.000 C 
BRANCH  17  18
ATOM     18  C   UNL     1      48.221   7.969  14.319  0.00  0.00    +0.000 A 
ATOM     19  C   UNL     1      47.143   8.729  13.846  0.00  0.00    +0.000 A 
ATOM     20  C   UNL     1      46.316   8.241  12.829  0.00  0.00    +0.000 A 
ATOM     21  C   UNL     1      46.540   6.975  12.273  0.00  0.00    +0.000 A 
ATOM     22  C   UNL     1      47.603   6.205  12.763  0.00  0.00    +0.000 A 
ATOM     23  C   UNL     1      48.430   6.692  13.779  0.00  0.00    +0.000 A 
BRANCH  21  24
ATOM     24  C   UNL     1      45.692   6.464  11.128  0.00  0.00    +0.000 C 
BRANCH  24  25
ATOM     25  C   UNL     1      44.917   5.218  11.484  0.00  0.00    +0.000 A 
ATOM     26  C   UNL     1      44.879   4.124  10.614  0.00  0.00    +0.000 A 
ATOM     27  C   UNL     1      44.092   3.032  10.949  0.00  0.00    +0.000 A 
ATOM     28  N   UNL     1      43.359   2.952  12.080  0.00  0.00    +0.000 NA
ATOM     29  C   UNL     1      43.413   4.014  12.910  0.00  0.00    +0.000 A 
ATOM     30  C   UNL     1      44.167   5.152  12.663  0.00  0.00    +0.000 A 
ENDBRANCH  24  25
ENDBRANCH  21  24
ENDBRANCH  17  18
ENDBRANCH   3  17
TORSDOF 5
ENDMDL
