MODEL 1
REMARK VINA RESULT:    -7.884      0.000      0.000
REMARK INTER + INTRA:         -12.022
REMARK INTER:                 -11.111
REMARK INTRA:                  -0.911
REMARK UNBOUND:                -0.911
REMARK  Name = 
REMARK  9 active torsions:
REMARK  status: ('A' for Active; 'I' for Inactive)
REMARK    1  A    between atoms: C_1  and  C_2
REMARK    2  A    between atoms: C_4  and  C_5
REMARK    3  A    between atoms: C_5  and  N_6
REMARK    4  A    between atoms: N_6  and  C_7
REMARK    5  A    between atoms: C_7  and  C_8
REMARK    6  A    between atoms: C_11  and  C_12
REMARK    7  A    between atoms: C_12  and  N_13
REMARK    8  A    between atoms: C_14  and  C_16
REMARK    9  A    between atoms: C_21  and  C_22
REMARK                            x       y       z     vdW  Elec       q    Type
REMARK                         _______ _______ _______ _____ _____    ______ ____
ROOT
ATOM      1  C   UNL     1      47.524   3.411  15.108  0.00  0.00    +0.000 C 
ENDROOT
BRANCH   1   5
ATOM      2  C   UNL     1      45.504   5.193  11.796  0.00  0.00    +0.000 A 
ATOM      3  C   UNL     1      46.440   5.945  12.510  0.00  0.00    +0.000 A 
ATOM      4  C   UNL     1      47.119   5.370  13.580  0.00  0.00    +0.000 A 
ATOM      5  C   UNL     1      46.841   4.049  13.921  0.00  0.00    +0.000 A 
ATOM      6  N   UNL     1      45.961   3.288  13.226  0.00  0.00    +0.000 NA
ATOM      7  C   UNL     1      45.319   3.871  12.186  0.00  0.00    +0.000 A 
BRANCH   2   8
ATOM      8  C   UNL     1      44.696   5.801  10.685  0.00  0.00    +0.000 C 
BRANCH   8   9
ATOM      9  N   UNL     1      45.109   5.359   9.351  0.00  0.00    +0.000 NA
ATOM     10  H   UNL     1      44.946   6.120   8.693  0.00  0.00    +0.000 HD
BRANCH   9  11
ATOM     11  C   UNL     1      44.351   4.191   8.888  0.00  0.00    +0.000 C 
BRANCH  11  15
ATOM     12  C   UNL     1      47.991   1.823   6.226  0.00  0.00    +0.000 C 
ATOM     13  C   UNL     1      46.900   2.070   7.207  0.00  0.00    +0.000 C 
ATOM     14  C   UNL     1      46.192   3.356   7.289  0.00  0.00    +0.000 C 
ATOM     15  C   UNL     1      45.268   3.146   8.367  0.00  0.00    +0.000 C 
ATOM     16  C   UNL     1      45.469   1.885   8.774  0.00  0.00    +0.000 C 
ATOM     17  N   UNL     1      46.457   1.202   8.081  0.00  0.00    +0.000 NA
ENDBRANCH  11  15
ENDBRANCH   9  11
ENDBRANCH   8   9
ENDBRANCH   2   8
ENDBRANCH   1   5
BRANCH   1  18
ATOM     18  N   UNL     1      47.893   4.376  16.118  0.00  0.00    +0.000 N 
ATOM     19  C   UNL     1      47.449   4.282  17.409  0.00  0.00    +0.000 C 
ATOM     20  O   UNL     1      46.721   3.366  17.783  0.00  0.00    +0.000 OA
ATOM     21  H   UNL     1      48.289   5.247  15.777  0.00  0.00    +0.000 HD
BRANCH  19  22
ATOM     22  C   UNL     1      47.947   5.293  18.350  0.00  0.00    +0.000 A 
ATOM     23  C   UNL     1      47.057   5.917  19.215  0.00  0.00    +0.000 A 
ATOM     24  S   UNL     1      47.794   7.040  20.264  0.00  0.00    +0.000 S 
ATOM     25  C   UNL     1      49.324   6.762  19.572  0.00  0.00    +0.000 A 
ATOM     26  N   UNL     1      50.418   7.443  20.006  0.00  0.00    +0.000 NA
ATOM     27  C   UNL     1      51.513   7.167  19.374  0.00  0.00    +0.000 A 
ATOM     28  C   UNL     1      52.804   7.843  19.735  0.00  0.00    +0.000 C 
ATOM     29  N   UNL     1      51.600   6.255  18.347  0.00  0.00    +0.000 N 
ATOM     30  C   UNL     1      50.534   5.498  17.923  0.00  0.00    +0.000 A 
ATOM     31  O   UNL     1      50.675   4.615  17.084  0.00  0.00    +0.000 OA
ATOM     32  C   UNL     1      49.277   5.806  18.574  0.00  0.00    +0.000 A 
ATOM     33  H   UNL     1      52.485   6.051  17.906  0.00  0.00    +0.000 HD
ENDBRANCH  19  22
ENDBRANCH   1  18
TORSDOF 7
ENDMDL
MODEL 2
REMARK VINA RESULT:    -7.828      2.250      2.939
REMARK INTER + INTRA:         -11.942
REMARK INTER:                 -10.815
REMARK INTRA:                  -1.126
REMARK UNBOUND:                -0.911
REMARK  Name = 
REMARK  9 active torsions:
REMARK  status: ('A' for Active; 'I' for Inactive)
REMARK    1  A    between atoms: C_1  and  C_2
REMARK    2  A    between atoms: C_4  and  C_5
REMARK    3  A    between atoms: C_5  and  N_6
REMARK    4  A    between atoms: N_6  and  C_7
REMARK    5  A    between atoms: C_7  and  C_8
REMARK    6  A    between atoms: C_11  and  C_12
REMARK    7  A    between atoms: C_12  and  N_13
REMARK    8  A    between atoms: C_14  and  C_16
REMARK    9  A    between atoms: C_21  and  C_22
REMARK                            x       y       z     vdW  Elec       q    Type
REMARK                         _______ _______ _______ _____ _____    ______ ____
ROOT
ATOM      1  C   UNL     1      48.228   6.293  13.923  0.00  0.00    +0.000 C 
ENDROOT
BRANCH   1   5
ATOM      2  C   UNL     1      44.655   5.325  11.797  0.00  0.00    +0.000 A 
ATOM      3  C   UNL     1      45.468   6.362  11.331  0.00  0.00    +0.000 A 
ATOM      4  C   UNL     1      46.645   6.675  12.005  0.00  0.00    +0.000 A 
ATOM      5  C   UNL     1      46.983   5.946  13.142  0.00  0.00    +0.000 A 
ATOM      6  N   UNL     1      46.229   4.915  13.596  0.00  0.00    +0.000 NA
ATOM      7  C   UNL     1      45.093   4.629  12.918  0.00  0.00    +0.000 A 
BRANCH   2   8
ATOM      8  C   UNL     1      43.341   5.008  11.143  0.00  0.00    +0.000 C 
BRANCH   8   9
ATOM      9  N   UNL     1      43.473   4.522   9.767  0.00  0.00    +0.000 NA
ATOM     10  H   UNL     1      42.539   4.392   9.379  0.00  0.00    +0.000 HD
BRANCH   9  11
ATOM     11  C   UNL     1      44.177   3.237   9.693  0.00  0.00    +0.000 C 
BRANCH  11  15
ATOM     12  C   UNL     1      47.894   1.907   6.474  0.00  0.00    +0.000 C 
ATOM     13  C   UNL     1      46.936   2.739   7.251  0.00  0.00    +0.000 C 
ATOM     14  C   UNL     1      46.018   2.161   8.243  0.00  0.00    +0.000 C 
ATOM     15  C   UNL     1      45.286   3.306   8.709  0.00  0.00    +0.000 C 
ATOM     16  C   UNL     1      45.793   4.352   8.042  0.00  0.00    +0.000 C 
ATOM     17  N   UNL     1      46.805   4.037   7.148  0.00  0.00    +0.000 NA
ENDBRANCH  11  15
ENDBRANCH   9  11
ENDBRANCH   8   9
ENDBRANCH   2   8
ENDBRANCH   1   5
BRANCH   1  18
ATOM     18  N   UNL     1      47.983   6.378  15.345  0.00  0.00    +0.000 N 
ATOM     19  C   UNL     1      48.980   6.207  16.265  0.00  0.00    +0.000 C 
ATOM     20  O   UNL     1      50.142   5.983  15.934  0.00  0.00    +0.000 OA
ATOM     21  H   UNL     1      47.009   6.327  15.632  0.00  0.00    +0.000 HD
BRANCH  19  22
ATOM     22  C   UNL     1      48.610   6.378  17.676  0.00  0.00    +0.000 A 
ATOM     23  C   UNL     1      48.696   5.296  18.540  0.00  0.00    +0.000 A 
ATOM     24  S   UNL     1      48.261   5.664  20.146  0.00  0.00    +0.000 S 
ATOM     25  C   UNL     1      47.903   7.276  19.735  0.00  0.00    +0.000 A 
ATOM     26  N   UNL     1      47.442   8.148  20.672  0.00  0.00    +0.000 NA
ATOM     27  C   UNL     1      47.174   9.332  20.224  0.00  0.00    +0.000 A 
ATOM     28  C   UNL     1      46.650  10.402  21.137  0.00  0.00    +0.000 C 
ATOM     29  N   UNL     1      47.339   9.714  18.913  0.00  0.00    +0.000 N 
ATOM     30  C   UNL     1      47.864   8.886  17.949  0.00  0.00    +0.000 A 
ATOM     31  O   UNL     1      48.103   9.296  16.819  0.00  0.00    +0.000 OA
ATOM     32  C   UNL     1      48.138   7.536  18.397  0.00  0.00    +0.000 A 
ATOM     33  H   UNL     1      47.145  10.660  18.618  0.00  0.00    +0.000 HD
ENDBRANCH  19  22
ENDBRANCH   1  18
TORSDOF 7
ENDMDL
MODEL 3
REMARK VINA RESULT:    -7.763      2.154      3.017
REMARK INTER + INTRA:         -11.851
REMARK INTER:                 -10.765
REMARK INTRA:                  -1.086
REMARK UNBOUND:                -0.911
REMARK  Name = 
REMARK  9 active torsions:
REMARK  status: ('A' for Active; 'I' for Inactive)
REMARK    1  A    between atoms: C_1  and  C_2
REMARK    2  A    between atoms: C_4  and  C_5
REMARK    3  A    between atoms: C_5  and  N_6
REMARK    4  A    between atoms: N_6  and  C_7
REMARK    5  A    between atoms: C_7  and  C_8
REMARK    6  A    between atoms: C_11  and  C_12
REMARK    7  A    between atoms: C_12  and  N_13
REMARK    8  A    between atoms: C_14  and  C_16
REMARK    9  A    between atoms: C_21  and  C_22
REMARK                            x       y       z     vdW  Elec       q    Type
REMARK                         _______ _______ _______ _____ _____    ______ ____
ROOT
ATOM      1  C   UNL     1      47.378   7.734  12.802  0.00  0.00    +0.000 C 
ENDROOT
BRANCH   1   5
ATOM      2  C   UNL     1      44.576   4.670  11.812  0.00  0.00    +0.000 A 
ATOM      3  C   UNL     1      44.444   5.931  11.225  0.00  0.00    +0.000 A 
ATOM      4  C   UNL     1      45.362   6.933  11.526  0.00  0.00    +0.000 A 
ATOM      5  C   UNL     1      46.394   6.655  12.418  0.00  0.00    +0.000 A 
ATOM      6  N   UNL     1      46.563   5.431  12.976  0.00  0.00    +0.000 NA
ATOM      7  C   UNL     1      45.659   4.474  12.662  0.00  0.00    +0.000 A 
BRANCH   2   8
ATOM      8  C   UNL     1      43.562   3.587  11.574  0.00  0.00    +0.000 C 
BRANCH   8   9
ATOM      9  N   UNL     1      43.459   3.181  10.170  0.00  0.00    +0.000 NA
ATOM     10  H   UNL     1      42.531   2.788  10.014  0.00  0.00    +0.000 HD
BRANCH   9  11
ATOM     11  C   UNL     1      44.450   2.161   9.808  0.00  0.00    +0.000 C 
BRANCH  11  15
ATOM     12  C   UNL     1      47.859   2.319   6.026  0.00  0.00    +0.000 C 
ATOM     13  C   UNL     1      46.833   2.747   7.015  0.00  0.00    +0.000 C 
ATOM     14  C   UNL     1      46.279   1.830   8.022  0.00  0.00    +0.000 C 
ATOM     15  C   UNL     1      45.331   2.653   8.719  0.00  0.00    +0.000 C 
ATOM     16  C   UNL     1      45.410   3.860   8.143  0.00  0.00    +0.000 C 
ATOM     17  N   UNL     1      46.322   3.950   7.102  0.00  0.00    +0.000 NA
ENDBRANCH  11  15
ENDBRANCH   9  11
ENDBRANCH   8   9
ENDBRANCH   2   8
ENDBRANCH   1   5
BRANCH   1  18
ATOM     18  N   UNL     1      47.616   7.784  14.227  0.00  0.00    +0.000 N 
ATOM     19  C   UNL     1      48.819   7.432  14.774  0.00  0.00    +0.000 C 
ATOM     20  O   UNL     1      49.768   7.066  14.084  0.00  0.00    +0.000 OA
ATOM     21  H   UNL     1      46.790   7.854  14.813  0.00  0.00    +0.000 HD
BRANCH  19  22
ATOM     22  C   UNL     1      48.950   7.586  16.229  0.00  0.00    +0.000 A 
ATOM     23  C   UNL     1      49.248   8.834  16.759  0.00  0.00    +0.000 A 
ATOM     24  S   UNL     1      49.335   8.853  18.461  0.00  0.00    +0.000 S 
ATOM     25  C   UNL     1      49.017   7.184  18.549  0.00  0.00    +0.000 A 
ATOM     26  N   UNL     1      48.978   6.544  19.748  0.00  0.00    +0.000 NA
ATOM     27  C   UNL     1      48.763   5.270  19.676  0.00  0.00    +0.000 A 
ATOM     28  C   UNL     1      48.699   4.427  20.916  0.00  0.00    +0.000 C 
ATOM     29  N   UNL     1      48.575   4.587  18.496  0.00  0.00    +0.000 N 
ATOM     30  C   UNL     1      48.540   5.204  17.268  0.00  0.00    +0.000 A 
ATOM     31  O   UNL     1      48.256   4.582  16.251  0.00  0.00    +0.000 OA
ATOM     32  C   UNL     1      48.820   6.625  17.299  0.00  0.00    +0.000 A 
ATOM     33  H   UNL     1      48.378   3.597  18.494  0.00  0.00    +0.000 HD
ENDBRANCH  19  22
ENDBRANCH   1  18
TORSDOF 7
ENDMDL
MODEL 4
REMARK VINA RESULT:    -7.385      2.793      3.720
REMARK INTER + INTRA:         -11.318
REMARK INTER:                 -10.118
REMARK INTRA:                  -1.200
REMARK UNBOUND:                -0.911
REMARK  Name = 
REMARK  9 active torsions:
REMARK  status: ('A' for Active; 'I' for Inactive)
REMARK    1  A    between atoms: C_1  and  C_2
REMARK    2  A    between atoms: C_4  and  C_5
REMARK    3  A    between atoms: C_5  and  N_6
REMARK    4  A    between atoms: N_6  and  C_7
REMARK    5  A    between atoms: C_7  and  C_8
REMARK    6  A    between atoms: C_11  and  C_12
REMARK    7  A    between atoms: C_12  and  N_13
REMARK    8  A    between atoms: C_14  and  C_16
REMARK    9  A    between atoms: C_21  and  C_22
REMARK                            x       y       z     vdW  Elec       q    Type
REMARK                         _______ _______ _______ _____ _____    ______ ____
ROOT
ATOM      1  C   UNL     1      47.411   8.070  12.661  0.00  0.00    +0.000 C 
ENDROOT
BRANCH   1   5
ATOM      2  C   UNL     1      44.473   4.979  12.830  0.00  0.00    +0.000 A 
ATOM      3  C   UNL     1      45.764   4.720  13.298  0.00  0.00    +0.000 A 
ATOM      4  C   UNL     1      46.726   5.725  13.265  0.00  0.00    +0.000 A 
ATOM      5  C   UNL     1      46.377   6.974  12.756  0.00  0.00    +0.000 A 
ATOM      6  N   UNL     1      45.124   7.260  12.325  0.00  0.00    +0.000 NA
ATOM      7  C   UNL     1      44.207   6.265  12.373  0.00  0.00    +0.000 A 
BRANCH   2   8
ATOM      8  C   UNL     1      43.430   3.899  12.776  0.00  0.00    +0.000 C 
BRANCH   8   9
ATOM      9  N   UNL     1      43.041   3.528  11.413  0.00  0.00    +0.000 NA
ATOM     10  H   UNL     1      42.092   3.156  11.438  0.00  0.00    +0.000 HD
BRANCH   9  11
ATOM     11  C   UNL     1      43.915   2.497  10.843  0.00  0.00    +0.000 C 
BRANCH  11  15
ATOM     12  C   UNL     1      46.684   2.788   6.577  0.00  0.00    +0.000 C 
ATOM     13  C   UNL     1      45.874   3.188   7.759  0.00  0.00    +0.000 C 
ATOM     14  C   UNL     1      45.399   2.215   8.754  0.00  0.00    +0.000 C 
ATOM     15  C   UNL     1      44.657   3.031   9.673  0.00  0.00    +0.000 C 
ATOM     16  C   UNL     1      44.761   4.284   9.208  0.00  0.00    +0.000 C 
ATOM     17  N   UNL     1      45.503   4.411   8.043  0.00  0.00    +0.000 NA
ENDBRANCH  11  15
ENDBRANCH   9  11
ENDBRANCH   8   9
ENDBRANCH   2   8
ENDBRANCH   1   5
BRANCH   1  18
ATOM     18  N   UNL     1      48.653   7.717  13.310  0.00  0.00    +0.000 N 
ATOM     19  C   UNL     1      49.046   8.292  14.488  0.00  0.00    +0.000 C 
ATOM     20  O   UNL     1      48.358   9.131  15.066  0.00  0.00    +0.000 OA
ATOM     21  H   UNL     1      49.325   7.214  12.739  0.00  0.00    +0.000 HD
BRANCH  19  22
ATOM     22  C   UNL     1      50.299   7.800  15.073  0.00  0.00    +0.000 A 
ATOM     23  C   UNL     1      51.498   8.411  14.730  0.00  0.00    +0.000 A 
ATOM     24  S   UNL     1      52.856   7.745  15.515  0.00  0.00    +0.000 S 
ATOM     25  C   UNL     1      51.895   6.590  16.313  0.00  0.00    +0.000 A 
ATOM     26  N   UNL     1      52.457   5.669  17.141  0.00  0.00    +0.000 NA
ATOM     27  C   UNL     1      51.623   4.824  17.657  0.00  0.00    +0.000 A 
ATOM     28  C   UNL     1      52.094   3.744  18.586  0.00  0.00    +0.000 C 
ATOM     29  N   UNL     1      50.268   4.835  17.415  0.00  0.00    +0.000 N 
ATOM     30  C   UNL     1      49.651   5.787  16.638  0.00  0.00    +0.000 A 
ATOM     31  O   UNL     1      48.430   5.833  16.537  0.00  0.00    +0.000 OA
ATOM     32  C   UNL     1      50.554   6.727  16.005  0.00  0.00    +0.000 A 
ATOM     33  H   UNL     1      49.654   4.173  17.866  0.00  0.00    +0.000 HD
ENDBRANCH  19  22
ENDBRANCH   1  18
TORSDOF 7
ENDMDL
MODEL 5
REMARK VINA RESULT:    -7.307      2.640      3.109
REMARK INTER + INTRA:         -11.208
REMARK INTER:                 -10.226
REMARK INTRA:                  -0.982
REMARK UNBOUND:                -0.911
REMARK  Name = 
REMARK  9 active torsions:
REMARK  status: ('A' for Active; 'I' for Inactive)
REMARK    1  A    between atoms: C_1  and  C_2
REMARK    2  A    between atoms: C_4  and  C_5
REMARK    3  A    between atoms: C_5  and  N_6
REMARK    4  A    between atoms: N_6  and  C_7
REMARK    5  A    between atoms: C_7  and  C_8
REMARK    6  A    between atoms: C_11  and  C_12
REMARK    7  A    between atoms: C_12  and  N_13
REMARK    8  A    between atoms: C_14  and  C_16
REMARK    9  A    between atoms: C_21  and  C_22
REMARK                            x       y       z     vdW  Elec       q    Type
REMARK                         _______ _______ _______ _____ _____    ______ ____
ROOT
ATOM      1  C   UNL     1      47.620   4.762  14.801  0.00  0.00    +0.000 C 
ENDROOT
BRANCH   1   5
ATOM      2  C   UNL     1      44.450   4.537  11.951  0.00  0.00    +0.000 A 
ATOM      3  C   UNL     1      44.890   5.790  12.387  0.00  0.00    +0.000 A 
ATOM      4  C   UNL     1      45.935   5.877  13.302  0.00  0.00    +0.000 A 
ATOM      5  C   UNL     1      46.518   4.703  13.771  0.00  0.00    +0.000 A 
ATOM      6  N   UNL     1      46.132   3.477  13.340  0.00  0.00    +0.000 NA
ATOM      7  C   UNL     1      45.116   3.422  12.446  0.00  0.00    +0.000 A 
BRANCH   2   8
ATOM      8  C   UNL     1      43.276   4.400  11.025  0.00  0.00    +0.000 C 
BRANCH   8   9
ATOM      9  N   UNL     1      43.568   3.618   9.821  0.00  0.00    +0.000 NA
ATOM     10  H   UNL     1      43.965   2.723  10.105  0.00  0.00    +0.000 HD
BRANCH   9  11
ATOM     11  C   UNL     1      44.536   4.284   8.942  0.00  0.00    +0.000 C 
BRANCH  11  15
ATOM     12  C   UNL     1      47.962   2.129   5.850  0.00  0.00    +0.000 C 
ATOM     13  C   UNL     1      46.962   2.305   6.936  0.00  0.00    +0.000 C 
ATOM     14  C   UNL     1      46.239   3.568   7.144  0.00  0.00    +0.000 C 
ATOM     15  C   UNL     1      45.421   3.287   8.290  0.00  0.00    +0.000 C 
ATOM     16  C   UNL     1      45.684   2.013   8.616  0.00  0.00    +0.000 C 
ATOM     17  N   UNL     1      46.618   1.386   7.804  0.00  0.00    +0.000 NA
ENDBRANCH  11  15
ENDBRANCH   9  11
ENDBRANCH   8   9
ENDBRANCH   2   8
ENDBRANCH   1   5
BRANCH   1  18
ATOM     18  N   UNL     1      47.762   6.076  15.385  0.00  0.00    +0.000 N 
ATOM     19  C   UNL     1      48.758   6.934  15.008  0.00  0.00    +0.000 C 
ATOM     20  O   UNL     1      49.580   6.641  14.143  0.00  0.00    +0.000 OA
ATOM     21  H   UNL     1      47.249   6.236  16.247  0.00  0.00    +0.000 HD
BRANCH  19  22
ATOM     22  C   UNL     1      48.754   8.262  15.635  0.00  0.00    +0.000 A 
ATOM     23  C   UNL     1      48.963   9.388  14.850  0.00  0.00    +0.000 A 
ATOM     24  S   UNL     1      48.898  10.852  15.720  0.00  0.00    +0.000 S 
ATOM     25  C   UNL     1      48.627  10.030  17.186  0.00  0.00    +0.000 A 
ATOM     26  N   UNL     1      48.503  10.714  18.354  0.00  0.00    +0.000 NA
ATOM     27  C   UNL     1      48.336   9.971  19.401  0.00  0.00    +0.000 A 
ATOM     28  C   UNL     1      48.189  10.581  20.765  0.00  0.00    +0.000 C 
ATOM     29  N   UNL     1      48.275   8.597  19.368  0.00  0.00    +0.000 N 
ATOM     30  C   UNL     1      48.330   7.871  18.202  0.00  0.00    +0.000 A 
ATOM     31  O   UNL     1      48.158   6.657  18.199  0.00  0.00    +0.000 OA
ATOM     32  C   UNL     1      48.560   8.660  17.009  0.00  0.00    +0.000 A 
ATOM     33  H   UNL     1      48.112   8.063  20.209  0.00  0.00    +0.000 HD
ENDBRANCH  19  22
ENDBRANCH   1  18
TORSDOF 7
ENDMDL
MODEL 6
REMARK VINA RESULT:    -7.265      2.588      3.661
REMARK INTER + INTRA:         -11.149
REMARK INTER:                 -10.190
REMARK INTRA:                  -0.959
REMARK UNBOUND:                -0.911
REMARK  Name = 
REMARK  9 active torsions:
REMARK  status: ('A' for Active; 'I' for Inactive)
REMARK    1  A    between atoms: C_1  and  C_2
REMARK    2  A    between atoms: C_4  and  C_5
REMARK    3  A    between atoms: C_5  and  N_6
REMARK    4  A    between atoms: N_6  and  C_7
REMARK    5  A    between atoms: C_7  and  C_8
REMARK    6  A    between atoms: C_11  and  C_12
REMARK    7  A    between atoms: C_12  and  N_13
REMARK    8  A    between atoms: C_14  and  C_16
REMARK    9  A    between atoms: C_21  and  C_22
REMARK                            x       y       z     vdW  Elec       q    Type
REMARK                         _______ _______ _______ _____ _____    ______ ____
ROOT
ATOM      1  C   UNL     1      48.640   7.267  14.976  0.00  0.00    +0.000 C 
ENDROOT
BRANCH   1   5
ATOM      2  C   UNL     1      45.808   4.692  13.087  0.00  0.00    +0.000 A 
ATOM      3  C   UNL     1      45.988   5.988  12.594  0.00  0.00    +0.000 A 
ATOM      4  C   UNL     1      46.921   6.831  13.190  0.00  0.00    +0.000 A 
ATOM      5  C   UNL     1      47.655   6.361  14.277  0.00  0.00    +0.000 A 
ATOM      6  N   UNL     1      47.522   5.099  14.753  0.00  0.00    +0.000 NA
ATOM      7  C   UNL     1      46.611   4.299  14.151  0.00  0.00    +0.000 A 
BRANCH   2   8
ATOM      8  C   UNL     1      44.757   3.780  12.521  0.00  0.00    +0.000 C 
BRANCH   8   9
ATOM      9  N   UNL     1      45.253   2.903  11.458  0.00  0.00    +0.000 NA
ATOM     10  H   UNL     1      46.199   3.195  11.213  0.00  0.00    +0.000 HD
BRANCH   9  11
ATOM     11  C   UNL     1      44.430   2.972  10.245  0.00  0.00    +0.000 C 
BRANCH  11  15
ATOM     12  C   UNL     1      47.397   2.164   6.184  0.00  0.00    +0.000 C 
ATOM     13  C   UNL     1      46.589   2.862   7.220  0.00  0.00    +0.000 C 
ATOM     14  C   UNL     1      45.960   2.148   8.340  0.00  0.00    +0.000 C 
ATOM     15  C   UNL     1      45.280   3.196   9.049  0.00  0.00    +0.000 C 
ATOM     16  C   UNL     1      45.553   4.322   8.375  0.00  0.00    +0.000 C 
ATOM     17  N   UNL     1      46.354   4.150   7.255  0.00  0.00    +0.000 NA
ENDBRANCH  11  15
ENDBRANCH   9  11
ENDBRANCH   8   9
ENDBRANCH   2   8
ENDBRANCH   1   5
BRANCH   1  18
ATOM     18  N   UNL     1      49.791   6.552  15.476  0.00  0.00    +0.000 N 
ATOM     19  C   UNL     1      50.271   6.742  16.743  0.00  0.00    +0.000 C 
ATOM     20  O   UNL     1      49.742   7.524  17.530  0.00  0.00    +0.000 OA
ATOM     21  H   UNL     1      50.366   6.091  14.776  0.00  0.00    +0.000 HD
BRANCH  19  22
ATOM     22  C   UNL     1      51.409   5.908  17.147  0.00  0.00    +0.000 A 
ATOM     23  C   UNL     1      52.642   6.503  17.382  0.00  0.00    +0.000 A 
ATOM     24  S   UNL     1      53.850   5.406  17.872  0.00  0.00    +0.000 S 
ATOM     25  C   UNL     1      52.780   4.089  17.748  0.00  0.00    +0.000 A 
ATOM     26  N   UNL     1      53.200   2.823  18.012  0.00  0.00    +0.000 NA
ATOM     27  C   UNL     1      52.299   1.908  17.846  0.00  0.00    +0.000 A 
ATOM     28  C   UNL     1      52.615   0.461  18.092  0.00  0.00    +0.000 C 
ATOM     29  N   UNL     1      51.008   2.163  17.445  0.00  0.00    +0.000 N 
ATOM     30  C   UNL     1      50.524   3.432  17.233  0.00  0.00    +0.000 A 
ATOM     31  O   UNL     1      49.339   3.629  16.988  0.00  0.00    +0.000 OA
ATOM     32  C   UNL     1      51.511   4.484  17.365  0.00  0.00    +0.000 A 
ATOM     33  H   UNL     1      50.333   1.417  17.361  0.00  0.00    +0.000 HD
ENDBRANCH  19  22
ENDBRANCH   1  18
TORSDOF 7
ENDMDL
MODEL 7
REMARK VINA RESULT:    -6.909      5.009      6.241
REMARK INTER + INTRA:         -10.647
REMARK INTER:                  -9.521
REMARK INTRA:                  -1.125
REMARK UNBOUND:                -0.911
REMARK  Name = 
REMARK  9 active torsions:
REMARK  status: ('A' for Active; 'I' for Inactive)
REMARK    1  A    between atoms: C_1  and  C_2
REMARK    2  A    between atoms: C_4  and  C_5
REMARK    3  A    between atoms: C_5  and  N_6
REMARK    4  A    between atoms: N_6  and  C_7
REMARK    5  A    between atoms: C_7  and  C_8
REMARK    6  A    between atoms: C_11  and  C_12
REMARK    7  A    between atoms: C_12  and  N_13
REMARK    8  A    between atoms: C_14  and  C_16
REMARK    9  A    between atoms: C_21  and  C_22
REMARK                            x       y       z     vdW  Elec       q    Type
REMARK                         _______ _______ _______ _____ _____    ______ ____
ROOT
ATOM      1  C   UNL     1      46.780   8.652  13.262  0.00  0.00    +0.000 C 
ENDROOT
BRANCH   1   5
ATOM      2  C   UNL     1      45.452   4.701  12.344  0.00  0.00    +0.000 A 
ATOM      3  C   UNL     1      46.573   4.872  13.160  0.00  0.00    +0.000 A 
ATOM      4  C   UNL     1      47.005   6.155  13.482  0.00  0.00    +0.000 A 
ATOM      5  C   UNL     1      46.308   7.247  12.972  0.00  0.00    +0.000 A 
ATOM      6  N   UNL     1      45.199   7.109  12.205  0.00  0.00    +0.000 NA
ATOM      7  C   UNL     1      44.798   5.849  11.912  0.00  0.00    +0.000 A 
BRANCH   2   8
ATOM      8  C   UNL     1      45.001   3.335  11.911  0.00  0.00    +0.000 C 
BRANCH   8   9
ATOM      9  N   UNL     1      43.968   3.361  10.872  0.00  0.00    +0.000 NA
ATOM     10  H   UNL     1      43.065   3.185  11.311  0.00  0.00    +0.000 HD
BRANCH   9  11
ATOM     11  C   UNL     1      44.180   2.334   9.846  0.00  0.00    +0.000 C 
BRANCH  11  15
ATOM     12  C   UNL     1      47.930   2.365   6.399  0.00  0.00    +0.000 C 
ATOM     13  C   UNL     1      46.835   2.832   7.290  0.00  0.00    +0.000 C 
ATOM     14  C   UNL     1      46.153   1.935   8.235  0.00  0.00    +0.000 C 
ATOM     15  C   UNL     1      45.178   2.793   8.847  0.00  0.00    +0.000 C 
ATOM     16  C   UNL     1      45.358   3.998   8.290  0.00  0.00    +0.000 C 
ATOM     17  N   UNL     1      46.367   4.054   7.338  0.00  0.00    +0.000 NA
ENDBRANCH  11  15
ENDBRANCH   9  11
ENDBRANCH   8   9
ENDBRANCH   2   8
ENDBRANCH   1   5
BRANCH   1  18
ATOM     18  N   UNL     1      48.118   8.897  12.776  0.00  0.00    +0.000 N 
ATOM     19  C   UNL     1      48.415   9.964  11.973  0.00  0.00    +0.000 C 
ATOM     20  O   UNL     1      47.563  10.778  11.629  0.00  0.00    +0.000 OA
ATOM     21  H   UNL     1      48.769   8.121  12.855  0.00  0.00    +0.000 HD
BRANCH  19  22
ATOM     22  C   UNL     1      49.825  10.133  11.599  0.00  0.00    +0.000 A 
ATOM     23  C   UNL     1      50.367  11.409  11.541  0.00  0.00    +0.000 A 
ATOM     24  S   UNL     1      52.019  11.435  11.123  0.00  0.00    +0.000 S 
ATOM     25  C   UNL     1      52.059   9.741  10.964  0.00  0.00    +0.000 A 
ATOM     26  N   UNL     1      53.201   9.104  10.592  0.00  0.00    +0.000 NA
ATOM     27  C   UNL     1      53.090   7.819  10.473  0.00  0.00    +0.000 A 
ATOM     28  C   UNL     1      54.264   6.978  10.061  0.00  0.00    +0.000 C 
ATOM     29  N   UNL     1      51.927   7.123  10.706  0.00  0.00    +0.000 N 
ATOM     30  C   UNL     1      50.770   7.719  11.148  0.00  0.00    +0.000 A 
ATOM     31  O   UNL     1      49.788   7.053  11.455  0.00  0.00    +0.000 OA
ATOM     32  C   UNL     1      50.837   9.162  11.253  0.00  0.00    +0.000 A 
ATOM     33  H   UNL     1      51.899   6.116  10.630  0.00  0.00    +0.000 HD
ENDBRANCH  19  22
ENDBRANCH   1  18
TORSDOF 7
ENDMDL
MODEL 8
REMARK VINA RESULT:    -6.646      5.807      8.143
REMARK INTER + INTRA:         -10.276
REMARK INTER:                  -9.258
REMARK INTRA:                  -1.018
REMARK UNBOUND:                -0.911
REMARK  Name = 
REMARK  9 active torsions:
REMARK  status: ('A' for Active; 'I' for Inactive)
REMARK    1  A    between atoms: C_1  and  C_2
REMARK    2  A    between atoms: C_4  and  C_5
REMARK    3  A    between atoms: C_5  and  N_6
REMARK    4  A    between atoms: N_6  and  C_7
REMARK    5  A    between atoms: C_7  and  C_8
REMARK    6  A    between atoms: C_11  and  C_12
REMARK    7  A    between atoms: C_12  and  N_13
REMARK    8  A    between atoms: C_14  and  C_16
REMARK    9  A    between atoms: C_21  and  C_22
REMARK                            x       y       z     vdW  Elec       q    Type
REMARK                         _______ _______ _______ _____ _____    ______ ____
ROOT
ATOM      1  C   UNL     1      50.269   8.179  11.719  0.00  0.00    +0.000 C 
ENDROOT
BRANCH   1   5
ATOM      2  C   UNL     1      46.684   6.104  12.750  0.00  0.00    +0.000 A 
ATOM      3  C   UNL     1      46.640   7.098  11.769  0.00  0.00    +0.000 A 
ATOM      4  C   UNL     1      47.805   7.769  11.411  0.00  0.00    +0.000 A 
ATOM      5  C   UNL     1      48.997   7.436  12.050  0.00  0.00    +0.000 A 
ATOM      6  N   UNL     1      49.073   6.454  12.981  0.00  0.00    +0.000 NA
ATOM      7  C   UNL     1      47.925   5.814  13.306  0.00  0.00    +0.000 A 
BRANCH   2   8
ATOM      8  C   UNL     1      45.436   5.412  13.218  0.00  0.00    +0.000 C 
BRANCH   8   9
ATOM      9  N   UNL     1      45.149   4.169  12.496  0.00  0.00    +0.000 NA
ATOM     10  H   UNL     1      46.014   3.835  12.072  0.00  0.00    +0.000 HD
BRANCH   9  11
ATOM     11  C   UNL     1      44.164   4.358  11.426  0.00  0.00    +0.000 C 
BRANCH  11  15
ATOM     12  C   UNL     1      46.375   3.554   6.908  0.00  0.00    +0.000 C 
ATOM     13  C   UNL     1      45.618   3.316   8.166  0.00  0.00    +0.000 C 
ATOM     14  C   UNL     1      45.335   4.390   9.129  0.00  0.00    +0.000 C 
ATOM     15  C   UNL     1      44.623   3.708  10.173  0.00  0.00    +0.000 C 
ATOM     16  C   UNL     1      44.535   2.432   9.773  0.00  0.00    +0.000 C 
ATOM     17  N   UNL     1      45.130   2.163   8.549  0.00  0.00    +0.000 NA
ENDBRANCH  11  15
ENDBRANCH   9  11
ENDBRANCH   8   9
ENDBRANCH   2   8
ENDBRANCH   1   5
BRANCH   1  18
ATOM     18  N   UNL     1      51.319   7.300  11.256  0.00  0.00    +0.000 N 
ATOM     19  C   UNL     1      52.225   7.688  10.307  0.00  0.00    +0.000 C 
ATOM     20  O   UNL     1      52.204   8.809   9.805  0.00  0.00    +0.000 OA
ATOM     21  H   UNL     1      51.206   6.316  11.482  0.00  0.00    +0.000 HD
BRANCH  19  22
ATOM     22  C   UNL     1      53.277   6.722   9.969  0.00  0.00    +0.000 A 
ATOM     23  C   UNL     1      54.237   6.398  10.919  0.00  0.00    +0.000 A 
ATOM     24  S   UNL     1      55.368   5.242  10.384  0.00  0.00    +0.000 S 
ATOM     25  C   UNL     1      54.640   5.162   8.849  0.00  0.00    +0.000 A 
ATOM     26  N   UNL     1      55.148   4.356   7.878  0.00  0.00    +0.000 NA
ATOM     27  C   UNL     1      54.525   4.413   6.745  0.00  0.00    +0.000 A 
ATOM     28  C   UNL     1      54.973   3.587   5.575  0.00  0.00    +0.000 C 
ATOM     29  N   UNL     1      53.426   5.208   6.511  0.00  0.00    +0.000 N 
ATOM     30  C   UNL     1      52.841   5.986   7.482  0.00  0.00    +0.000 A 
ATOM     31  O   UNL     1      51.796   6.591   7.268  0.00  0.00    +0.000 OA
ATOM     32  C   UNL     1      53.533   5.985   8.754  0.00  0.00    +0.000 A 
ATOM     33  H   UNL     1      52.955   5.194   5.618  0.00  0.00    +0.000 HD
ENDBRANCH  19  22
ENDBRANCH   1  18
TORSDOF 7
ENDMDL
MODEL 9
REMARK VINA RESULT:    -6.564      2.457      3.332
REMARK INTER + INTRA:         -10.161
REMARK INTER:                  -9.151
REMARK INTRA:                  -1.011
REMARK UNBOUND:                -0.911
REMARK  Name = 
REMARK  9 active torsions:
REMARK  status: ('A' for Active; 'I' for Inactive)
REMARK    1  A    between atoms: C_1  and  C_2
REMARK    2  A    between atoms: C_4  and  C_5
REMARK    3  A    between atoms: C_5  and  N_6
REMARK    4  A    between atoms: N_6  and  C_7
REMARK    5  A    between atoms: C_7  and  C_8
REMARK    6  A    between atoms: C_11  and  C_12
REMARK    7  A    between atoms: C_12  and  N_13
REMARK    8  A    between atoms: C_14  and  C_16
REMARK    9  A    between atoms: C_21  and  C_22
REMARK                            x       y       z     vdW  Elec       q    Type
REMARK                         _______ _______ _______ _____ _____    ______ ____
ROOT
ATOM      1  C   UNL     1      49.596   7.605  13.136  0.00  0.00    +0.000 C 
ENDROOT
BRANCH   1   5
ATOM      2  C   UNL     1      45.584   6.530  12.153  0.00  0.00    +0.000 A 
ATOM      3  C   UNL     1      46.462   5.545  12.610  0.00  0.00    +0.000 A 
ATOM      4  C   UNL     1      47.768   5.886  12.951  0.00  0.00    +0.000 A 
ATOM      5  C   UNL     1      48.172   7.211  12.821  0.00  0.00    +0.000 A 
ATOM      6  N   UNL     1      47.331   8.192  12.411  0.00  0.00    +0.000 NA
ATOM      7  C   UNL     1      46.066   7.833  12.090  0.00  0.00    +0.000 A 
BRANCH   2   8
ATOM      8  C   UNL     1      44.192   6.189  11.702  0.00  0.00    +0.000 C 
BRANCH   8   9
ATOM      9  N   UNL     1      44.138   5.609  10.357  0.00  0.00    +0.000 NA
ATOM     10  H   UNL     1      43.412   6.089   9.826  0.00  0.00    +0.000 HD
BRANCH   9  11
ATOM     11  C   UNL     1      43.813   4.178  10.378  0.00  0.00    +0.000 C 
BRANCH  11  15
ATOM     12  C   UNL     1      46.846   3.079   6.436  0.00  0.00    +0.000 C 
ATOM     13  C   UNL     1      46.027   2.922   7.668  0.00  0.00    +0.000 C 
ATOM     14  C   UNL     1      45.248   4.029   8.242  0.00  0.00    +0.000 C 
ATOM     15  C   UNL     1      44.656   3.437   9.408  0.00  0.00    +0.000 C 
ATOM     16  C   UNL     1      45.071   2.162   9.414  0.00  0.00    +0.000 C 
ATOM     17  N   UNL     1      45.907   1.818   8.361  0.00  0.00    +0.000 NA
ENDBRANCH  11  15
ENDBRANCH   9  11
ENDBRANCH   8   9
ENDBRANCH   2   8
ENDBRANCH   1   5
BRANCH   1  18
ATOM     18  N   UNL     1      49.917   7.446  14.536  0.00  0.00    +0.000 N 
ATOM     19  C   UNL     1      50.136   8.518  15.357  0.00  0.00    +0.000 C 
ATOM     20  O   UNL     1      50.060   9.675  14.953  0.00  0.00    +0.000 OA
ATOM     21  H   UNL     1      50.209   6.516  14.822  0.00  0.00    +0.000 HD
BRANCH  19  22
ATOM     22  C   UNL     1      50.393   8.220  16.772  0.00  0.00    +0.000 A 
ATOM     23  C   UNL     1      51.301   8.997  17.479  0.00  0.00    +0.000 A 
ATOM     24  S   UNL     1      51.465   8.545  19.114  0.00  0.00    +0.000 S 
ATOM     25  C   UNL     1      50.356   7.268  18.926  0.00  0.00    +0.000 A 
ATOM     26  N   UNL     1      50.057   6.447  19.968  0.00  0.00    +0.000 NA
ATOM     27  C   UNL     1      49.228   5.493  19.685  0.00  0.00    +0.000 A 
ATOM     28  C   UNL     1      48.808   4.502  20.731  0.00  0.00    +0.000 C 
ATOM     29  N   UNL     1      48.669   5.303  18.443  0.00  0.00    +0.000 N 
ATOM     30  C   UNL     1      48.892   6.147  17.381  0.00  0.00    +0.000 A 
ATOM     31  O   UNL     1      48.288   6.013  16.323  0.00  0.00    +0.000 OA
ATOM     32  C   UNL     1      49.848   7.204  17.641  0.00  0.00    +0.000 A 
ATOM     33  H   UNL     1      48.003   4.562  18.281  0.00  0.00    +0.000 HD
ENDBRANCH  19  22
ENDBRANCH   1  18
TORSDOF 7
ENDMDL
