MODEL 1
REMARK VINA RESULT:    -9.011      0.000      0.000
REMARK INTER + INTRA:         -12.085
REMARK INTER:                 -11.382
REMARK INTRA:                  -0.703
REMARK UNBOUND:                -0.703
REMARK  Name = 
REMARK  5 active torsions:
REMARK  status: ('A' for Active; 'I' for Inactive)
REMARK    1  A    between atoms: C_2  and  C_4
REMARK    2  A    between atoms: N_8  and  C_9
REMARK    3  A    between atoms: C_9  and  C_10
REMARK    4  A    between atoms: C_14  and  N_15
REMARK    5  A    between atoms: C_18  and  O_19
REMARK                            x       y       z     vdW  Elec       q    Type
REMARK                         _______ _______ _______ _____ _____    ______ ____
ROOT
ATOM      1  C   UNL     1      43.617   4.833  11.122  0.00  0.00    +0.000 C 
ENDROOT
BRANCH   1   6
ATOM      2  C   UNL     1      46.523   2.535   7.600  0.00  0.00    +0.000 A 
ATOM      3  C   UNL     1      45.674   1.983   8.552  0.00  0.00    +0.000 A 
ATOM      4  C   UNL     1      44.867   2.829   9.317  0.00  0.00    +0.000 A 
ATOM      5  C   UNL     1      44.906   4.210   9.117  0.00  0.00    +0.000 A 
ATOM      6  N   UNL     1      44.047   5.086   9.760  0.00  0.00    +0.000 N 
ATOM      7  N   UNL     1      45.746   4.752   8.210  0.00  0.00    +0.000 NA
ATOM      8  C   UNL     1      46.540   3.916   7.483  0.00  0.00    +0.000 A 
ATOM      9  H   UNL     1      44.266   6.046   9.506  0.00  0.00    +0.000 HD
BRANCH   2  11
ATOM     10  N   UNL     1      48.490   2.332   6.188  0.00  0.00    +0.000 N 
ATOM     11  C   UNL     1      47.398   1.710   6.742  0.00  0.00    +0.000 C 
ATOM     12  O   UNL     1      47.179   0.527   6.558  0.00  0.00    +0.000 OA
ATOM     13  H   UNL     1      49.135   1.744   5.683  0.00  0.00    +0.000 HD
ATOM     14  H   UNL     1      48.827   3.228   6.509  0.00  0.00    +0.000 HD
ENDBRANCH   2  11
ENDBRANCH   1   6
BRANCH   1  15
ATOM     15  C   UNL     1      44.761   4.836  12.103  0.00  0.00    +0.000 A 
ATOM     16  C   UNL     1      45.161   3.680  12.758  0.00  0.00    +0.000 A 
ATOM     17  N   UNL     1      46.219   3.611  13.594  0.00  0.00    +0.000 NA
ATOM     18  C   UNL     1      46.922   4.758  13.777  0.00  0.00    +0.000 A 
ATOM     19  C   UNL     1      46.651   5.981  13.156  0.00  0.00    +0.000 A 
ATOM     20  C   UNL     1      45.523   5.992  12.327  0.00  0.00    +0.000 A 
BRANCH  19  21
ATOM     21  N   UNL     1      47.417   7.125  13.331  0.00  0.00    +0.000 N 
ATOM     22  C   UNL     1      48.839   7.137  12.996  0.00  0.00    +0.000 C 
ATOM     23  C   UNL     1      49.088   7.928  11.718  0.00  0.00    +0.000 C 
ATOM     24  C   UNL     1      48.453   9.316  11.772  0.00  0.00    +0.000 C 
ATOM     25  C   UNL     1      46.975   9.251  12.156  0.00  0.00    +0.000 C 
ATOM     26  C   UNL     1      46.748   8.430  13.428  0.00  0.00    +0.000 C 
BRANCH  24  27
ATOM     27  O   UNL     1      49.169  10.168  12.664  0.00  0.00    +0.000 OA
ATOM     28  H   UNL     1      49.827  10.677  12.161  0.00  0.00    +0.000 HD
ENDBRANCH  24  27
ENDBRANCH  19  21
ENDBRANCH   1  15
TORSDOF 5
ENDMDL
MODEL 2
REMARK VINA RESULT:    -8.470      2.025      3.075
REMARK INTER + INTRA:         -11.401
REMARK INTER:                 -10.618
REMARK INTRA:                  -0.783
REMARK UNBOUND:                -0.703
REMARK  Name = 
REMARK  5 active torsions:
REMARK  status: ('A' for Active; 'I' for Inactive)
REMARK    1  A    between atoms: C_2  and  C_4
REMARK    2  A    between atoms: N_8  and  C_9
REMARK    3  A    between atoms: C_9  and  C_10
REMARK    4  A    between atoms: C_14  and  N_15
REMARK    5  A    between atoms: C_18  and  O_19
REMARK                            x       y       z     vdW  Elec       q    Type
REMARK                         _______ _______ _______ _____ _____    ______ ____
ROOT
ATOM      1  C   UNL     1      43.594   4.949  10.941  0.00  0.00    +0.000 C 
ENDROOT
BRANCH   1   6
ATOM      2  C   UNL     1      46.415   2.227   7.661  0.00  0.00    +0.000 A 
ATOM      3  C   UNL     1      45.742   1.820   8.806  0.00  0.00    +0.000 A 
ATOM      4  C   UNL     1      44.911   2.729   9.467  0.00  0.00    +0.000 A 
ATOM      5  C   UNL     1      44.752   4.024   8.973  0.00  0.00    +0.000 A 
ATOM      6  N   UNL     1      43.852   4.930   9.514  0.00  0.00    +0.000 N 
ATOM      7  N   UNL     1      45.421   4.430   7.873  0.00  0.00    +0.000 NA
ATOM      8  C   UNL     1      46.242   3.539   7.249  0.00  0.00    +0.000 A 
ATOM      9  H   UNL     1      43.920   5.824   9.035  0.00  0.00    +0.000 HD
BRANCH   2  11
ATOM     10  N   UNL     1      48.411   1.888   6.317  0.00  0.00    +0.000 N 
ATOM     11  C   UNL     1      47.301   1.324   6.898  0.00  0.00    +0.000 C 
ATOM     12  O   UNL     1      47.076   0.131   6.812  0.00  0.00    +0.000 OA
ATOM     13  H   UNL     1      49.062   1.253   5.880  0.00  0.00    +0.000 HD
ATOM     14  H   UNL     1      48.749   2.806   6.567  0.00  0.00    +0.000 HD
ENDBRANCH   2  11
ENDBRANCH   1   6
BRANCH   1  15
ATOM     15  C   UNL     1      44.569   5.815  11.696  0.00  0.00    +0.000 A 
ATOM     16  C   UNL     1      44.419   7.193  11.763  0.00  0.00    +0.000 A 
ATOM     17  N   UNL     1      45.223   8.008  12.479  0.00  0.00    +0.000 NA
ATOM     18  C   UNL     1      46.224   7.413  13.176  0.00  0.00    +0.000 A 
ATOM     19  C   UNL     1      46.468   6.037  13.225  0.00  0.00    +0.000 A 
ATOM     20  C   UNL     1      45.619   5.252  12.436  0.00  0.00    +0.000 A 
BRANCH  19  21
ATOM     21  N   UNL     1      47.474   5.456  13.984  0.00  0.00    +0.000 N 
ATOM     22  C   UNL     1      48.580   6.256  14.506  0.00  0.00    +0.000 C 
ATOM     23  C   UNL     1      48.436   6.463  16.009  0.00  0.00    +0.000 C 
ATOM     24  C   UNL     1      48.220   5.146  16.750  0.00  0.00    +0.000 C 
ATOM     25  C   UNL     1      47.075   4.334  16.146  0.00  0.00    +0.000 C 
ATOM     26  C   UNL     1      47.228   4.161  14.633  0.00  0.00    +0.000 C 
BRANCH  24  27
ATOM     27  O   UNL     1      49.420   4.377  16.781  0.00  0.00    +0.000 OA
ATOM     28  H   UNL     1      49.738   4.242  15.872  0.00  0.00    +0.000 HD
ENDBRANCH  24  27
ENDBRANCH  19  21
ENDBRANCH   1  15
TORSDOF 5
ENDMDL
MODEL 3
REMARK VINA RESULT:    -7.706      1.800      2.477
REMARK INTER + INTRA:         -10.437
REMARK INTER:                  -9.718
REMARK INTRA:                  -0.718
REMARK UNBOUND:                -0.703
REMARK  Name = 
REMARK  5 active torsions:
REMARK  status: ('A' for Active; 'I' for Inactive)
REMARK    1  A    between atoms: C_2  and  C_4
REMARK    2  A    between atoms: N_8  and  C_9
REMARK    3  A    between atoms: C_9  and  C_10
REMARK    4  A    between atoms: C_14  and  N_15
REMARK    5  A    between atoms: C_18  and  O_19
REMARK                            x       y       z     vdW  Elec       q    Type
REMARK                         _______ _______ _______ _____ _____    ______ ____
ROOT
ATOM      1  C   UNL     1      43.915   5.332  10.992  0.00  0.00    +0.000 C 
ENDROOT
BRANCH   1   6
ATOM      2  C   UNL     1      46.316   2.016   7.932  0.00  0.00    +0.000 A 
ATOM      3  C   UNL     1      45.622   1.793   9.114  0.00  0.00    +0.000 A 
ATOM      4  C   UNL     1      44.922   2.850   9.702  0.00  0.00    +0.000 A 
ATOM      5  C   UNL     1      44.911   4.109   9.099  0.00  0.00    +0.000 A 
ATOM      6  N   UNL     1      44.140   5.160   9.570  0.00  0.00    +0.000 N 
ATOM      7  N   UNL     1      45.602   4.335   7.962  0.00  0.00    +0.000 NA
ATOM      8  C   UNL     1      46.296   3.300   7.410  0.00  0.00    +0.000 A 
ATOM      9  H   UNL     1      44.306   5.995   9.014  0.00  0.00    +0.000 HD
BRANCH   2  11
ATOM     10  N   UNL     1      46.760  -0.346   7.573  0.00  0.00    +0.000 N 
ATOM     11  C   UNL     1      47.071   0.950   7.241  0.00  0.00    +0.000 C 
ATOM     12  O   UNL     1      47.908   1.206   6.396  0.00  0.00    +0.000 OA
ATOM     13  H   UNL     1      47.209  -1.070   7.031  0.00  0.00    +0.000 HD
ATOM     14  H   UNL     1      45.922  -0.592   8.079  0.00  0.00    +0.000 HD
ENDBRANCH   2  11
ENDBRANCH   1   6
BRANCH   1  15
ATOM     15  C   UNL     1      44.808   6.384  11.599  0.00  0.00    +0.000 A 
ATOM     16  C   UNL     1      44.399   7.704  11.719  0.00  0.00    +0.000 A 
ATOM     17  N   UNL     1      45.130   8.672  12.313  0.00  0.00    +0.000 NA
ATOM     18  C   UNL     1      46.329   8.296  12.826  0.00  0.00    +0.000 A 
ATOM     19  C   UNL     1      46.848   6.998  12.805  0.00  0.00    +0.000 A 
ATOM     20  C   UNL     1      46.055   6.051  12.146  0.00  0.00    +0.000 A 
BRANCH  19  21
ATOM     21  N   UNL     1      48.060   6.639  13.377  0.00  0.00    +0.000 N 
ATOM     22  C   UNL     1      49.324   6.913  12.697  0.00  0.00    +0.000 C 
ATOM     23  C   UNL     1      50.065   8.059  13.372  0.00  0.00    +0.000 C 
ATOM     24  C   UNL     1      50.206   7.841  14.877  0.00  0.00    +0.000 C 
ATOM     25  C   UNL     1      48.863   7.527  15.535  0.00  0.00    +0.000 C 
ATOM     26  C   UNL     1      48.126   6.391  14.824  0.00  0.00    +0.000 C 
BRANCH  24  27
ATOM     27  O   UNL     1      51.155   6.814  15.155  0.00  0.00    +0.000 OA
ATOM     28  H   UNL     1      50.977   6.443  16.035  0.00  0.00    +0.000 HD
ENDBRANCH  24  27
ENDBRANCH  19  21
ENDBRANCH   1  15
TORSDOF 5
ENDMDL
MODEL 4
REMARK VINA RESULT:    -7.072      3.494      8.313
REMARK INTER + INTRA:          -9.636
REMARK INTER:                  -9.078
REMARK INTRA:                  -0.558
REMARK UNBOUND:                -0.703
REMARK  Name = 
REMARK  5 active torsions:
REMARK  status: ('A' for Active; 'I' for Inactive)
REMARK    1  A    between atoms: C_2  and  C_4
REMARK    2  A    between atoms: N_8  and  C_9
REMARK    3  A    between atoms: C_9  and  C_10
REMARK    4  A    between atoms: C_14  and  N_15
REMARK    5  A    between atoms: C_18  and  O_19
REMARK                            x       y       z     vdW  Elec       q    Type
REMARK                         _______ _______ _______ _____ _____    ______ ____
ROOT
ATOM      1  C   UNL     1      46.746   4.465  13.552  0.00  0.00    +0.000 C 
ENDROOT
BRANCH   1   6
ATOM      2  C   UNL     1      48.740   4.175  18.249  0.00  0.00    +0.000 A 
ATOM      3  C   UNL     1      47.962   5.171  17.673  0.00  0.00    +0.000 A 
ATOM      4  C   UNL     1      47.409   4.957  16.407  0.00  0.00    +0.000 A 
ATOM      5  C   UNL     1      47.628   3.752  15.739  0.00  0.00    +0.000 A 
ATOM      6  N   UNL     1      47.010   3.436  14.538  0.00  0.00    +0.000 N 
ATOM      7  N   UNL     1      48.401   2.790  16.285  0.00  0.00    +0.000 NA
ATOM      8  C   UNL     1      48.949   3.020  17.512  0.00  0.00    +0.000 A 
ATOM      9  H   UNL     1      47.334   2.533  14.202  0.00  0.00    +0.000 HD
BRANCH   2  11
ATOM     10  N   UNL     1      48.593   3.915  20.661  0.00  0.00    +0.000 N 
ATOM     11  C   UNL     1      49.349   4.318  19.587  0.00  0.00    +0.000 C 
ATOM     12  O   UNL     1      50.479   4.745  19.732  0.00  0.00    +0.000 OA
ATOM     13  H   UNL     1      49.048   3.924  21.562  0.00  0.00    +0.000 HD
ATOM     14  H   UNL     1      47.766   3.343  20.560  0.00  0.00    +0.000 HD
ENDBRANCH   2  11
ENDBRANCH   1   6
BRANCH   1  15
ATOM     15  C   UNL     1      45.508   4.186  12.738  0.00  0.00    +0.000 A 
ATOM     16  C   UNL     1      44.236   4.375  13.259  0.00  0.00    +0.000 A 
ATOM     17  N   UNL     1      43.097   4.204  12.555  0.00  0.00    +0.000 NA
ATOM     18  C   UNL     1      43.237   3.837  11.256  0.00  0.00    +0.000 A 
ATOM     19  C   UNL     1      44.454   3.646  10.596  0.00  0.00    +0.000 A 
ATOM     20  C   UNL     1      45.595   3.807  11.391  0.00  0.00    +0.000 A 
BRANCH  19  21
ATOM     21  N   UNL     1      44.563   3.312   9.253  0.00  0.00    +0.000 N 
ATOM     22  C   UNL     1      44.958   4.308   8.260  0.00  0.00    +0.000 C 
ATOM     23  C   UNL     1      46.386   4.065   7.786  0.00  0.00    +0.000 C 
ATOM     24  C   UNL     1      46.600   2.622   7.335  0.00  0.00    +0.000 C 
ATOM     25  C   UNL     1      46.142   1.620   8.395  0.00  0.00    +0.000 C 
ATOM     26  C   UNL     1      44.716   1.901   8.874  0.00  0.00    +0.000 C 
BRANCH  24  27
ATOM     27  O   UNL     1      45.945   2.374   6.093  0.00  0.00    +0.000 OA
ATOM     28  H   UNL     1      45.929   3.194   5.571  0.00  0.00    +0.000 HD
ENDBRANCH  24  27
ENDBRANCH  19  21
ENDBRANCH   1  15
TORSDOF 5
ENDMDL
MODEL 5
REMARK VINA RESULT:    -6.992      1.851      6.779
REMARK INTER + INTRA:          -9.534
REMARK INTER:                  -8.764
REMARK INTRA:                  -0.770
REMARK UNBOUND:                -0.703
REMARK  Name = 
REMARK  5 active torsions:
REMARK  status: ('A' for Active; 'I' for Inactive)
REMARK    1  A    between atoms: C_2  and  C_4
REMARK    2  A    between atoms: N_8  and  C_9
REMARK    3  A    between atoms: C_9  and  C_10
REMARK    4  A    between atoms: C_14  and  N_15
REMARK    5  A    between atoms: C_18  and  O_19
REMARK                            x       y       z     vdW  Elec       q    Type
REMARK                         _______ _______ _______ _____ _____    ______ ____
ROOT
ATOM      1  C   UNL     1      44.848   6.288  12.757  0.00  0.00    +0.000 C 
ENDROOT
BRANCH   1   6
ATOM      2  C   UNL     1      49.545   8.152  11.990  0.00  0.00    +0.000 A 
ATOM      3  C   UNL     1      48.308   8.696  11.667  0.00  0.00    +0.000 A 
ATOM      4  C   UNL     1      47.147   8.058  12.112  0.00  0.00    +0.000 A 
ATOM      5  C   UNL     1      47.232   6.896  12.880  0.00  0.00    +0.000 A 
ATOM      6  N   UNL     1      46.123   6.288  13.447  0.00  0.00    +0.000 N 
ATOM      7  N   UNL     1      48.431   6.352  13.177  0.00  0.00    +0.000 NA
ATOM      8  C   UNL     1      49.555   6.975  12.721  0.00  0.00    +0.000 A 
ATOM      9  H   UNL     1      46.397   5.438  13.932  0.00  0.00    +0.000 HD
BRANCH   2  11
ATOM     10  N   UNL     1      50.953  10.121  11.780  0.00  0.00    +0.000 N 
ATOM     11  C   UNL     1      50.819   8.771  11.570  0.00  0.00    +0.000 C 
ATOM     12  O   UNL     1      51.720   8.111  11.086  0.00  0.00    +0.000 OA
ATOM     13  H   UNL     1      51.858  10.521  11.581  0.00  0.00    +0.000 HD
ATOM     14  H   UNL     1      50.336  10.641  12.387  0.00  0.00    +0.000 HD
ENDBRANCH   2  11
ENDBRANCH   1   6
BRANCH   1  15
ATOM     15  C   UNL     1      44.472   4.927  12.231  0.00  0.00    +0.000 A 
ATOM     16  C   UNL     1      43.775   4.013  13.007  0.00  0.00    +0.000 A 
ATOM     17  N   UNL     1      43.355   2.808  12.565  0.00  0.00    +0.000 NA
ATOM     18  C   UNL     1      43.638   2.505  11.272  0.00  0.00    +0.000 A 
ATOM     19  C   UNL     1      44.301   3.344  10.371  0.00  0.00    +0.000 A 
ATOM     20  C   UNL     1      44.737   4.563  10.902  0.00  0.00    +0.000 A 
BRANCH  19  21
ATOM     21  N   UNL     1      44.536   3.021   9.042  0.00  0.00    +0.000 N 
ATOM     22  C   UNL     1      44.943   4.043   8.080  0.00  0.00    +0.000 C 
ATOM     23  C   UNL     1      46.416   3.892   7.721  0.00  0.00    +0.000 C 
ATOM     24  C   UNL     1      46.756   2.467   7.291  0.00  0.00    +0.000 C 
ATOM     25  C   UNL     1      46.281   1.435   8.314  0.00  0.00    +0.000 C 
ATOM     26  C   UNL     1      44.807   1.623   8.679  0.00  0.00    +0.000 C 
BRANCH  24  27
ATOM     27  O   UNL     1      46.218   2.182   6.002  0.00  0.00    +0.000 OA
ATOM     28  H   UNL     1      46.932   2.206   5.344  0.00  0.00    +0.000 HD
ENDBRANCH  24  27
ENDBRANCH  19  21
ENDBRANCH   1  15
TORSDOF 5
ENDMDL
MODEL 6
REMARK VINA RESULT:    -6.629      4.021      8.668
REMARK INTER + INTRA:          -9.076
REMARK INTER:                  -8.290
REMARK INTRA:                  -0.785
REMARK UNBOUND:                -0.703
REMARK  Name = 
REMARK  5 active torsions:
REMARK  status: ('A' for Active; 'I' for Inactive)
REMARK    1  A    between atoms: C_2  and  C_4
REMARK    2  A    between atoms: N_8  and  C_9
REMARK    3  A    between atoms: C_9  and  C_10
REMARK    4  A    between atoms: C_14  and  N_15
REMARK    5  A    between atoms: C_18  and  O_19
REMARK                            x       y       z     vdW  Elec       q    Type
REMARK                         _______ _______ _______ _____ _____    ______ ____
ROOT
ATOM      1  C   UNL     1      49.158   7.179  13.978  0.00  0.00    +0.000 C 
ENDROOT
BRANCH   1   6
ATOM      2  C   UNL     1      48.441   5.851  18.861  0.00  0.00    +0.000 A 
ATOM      3  C   UNL     1      48.803   5.070  17.770  0.00  0.00    +0.000 A 
ATOM      4  C   UNL     1      49.080   5.691  16.550  0.00  0.00    +0.000 A 
ATOM      5  C   UNL     1      49.006   7.080  16.434  0.00  0.00    +0.000 A 
ATOM      6  N   UNL     1      49.383   7.760  15.287  0.00  0.00    +0.000 N 
ATOM      7  N   UNL     1      48.633   7.841  17.486  0.00  0.00    +0.000 NA
ATOM      8  C   UNL     1      48.348   7.220  18.665  0.00  0.00    +0.000 A 
ATOM      9  H   UNL     1      49.215   8.757  15.396  0.00  0.00    +0.000 HD
BRANCH   2  11
ATOM     10  N   UNL     1      48.581   3.992  20.420  0.00  0.00    +0.000 N 
ATOM     11  C   UNL     1      48.144   5.273  20.188  0.00  0.00    +0.000 C 
ATOM     12  O   UNL     1      47.565   5.912  21.047  0.00  0.00    +0.000 OA
ATOM     13  H   UNL     1      48.461   3.638  21.357  0.00  0.00    +0.000 HD
ATOM     14  H   UNL     1      49.261   3.534  19.830  0.00  0.00    +0.000 HD
ENDBRANCH   2  11
ENDBRANCH   1   6
BRANCH   1  15
ATOM     15  C   UNL     1      47.708   7.212  13.569  0.00  0.00    +0.000 A 
ATOM     16  C   UNL     1      47.099   8.383  13.140  0.00  0.00    +0.000 A 
ATOM     17  N   UNL     1      45.824   8.456  12.700  0.00  0.00    +0.000 NA
ATOM     18  C   UNL     1      45.124   7.293  12.676  0.00  0.00    +0.000 A 
ATOM     19  C   UNL     1      45.622   6.041  13.046  0.00  0.00    +0.000 A 
ATOM     20  C   UNL     1      46.939   6.040  13.523  0.00  0.00    +0.000 A 
BRANCH  19  21
ATOM     21  N   UNL     1      44.893   4.863  12.968  0.00  0.00    +0.000 N 
ATOM     22  C   UNL     1      43.433   4.883  12.934  0.00  0.00    +0.000 C 
ATOM     23  C   UNL     1      42.918   4.553  11.538  0.00  0.00    +0.000 C 
ATOM     24  C   UNL     1      43.532   3.266  10.992  0.00  0.00    +0.000 C 
ATOM     25  C   UNL     1      45.058   3.282  11.079  0.00  0.00    +0.000 C 
ATOM     26  C   UNL     1      45.551   3.641  12.483  0.00  0.00    +0.000 C 
BRANCH  24  27
ATOM     27  O   UNL     1      43.002   2.125  11.663  0.00  0.00    +0.000 OA
ATOM     28  H   UNL     1      42.210   2.386  12.163  0.00  0.00    +0.000 HD
ENDBRANCH  24  27
ENDBRANCH  19  21
ENDBRANCH   1  15
TORSDOF 5
ENDMDL
MODEL 7
REMARK VINA RESULT:    -6.628      4.816      8.131
REMARK INTER + INTRA:          -9.075
REMARK INTER:                  -8.455
REMARK INTRA:                  -0.620
REMARK UNBOUND:                -0.703
REMARK  Name = 
REMARK  5 active torsions:
REMARK  status: ('A' for Active; 'I' for Inactive)
REMARK    1  A    between atoms: C_2  and  C_4
REMARK    2  A    between atoms: N_8  and  C_9
REMARK    3  A    between atoms: C_9  and  C_10
REMARK    4  A    between atoms: C_14  and  N_15
REMARK    5  A    between atoms: C_18  and  O_19
REMARK                            x       y       z     vdW  Elec       q    Type
REMARK                         _______ _______ _______ _____ _____    ______ ____
ROOT
ATOM      1  C   UNL     1      47.159   4.189  16.984  0.00  0.00    +0.000 C 
ENDROOT
BRANCH   1   6
ATOM      2  C   UNL     1      51.886   2.433  17.821  0.00  0.00    +0.000 A 
ATOM      3  C   UNL     1      51.212   3.493  18.415  0.00  0.00    +0.000 A 
ATOM      4  C   UNL     1      49.861   3.693  18.119  0.00  0.00    +0.000 A 
ATOM      5  C   UNL     1      49.197   2.829  17.247  0.00  0.00    +0.000 A 
ATOM      6  N   UNL     1      47.833   2.905  17.009  0.00  0.00    +0.000 N 
ATOM      7  N   UNL     1      49.853   1.812  16.651  0.00  0.00    +0.000 NA
ATOM      8  C   UNL     1      51.175   1.640  16.934  0.00  0.00    +0.000 A 
ATOM      9  H   UNL     1      47.558   2.214  16.316  0.00  0.00    +0.000 HD
BRANCH   2  11
ATOM     10  N   UNL     1      53.612   0.895  18.570  0.00  0.00    +0.000 N 
ATOM     11  C   UNL     1      53.310   2.146  18.090  0.00  0.00    +0.000 C 
ATOM     12  O   UNL     1      54.179   2.969  17.871  0.00  0.00    +0.000 OA
ATOM     13  H   UNL     1      54.592   0.672  18.660  0.00  0.00    +0.000 HD
ATOM     14  H   UNL     1      52.959   0.126  18.533  0.00  0.00    +0.000 HD
ENDBRANCH   2  11
ENDBRANCH   1   6
BRANCH   1  15
ATOM     15  C   UNL     1      47.408   4.952  15.708  0.00  0.00    +0.000 A 
ATOM     16  C   UNL     1      48.472   5.833  15.582  0.00  0.00    +0.000 A 
ATOM     17  N   UNL     1      48.780   6.491  14.444  0.00  0.00    +0.000 NA
ATOM     18  C   UNL     1      47.988   6.246  13.370  0.00  0.00    +0.000 A 
ATOM     19  C   UNL     1      46.907   5.360  13.347  0.00  0.00    +0.000 A 
ATOM     20  C   UNL     1      46.622   4.736  14.567  0.00  0.00    +0.000 A 
BRANCH  19  21
ATOM     21  N   UNL     1      46.143   5.100  12.218  0.00  0.00    +0.000 N 
ATOM     22  C   UNL     1      45.213   3.973  12.182  0.00  0.00    +0.000 C 
ATOM     23  C   UNL     1      43.771   4.457  12.273  0.00  0.00    +0.000 C 
ATOM     24  C   UNL     1      43.467   5.544  11.245  0.00  0.00    +0.000 C 
ATOM     25  C   UNL     1      44.485   6.683  11.301  0.00  0.00    +0.000 C 
ATOM     26  C   UNL     1      45.925   6.170  11.235  0.00  0.00    +0.000 C 
BRANCH  24  27
ATOM     27  O   UNL     1      43.398   4.995   9.930  0.00  0.00    +0.000 OA
ATOM     28  H   UNL     1      43.538   5.704   9.280  0.00  0.00    +0.000 HD
ENDBRANCH  24  27
ENDBRANCH  19  21
ENDBRANCH   1  15
TORSDOF 5
ENDMDL
MODEL 8
REMARK VINA RESULT:    -6.615      4.475      7.962
REMARK INTER + INTRA:          -9.059
REMARK INTER:                  -8.325
REMARK INTRA:                  -0.733
REMARK UNBOUND:                -0.703
REMARK  Name = 
REMARK  5 active torsions:
REMARK  status: ('A' for Active; 'I' for Inactive)
REMARK    1  A    between atoms: C_2  and  C_4
REMARK    2  A    between atoms: N_8  and  C_9
REMARK    3  A    between atoms: C_9  and  C_10
REMARK    4  A    between atoms: C_14  and  N_15
REMARK    5  A    between atoms: C_18  and  O_19
REMARK                            x       y       z     vdW  Elec       q    Type
REMARK                         _______ _______ _______ _____ _____    ______ ____
ROOT
ATOM      1  C   UNL     1      48.633   6.747  15.954  0.00  0.00    +0.000 C 
ENDROOT
BRANCH   1   6
ATOM      2  C   UNL     1      51.175   2.568  17.436  0.00  0.00    +0.000 A 
ATOM      3  C   UNL     1      51.543   3.906  17.509  0.00  0.00    +0.000 A 
ATOM      4  C   UNL     1      50.610   4.888  17.168  0.00  0.00    +0.000 A 
ATOM      5  C   UNL     1      49.321   4.527  16.771  0.00  0.00    +0.000 A 
ATOM      6  N   UNL     1      48.320   5.456  16.536  0.00  0.00    +0.000 N 
ATOM      7  N   UNL     1      48.967   3.228  16.678  0.00  0.00    +0.000 NA
ATOM      8  C   UNL     1      49.893   2.280  16.996  0.00  0.00    +0.000 A 
ATOM      9  H   UNL     1      47.473   4.990  16.221  0.00  0.00    +0.000 HD
BRANCH   2  11
ATOM     10  N   UNL     1      51.530   0.271  18.145  0.00  0.00    +0.000 N 
ATOM     11  C   UNL     1      52.098   1.470  17.792  0.00  0.00    +0.000 C 
ATOM     12  O   UNL     1      53.306   1.611  17.746  0.00  0.00    +0.000 OA
ATOM     13  H   UNL     1      52.163  -0.502  18.293  0.00  0.00    +0.000 HD
ATOM     14  H   UNL     1      50.561   0.053  17.962  0.00  0.00    +0.000 HD
ENDBRANCH   2  11
ENDBRANCH   1   6
BRANCH   1  15
ATOM     15  C   UNL     1      48.192   6.860  14.518  0.00  0.00    +0.000 A 
ATOM     16  C   UNL     1      48.788   7.754  13.641  0.00  0.00    +0.000 A 
ATOM     17  N   UNL     1      48.479   7.851  12.330  0.00  0.00    +0.000 NA
ATOM     18  C   UNL     1      47.529   6.998  11.868  0.00  0.00    +0.000 A 
ATOM     19  C   UNL     1      46.873   6.027  12.630  0.00  0.00    +0.000 A 
ATOM     20  C   UNL     1      47.217   6.002  13.987  0.00  0.00    +0.000 A 
BRANCH  19  21
ATOM     21  N   UNL     1      45.937   5.141  12.117  0.00  0.00    +0.000 N 
ATOM     22  C   UNL     1      45.349   4.099  12.954  0.00  0.00    +0.000 C 
ATOM     23  C   UNL     1      43.905   4.435  13.305  0.00  0.00    +0.000 C 
ATOM     24  C   UNL     1      43.080   4.773  12.066  0.00  0.00    +0.000 C 
ATOM     25  C   UNL     1      43.752   5.844  11.208  0.00  0.00    +0.000 C 
ATOM     26  C   UNL     1      45.208   5.496  10.891  0.00  0.00    +0.000 C 
BRANCH  24  27
ATOM     27  O   UNL     1      42.817   3.602  11.295  0.00  0.00    +0.000 OA
ATOM     28  H   UNL     1      43.081   3.760  10.373  0.00  0.00    +0.000 HD
ENDBRANCH  24  27
ENDBRANCH  19  21
ENDBRANCH   1  15
TORSDOF 5
ENDMDL
MODEL 9
REMARK VINA RESULT:    -6.573      3.935      6.199
REMARK INTER + INTRA:          -9.005
REMARK INTER:                  -8.235
REMARK INTRA:                  -0.770
REMARK UNBOUND:                -0.703
REMARK  Name = 
REMARK  5 active torsions:
REMARK  status: ('A' for Active; 'I' for Inactive)
REMARK    1  A    between atoms: C_2  and  C_4
REMARK    2  A    between atoms: N_8  and  C_9
REMARK    3  A    between atoms: C_9  and  C_10
REMARK    4  A    between atoms: C_14  and  N_15
REMARK    5  A    between atoms: C_18  and  O_19
REMARK                            x       y       z     vdW  Elec       q    Type
REMARK                         _______ _______ _______ _____ _____    ______ ____
ROOT
ATOM      1  C   UNL     1      49.022   7.218  13.159  0.00  0.00    +0.000 C 
ENDROOT
BRANCH   1   6
ATOM      2  C   UNL     1      45.052   4.280  11.844  0.00  0.00    +0.000 A 
ATOM      3  C   UNL     1      45.859   4.231  12.974  0.00  0.00    +0.000 A 
ATOM      4  C   UNL     1      46.801   5.242  13.181  0.00  0.00    +0.000 A 
ATOM      5  C   UNL     1      46.920   6.292  12.269  0.00  0.00    +0.000 A 
ATOM      6  N   UNL     1      47.750   7.381  12.481  0.00  0.00    +0.000 N 
ATOM      7  N   UNL     1      46.153   6.331  11.159  0.00  0.00    +0.000 NA
ATOM      8  C   UNL     1      45.251   5.329  10.960  0.00  0.00    +0.000 A 
ATOM      9  H   UNL     1      47.719   8.009  11.682  0.00  0.00    +0.000 HD
BRANCH   2  11
ATOM     10  N   UNL     1      43.778   2.332  12.542  0.00  0.00    +0.000 N 
ATOM     11  C   UNL     1      44.024   3.258  11.558  0.00  0.00    +0.000 C 
ATOM     12  O   UNL     1      43.402   3.253  10.512  0.00  0.00    +0.000 OA
ATOM     13  H   UNL     1      43.009   1.697  12.381  0.00  0.00    +0.000 HD
ATOM     14  H   UNL     1      44.094   2.452  13.493  0.00  0.00    +0.000 HD
ENDBRANCH   2  11
ENDBRANCH   1   6
BRANCH   1  15
ATOM     15  C   UNL     1      48.963   7.619  14.610  0.00  0.00    +0.000 A 
ATOM     16  C   UNL     1      48.876   8.949  14.996  0.00  0.00    +0.000 A 
ATOM     17  N   UNL     1      48.753   9.360  16.276  0.00  0.00    +0.000 NA
ATOM     18  C   UNL     1      48.703   8.388  17.222  0.00  0.00    +0.000 A 
ATOM     19  C   UNL     1      48.746   7.013  16.973  0.00  0.00    +0.000 A 
ATOM     20  C   UNL     1      48.906   6.656  15.628  0.00  0.00    +0.000 A 
BRANCH  19  21
ATOM     21  N   UNL     1      48.648   6.043  17.960  0.00  0.00    +0.000 N 
ATOM     22  C   UNL     1      47.359   5.448  18.306  0.00  0.00    +0.000 C 
ATOM     23  C   UNL     1      47.263   4.022  17.779  0.00  0.00    +0.000 C 
ATOM     24  C   UNL     1      48.466   3.177  18.192  0.00  0.00    +0.000 C 
ATOM     25  C   UNL     1      49.788   3.857  17.838  0.00  0.00    +0.000 C 
ATOM     26  C   UNL     1      49.850   5.296  18.355  0.00  0.00    +0.000 C 
BRANCH  24  27
ATOM     27  O   UNL     1      48.416   2.868  19.584  0.00  0.00    +0.000 OA
ATOM     28  H   UNL     1      47.874   2.072  19.715  0.00  0.00    +0.000 HD
ENDBRANCH  24  27
ENDBRANCH  19  21
ENDBRANCH   1  15
TORSDOF 5
ENDMDL
