MODEL 1
REMARK VINA RESULT:    -7.961      0.000      0.000
REMARK INTER + INTRA:         -10.320
REMARK INTER:                  -9.823
REMARK INTRA:                  -0.497
REMARK UNBOUND:                -0.497
REMARK  Name = 
REMARK  5 active torsions:
REMARK  status: ('A' for Active; 'I' for Inactive)
REMARK    1  A    between atoms: C_1  and  C_2
REMARK    2  A    between atoms: C_2  and  C_3
REMARK    3  A    between atoms: C_2  and  C_14
REMARK    4  A    between atoms: C_3  and  N_4
REMARK    5  A    between atoms: C_8  and  C_9
REMARK                            x       y       z     vdW  Elec       q    Type
REMARK                         _______ _______ _______ _____ _____    ______ ____
ROOT
ATOM      1  N   UNL     1      43.782   4.559   9.721  0.00  0.00    +0.000 N 
ATOM      2  C   UNL     1      44.755   3.880   9.005  0.00  0.00    +0.000 A 
ATOM      3  N   UNL     1      44.850   2.545   9.106  0.00  0.00    +0.000 NA
ATOM      4  C   UNL     1      45.827   1.942   8.403  0.00  0.00    +0.000 A 
ATOM      5  C   UNL     1      46.703   2.614   7.586  0.00  0.00    +0.000 A 
ATOM      6  C   UNL     1      46.532   3.978   7.549  0.00  0.00    +0.000 A 
ATOM      7  N   UNL     1      45.571   4.630   8.247  0.00  0.00    +0.000 NA
ATOM      8  H   UNL     1      44.103   5.515   9.818  0.00  0.00    +0.000 HD
ENDROOT
BRANCH   5   9
ATOM      9  C   UNL     1      47.752   1.877   6.870  0.00  0.00    +0.000 C 
ATOM     10  N   UNL     1      48.654   2.589   6.133  0.00  0.00    +0.000 N 
ATOM     11  O   UNL     1      47.797   0.654   6.910  0.00  0.00    +0.000 OA
ATOM     12  H   UNL     1      48.528   3.556   5.868  0.00  0.00    +0.000 HD
ATOM     13  H   UNL     1      49.298   2.038   5.575  0.00  0.00    +0.000 HD
ENDBRANCH   5   9
BRANCH   1  14
ATOM     14  C   UNL     1      43.419   3.912  10.965  0.00  0.00    +0.000 C 
BRANCH  14  16
ATOM     15  C   UNL     1      42.270   5.899  12.118  0.00  0.00    +0.000 C 
ATOM     16  C   UNL     1      43.435   4.963  12.036  0.00  0.00    +0.000 C 
BRANCH  16  17
ATOM     17  C   UNL     1      44.734   5.345  12.606  0.00  0.00    +0.000 A 
ATOM     18  C   UNL     1      45.553   4.390  13.219  0.00  0.00    +0.000 A 
ATOM     19  C   UNL     1      46.828   4.739  13.671  0.00  0.00    +0.000 A 
ATOM     20  C   UNL     1      47.292   6.042  13.511  0.00  0.00    +0.000 A 
ATOM     21  C   UNL     1      46.475   7.004  12.922  0.00  0.00    +0.000 A 
ATOM     22  C   UNL     1      45.197   6.659  12.482  0.00  0.00    +0.000 A 
ENDBRANCH  16  17
ENDBRANCH  14  16
ENDBRANCH   1  14
TORSDOF 4
ENDMDL
MODEL 2
REMARK VINA RESULT:    -7.392      2.942      6.187
REMARK INTER + INTRA:          -9.618
REMARK INTER:                  -9.244
REMARK INTRA:                  -0.374
REMARK UNBOUND:                -0.497
REMARK  Name = 
REMARK  5 active torsions:
REMARK  status: ('A' for Active; 'I' for Inactive)
REMARK    1  A    between atoms: C_1  and  C_2
REMARK    2  A    between atoms: C_2  and  C_3
REMARK    3  A    between atoms: C_2  and  C_14
REMARK    4  A    between atoms: C_3  and  N_4
REMARK    5  A    between atoms: C_8  and  C_9
REMARK                            x       y       z     vdW  Elec       q    Type
REMARK                         _______ _______ _______ _____ _____    ______ ____
ROOT
ATOM      1  N   UNL     1      43.748   4.734  10.488  0.00  0.00    +0.000 N 
ATOM      2  C   UNL     1      44.738   5.272  11.293  0.00  0.00    +0.000 A 
ATOM      3  N   UNL     1      45.696   6.040  10.753  0.00  0.00    +0.000 NA
ATOM      4  C   UNL     1      46.643   6.520  11.581  0.00  0.00    +0.000 A 
ATOM      5  C   UNL     1      46.664   6.281  12.933  0.00  0.00    +0.000 A 
ATOM      6  C   UNL     1      45.646   5.480  13.396  0.00  0.00    +0.000 A 
ATOM      7  N   UNL     1      44.678   4.967  12.600  0.00  0.00    +0.000 NA
ATOM      8  H   UNL     1      43.383   3.923  10.975  0.00  0.00    +0.000 HD
ENDROOT
BRANCH   5   9
ATOM      9  C   UNL     1      47.747   6.828  13.759  0.00  0.00    +0.000 C 
ATOM     10  N   UNL     1      47.559   8.045  14.349  0.00  0.00    +0.000 N 
ATOM     11  O   UNL     1      48.802   6.223  13.890  0.00  0.00    +0.000 OA
ATOM     12  H   UNL     1      46.825   8.691  14.088  0.00  0.00    +0.000 HD
ATOM     13  H   UNL     1      48.365   8.432  14.826  0.00  0.00    +0.000 HD
ENDBRANCH   5   9
BRANCH   1  14
ATOM     14  C   UNL     1      44.179   4.481   9.128  0.00  0.00    +0.000 C 
BRANCH  14  16
ATOM     15  C   UNL     1      44.166   2.134  10.173  0.00  0.00    +0.000 C 
ATOM     16  C   UNL     1      44.563   3.033   9.044  0.00  0.00    +0.000 C 
BRANCH  16  17
ATOM     17  C   UNL     1      45.682   2.668   8.165  0.00  0.00    +0.000 A 
ATOM     18  C   UNL     1      46.205   1.370   8.176  0.00  0.00    +0.000 A 
ATOM     19  C   UNL     1      47.203   1.002   7.270  0.00  0.00    +0.000 A 
ATOM     20  C   UNL     1      47.682   1.928   6.347  0.00  0.00    +0.000 A 
ATOM     21  C   UNL     1      47.183   3.229   6.344  0.00  0.00    +0.000 A 
ATOM     22  C   UNL     1      46.195   3.600   7.257  0.00  0.00    +0.000 A 
ENDBRANCH  16  17
ENDBRANCH  14  16
ENDBRANCH   1  14
TORSDOF 4
ENDMDL
MODEL 3
REMARK VINA RESULT:    -7.301      3.296      5.854
REMARK INTER + INTRA:          -9.506
REMARK INTER:                  -8.880
REMARK INTRA:                  -0.626
REMARK UNBOUND:                -0.497
REMARK  Name = 
REMARK  5 active torsions:
REMARK  status: ('A' for Active; 'I' for Inactive)
REMARK    1  A    between atoms: C_1  and  C_2
REMARK    2  A    between atoms: C_2  and  C_3
REMARK    3  A    between atoms: C_2  and  C_14
REMARK    4  A    between atoms: C_3  and  N_4
REMARK    5  A    between atoms: C_8  and  C_9
REMARK                            x       y       z     vdW  Elec       q    Type
REMARK                         _______ _______ _______ _____ _____    ______ ____
ROOT
ATOM      1  N   UNL     1      43.960   5.178  12.286  0.00  0.00    +0.000 N 
ATOM      2  C   UNL     1      45.252   5.616  12.526  0.00  0.00    +0.000 A 
ATOM      3  N   UNL     1      45.859   6.424  11.644  0.00  0.00    +0.000 NA
ATOM      4  C   UNL     1      47.121   6.802  11.920  0.00  0.00    +0.000 A 
ATOM      5  C   UNL     1      47.799   6.421  13.053  0.00  0.00    +0.000 A 
ATOM      6  C   UNL     1      47.099   5.590  13.895  0.00  0.00    +0.000 A 
ATOM      7  N   UNL     1      45.833   5.175  13.655  0.00  0.00    +0.000 NA
ATOM      8  H   UNL     1      43.835   4.325  12.820  0.00  0.00    +0.000 HD
ENDROOT
BRANCH   5   9
ATOM      9  C   UNL     1      49.182   6.865  13.264  0.00  0.00    +0.000 C 
ATOM     10  N   UNL     1      49.930   7.194  12.171  0.00  0.00    +0.000 N 
ATOM     11  O   UNL     1      49.661   6.910  14.390  0.00  0.00    +0.000 OA
ATOM     12  H   UNL     1      49.679   6.951  11.222  0.00  0.00    +0.000 HD
ATOM     13  H   UNL     1      50.907   7.398  12.351  0.00  0.00    +0.000 HD
ENDBRANCH   5   9
BRANCH   1  14
ATOM     14  C   UNL     1      43.638   5.064  10.878  0.00  0.00    +0.000 C 
BRANCH  14  16
ATOM     15  C   UNL     1      43.456   2.583  11.518  0.00  0.00    +0.000 C 
ATOM     16  C   UNL     1      43.802   3.621  10.498  0.00  0.00    +0.000 C 
BRANCH  16  17
ATOM     17  C   UNL     1      44.719   3.301   9.397  0.00  0.00    +0.000 A 
ATOM     18  C   UNL     1      45.271   4.317   8.609  0.00  0.00    +0.000 A 
ATOM     19  C   UNL     1      46.218   4.014   7.626  0.00  0.00    +0.000 A 
ATOM     20  C   UNL     1      46.619   2.696   7.428  0.00  0.00    +0.000 A 
ATOM     21  C   UNL     1      46.057   1.675   8.191  0.00  0.00    +0.000 A 
ATOM     22  C   UNL     1      45.103   1.976   9.164  0.00  0.00    +0.000 A 
ENDBRANCH  16  17
ENDBRANCH  14  16
ENDBRANCH   1  14
TORSDOF 4
ENDMDL
MODEL 4
REMARK VINA RESULT:    -6.517      4.646      7.211
REMARK INTER + INTRA:          -8.539
REMARK INTER:                  -8.166
REMARK INTRA:                  -0.373
REMARK UNBOUND:                -0.497
REMARK  Name = 
REMARK  5 active torsions:
REMARK  status: ('A' for Active; 'I' for Inactive)
REMARK    1  A    between atoms: C_1  and  C_2
REMARK    2  A    between atoms: C_2  and  C_3
REMARK    3  A    between atoms: C_2  and  C_14
REMARK    4  A    between atoms: C_3  and  N_4
REMARK    5  A    between atoms: C_8  and  C_9
REMARK                            x       y       z     vdW  Elec       q    Type
REMARK                         _______ _______ _______ _____ _____    ______ ____
ROOT
ATOM      1  N   UNL     1      46.494   5.060  12.817  0.00  0.00    +0.000 N 
ATOM      2  C   UNL     1      47.023   4.987  14.096  0.00  0.00    +0.000 A 
ATOM      3  N   UNL     1      46.619   4.019  14.933  0.00  0.00    +0.000 NA
ATOM      4  C   UNL     1      47.152   4.009  16.168  0.00  0.00    +0.000 A 
ATOM      5  C   UNL     1      48.090   4.915  16.600  0.00  0.00    +0.000 A 
ATOM      6  C   UNL     1      48.440   5.872  15.676  0.00  0.00    +0.000 A 
ATOM      7  N   UNL     1      47.923   5.928  14.425  0.00  0.00    +0.000 NA
ATOM      8  H   UNL     1      46.615   6.017  12.505  0.00  0.00    +0.000 HD
ENDROOT
BRANCH   5   9
ATOM      9  C   UNL     1      48.605   4.842  17.972  0.00  0.00    +0.000 C 
ATOM     10  N   UNL     1      48.069   3.911  18.815  0.00  0.00    +0.000 N 
ATOM     11  O   UNL     1      49.470   5.616  18.360  0.00  0.00    +0.000 OA
ATOM     12  H   UNL     1      47.205   3.418  18.635  0.00  0.00    +0.000 HD
ATOM     13  H   UNL     1      48.380   3.959  19.779  0.00  0.00    +0.000 HD
ENDBRANCH   5   9
BRANCH   1  14
ATOM     14  C   UNL     1      45.140   4.556  12.719  0.00  0.00    +0.000 C 
BRANCH  14  16
ATOM     15  C   UNL     1      43.367   5.906  11.443  0.00  0.00    +0.000 C 
ATOM     16  C   UNL     1      44.580   5.031  11.411  0.00  0.00    +0.000 C 
BRANCH  16  17
ATOM     17  C   UNL     1      44.907   4.262  10.203  0.00  0.00    +0.000 A 
ATOM     18  C   UNL     1      45.580   4.863   9.134  0.00  0.00    +0.000 A 
ATOM     19  C   UNL     1      45.975   4.103   8.030  0.00  0.00    +0.000 A 
ATOM     20  C   UNL     1      45.701   2.739   7.989  0.00  0.00    +0.000 A 
ATOM     21  C   UNL     1      45.010   2.136   9.038  0.00  0.00    +0.000 A 
ATOM     22  C   UNL     1      44.605   2.898  10.136  0.00  0.00    +0.000 A 
ENDBRANCH  16  17
ENDBRANCH  14  16
ENDBRANCH   1  14
TORSDOF 4
ENDMDL
MODEL 5
REMARK VINA RESULT:    -6.316      4.541      6.258
REMARK INTER + INTRA:          -8.291
REMARK INTER:                  -7.947
REMARK INTRA:                  -0.344
REMARK UNBOUND:                -0.497
REMARK  Name = 
REMARK  5 active torsions:
REMARK  status: ('A' for Active; 'I' for Inactive)
REMARK    1  A    between atoms: C_1  and  C_2
REMARK    2  A    between atoms: C_2  and  C_3
REMARK    3  A    between atoms: C_2  and  C_14
REMARK    4  A    between atoms: C_3  and  N_4
REMARK    5  A    between atoms: C_8  and  C_9
REMARK                            x       y       z     vdW  Elec       q    Type
REMARK                         _______ _______ _______ _____ _____    ______ ____
ROOT
ATOM      1  N   UNL     1      47.155   4.919  15.202  0.00  0.00    +0.000 N 
ATOM      2  C   UNL     1      46.510   4.892  13.976  0.00  0.00    +0.000 A 
ATOM      3  N   UNL     1      45.806   3.808  13.615  0.00  0.00    +0.000 NA
ATOM      4  C   UNL     1      45.217   3.830  12.405  0.00  0.00    +0.000 A 
ATOM      5  C   UNL     1      45.283   4.900  11.545  0.00  0.00    +0.000 A 
ATOM      6  C   UNL     1      46.029   5.962  11.999  0.00  0.00    +0.000 A 
ATOM      7  N   UNL     1      46.649   5.981  13.203  0.00  0.00    +0.000 NA
ATOM      8  H   UNL     1      47.902   5.601  15.125  0.00  0.00    +0.000 HD
ENDROOT
BRANCH   5   9
ATOM      9  C   UNL     1      44.626   4.830  10.235  0.00  0.00    +0.000 C 
ATOM     10  N   UNL     1      45.406   4.881   9.116  0.00  0.00    +0.000 N 
ATOM     11  O   UNL     1      43.407   4.759  10.148  0.00  0.00    +0.000 OA
ATOM     12  H   UNL     1      46.373   5.178   9.115  0.00  0.00    +0.000 HD
ATOM     13  H   UNL     1      44.908   4.932   8.234  0.00  0.00    +0.000 HD
ENDBRANCH   5   9
BRANCH   1  14
ATOM     14  C   UNL     1      47.573   3.612  15.667  0.00  0.00    +0.000 C 
BRANCH  14  16
ATOM     15  C   UNL     1      47.345   4.754  17.956  0.00  0.00    +0.000 C 
ATOM     16  C   UNL     1      48.058   3.775  17.078  0.00  0.00    +0.000 C 
BRANCH  16  17
ATOM     17  C   UNL     1      49.438   3.375  17.381  0.00  0.00    +0.000 A 
ATOM     18  C   UNL     1      49.884   2.078  17.103  0.00  0.00    +0.000 A 
ATOM     19  C   UNL     1      51.223   1.733  17.303  0.00  0.00    +0.000 A 
ATOM     20  C   UNL     1      52.124   2.682  17.778  0.00  0.00    +0.000 A 
ATOM     21  C   UNL     1      51.684   3.969  18.080  0.00  0.00    +0.000 A 
ATOM     22  C   UNL     1      50.345   4.310  17.892  0.00  0.00    +0.000 A 
ENDBRANCH  16  17
ENDBRANCH  14  16
ENDBRANCH   1  14
TORSDOF 4
ENDMDL
MODEL 6
REMARK VINA RESULT:    -6.300      3.510      6.349
REMARK INTER + INTRA:          -8.271
REMARK INTER:                  -7.806
REMARK INTRA:                  -0.466
REMARK UNBOUND:                -0.497
REMARK  Name = 
REMARK  5 active torsions:
REMARK  status: ('A' for Active; 'I' for Inactive)
REMARK    1  A    between atoms: C_1  and  C_2
REMARK    2  A    between atoms: C_2  and  C_3
REMARK    3  A    between atoms: C_2  and  C_14
REMARK    4  A    between atoms: C_3  and  N_4
REMARK    5  A    between atoms: C_8  and  C_9
REMARK                            x       y       z     vdW  Elec       q    Type
REMARK                         _______ _______ _______ _____ _____    ______ ____
ROOT
ATOM      1  N   UNL     1      44.882   4.846  12.346  0.00  0.00    +0.000 N 
ATOM      2  C   UNL     1      45.722   5.940  12.472  0.00  0.00    +0.000 A 
ATOM      3  N   UNL     1      45.328   7.141  12.019  0.00  0.00    +0.000 NA
ATOM      4  C   UNL     1      46.193   8.164  12.151  0.00  0.00    +0.000 A 
ATOM      5  C   UNL     1      47.432   8.044  12.734  0.00  0.00    +0.000 A 
ATOM      6  C   UNL     1      47.749   6.776  13.163  0.00  0.00    +0.000 A 
ATOM      7  N   UNL     1      46.917   5.715  13.043  0.00  0.00    +0.000 NA
ATOM      8  H   UNL     1      45.470   4.020  12.377  0.00  0.00    +0.000 HD
ENDROOT
BRANCH   5   9
ATOM      9  C   UNL     1      48.319   9.209  12.817  0.00  0.00    +0.000 C 
ATOM     10  N   UNL     1      47.912  10.281  13.559  0.00  0.00    +0.000 N 
ATOM     11  O   UNL     1      49.384   9.231  12.214  0.00  0.00    +0.000 OA
ATOM     12  H   UNL     1      46.961  10.420  13.873  0.00  0.00    +0.000 HD
ATOM     13  H   UNL     1      48.506  11.101  13.509  0.00  0.00    +0.000 HD
ENDBRANCH   5   9
BRANCH   1  14
ATOM     14  C   UNL     1      44.000   4.919  11.199  0.00  0.00    +0.000 C 
BRANCH  14  16
ATOM     15  C   UNL     1      43.398   2.436  11.458  0.00  0.00    +0.000 C 
ATOM     16  C   UNL     1      43.927   3.544  10.603  0.00  0.00    +0.000 C 
BRANCH  16  17
ATOM     17  C   UNL     1      44.794   3.245   9.456  0.00  0.00    +0.000 A 
ATOM     18  C   UNL     1      45.323   4.278   8.673  0.00  0.00    +0.000 A 
ATOM     19  C   UNL     1      46.225   3.994   7.644  0.00  0.00    +0.000 A 
ATOM     20  C   UNL     1      46.604   2.678   7.393  0.00  0.00    +0.000 A 
ATOM     21  C   UNL     1      46.065   1.642   8.152  0.00  0.00    +0.000 A 
ATOM     22  C   UNL     1      45.155   1.924   9.172  0.00  0.00    +0.000 A 
ENDBRANCH  16  17
ENDBRANCH  14  16
ENDBRANCH   1  14
TORSDOF 4
ENDMDL
MODEL 7
REMARK VINA RESULT:    -6.197      4.695      6.550
REMARK INTER + INTRA:          -8.143
REMARK INTER:                  -7.802
REMARK INTRA:                  -0.341
REMARK UNBOUND:                -0.497
REMARK  Name = 
REMARK  5 active torsions:
REMARK  status: ('A' for Active; 'I' for Inactive)
REMARK    1  A    between atoms: C_1  and  C_2
REMARK    2  A    between atoms: C_2  and  C_3
REMARK    3  A    between atoms: C_2  and  C_14
REMARK    4  A    between atoms: C_3  and  N_4
REMARK    5  A    between atoms: C_8  and  C_9
REMARK                            x       y       z     vdW  Elec       q    Type
REMARK                         _______ _______ _______ _____ _____    ______ ____
ROOT
ATOM      1  N   UNL     1      47.216   3.600  14.796  0.00  0.00    +0.000 N 
ATOM      2  C   UNL     1      46.357   3.967  13.773  0.00  0.00    +0.000 A 
ATOM      3  N   UNL     1      45.998   5.252  13.630  0.00  0.00    +0.000 NA
ATOM      4  C   UNL     1      45.147   5.548  12.630  0.00  0.00    +0.000 A 
ATOM      5  C   UNL     1      44.652   4.615  11.751  0.00  0.00    +0.000 A 
ATOM      6  C   UNL     1      45.071   3.325  11.978  0.00  0.00    +0.000 A 
ATOM      7  N   UNL     1      45.917   2.979  12.977  0.00  0.00    +0.000 NA
ATOM      8  H   UNL     1      47.059   2.613  14.970  0.00  0.00    +0.000 HD
ENDROOT
BRANCH   5   9
ATOM      9  C   UNL     1      43.711   5.023  10.701  0.00  0.00    +0.000 C 
ATOM     10  N   UNL     1      44.000   4.688   9.409  0.00  0.00    +0.000 N 
ATOM     11  O   UNL     1      42.710   5.672  10.973  0.00  0.00    +0.000 OA
ATOM     12  H   UNL     1      44.909   4.374   9.097  0.00  0.00    +0.000 HD
ATOM     13  H   UNL     1      43.379   5.074   8.706  0.00  0.00    +0.000 HD
ENDBRANCH   5   9
BRANCH   1  14
ATOM     14  C   UNL     1      47.117   4.445  15.969  0.00  0.00    +0.000 C 
BRANCH  14  16
ATOM     15  C   UNL     1      48.635   2.541  16.787  0.00  0.00    +0.000 C 
ATOM     16  C   UNL     1      48.098   3.925  16.978  0.00  0.00    +0.000 C 
BRANCH  16  17
ATOM     17  C   UNL     1      48.112   4.548  18.308  0.00  0.00    +0.000 A 
ATOM     18  C   UNL     1      47.296   5.650  18.588  0.00  0.00    +0.000 A 
ATOM     19  C   UNL     1      47.241   6.177  19.881  0.00  0.00    +0.000 A 
ATOM     20  C   UNL     1      47.997   5.605  20.900  0.00  0.00    +0.000 A 
ATOM     21  C   UNL     1      48.829   4.522  20.625  0.00  0.00    +0.000 A 
ATOM     22  C   UNL     1      48.894   4.003  19.331  0.00  0.00    +0.000 A 
ENDBRANCH  16  17
ENDBRANCH  14  16
ENDBRANCH   1  14
TORSDOF 4
ENDMDL
MODEL 8
REMARK VINA RESULT:    -5.882      3.981      6.209
REMARK INTER + INTRA:          -7.755
REMARK INTER:                  -7.293
REMARK INTRA:                  -0.462
REMARK UNBOUND:                -0.497
REMARK  Name = 
REMARK  5 active torsions:
REMARK  status: ('A' for Active; 'I' for Inactive)
REMARK    1  A    between atoms: C_1  and  C_2
REMARK    2  A    between atoms: C_2  and  C_3
REMARK    3  A    between atoms: C_2  and  C_14
REMARK    4  A    between atoms: C_3  and  N_4
REMARK    5  A    between atoms: C_8  and  C_9
REMARK                            x       y       z     vdW  Elec       q    Type
REMARK                         _______ _______ _______ _____ _____    ______ ____
ROOT
ATOM      1  N   UNL     1      44.969   6.811  12.803  0.00  0.00    +0.000 N 
ATOM      2  C   UNL     1      46.252   7.321  12.693  0.00  0.00    +0.000 A 
ATOM      3  N   UNL     1      47.138   6.734  11.874  0.00  0.00    +0.000 NA
ATOM      4  C   UNL     1      48.375   7.261  11.823  0.00  0.00    +0.000 A 
ATOM      5  C   UNL     1      48.763   8.365  12.543  0.00  0.00    +0.000 A 
ATOM      6  C   UNL     1      47.790   8.895  13.358  0.00  0.00    +0.000 A 
ATOM      7  N   UNL     1      46.536   8.394  13.450  0.00  0.00    +0.000 NA
ATOM      8  H   UNL     1      44.606   7.120  13.697  0.00  0.00    +0.000 HD
ENDROOT
BRANCH   5   9
ATOM      9  C   UNL     1      50.140   8.861  12.441  0.00  0.00    +0.000 C 
ATOM     10  N   UNL     1      51.147   8.079  12.930  0.00  0.00    +0.000 N 
ATOM     11  O   UNL     1      50.376   9.961  11.958  0.00  0.00    +0.000 OA
ATOM     12  H   UNL     1      51.000   7.291  13.546  0.00  0.00    +0.000 HD
ATOM     13  H   UNL     1      52.070   8.500  12.932  0.00  0.00    +0.000 HD
ENDBRANCH   5   9
BRANCH   1  14
ATOM     14  C   UNL     1      44.890   5.382  12.578  0.00  0.00    +0.000 C 
BRANCH  14  16
ATOM     15  C   UNL     1      42.493   5.314  11.659  0.00  0.00    +0.000 C 
ATOM     16  C   UNL     1      43.962   5.163  11.420  0.00  0.00    +0.000 C 
BRANCH  16  17
ATOM     17  C   UNL     1      44.450   4.360  10.290  0.00  0.00    +0.000 A 
ATOM     18  C   UNL     1      45.287   4.926   9.321  0.00  0.00    +0.000 A 
ATOM     19  C   UNL     1      45.827   4.134   8.304  0.00  0.00    +0.000 A 
ATOM     20  C   UNL     1      45.536   2.774   8.251  0.00  0.00    +0.000 A 
ATOM     21  C   UNL     1      44.686   2.207   9.198  0.00  0.00    +0.000 A 
ATOM     22  C   UNL     1      44.137   3.000  10.207  0.00  0.00    +0.000 A 
ENDBRANCH  16  17
ENDBRANCH  14  16
ENDBRANCH   1  14
TORSDOF 4
ENDMDL
MODEL 9
REMARK VINA RESULT:    -5.666      5.726      8.096
REMARK INTER + INTRA:          -7.488
REMARK INTER:                  -7.079
REMARK INTRA:                  -0.409
REMARK UNBOUND:                -0.497
REMARK  Name = 
REMARK  5 active torsions:
REMARK  status: ('A' for Active; 'I' for Inactive)
REMARK    1  A    between atoms: C_1  and  C_2
REMARK    2  A    between atoms: C_2  and  C_3
REMARK    3  A    between atoms: C_2  and  C_14
REMARK    4  A    between atoms: C_3  and  N_4
REMARK    5  A    between atoms: C_8  and  C_9
REMARK                            x       y       z     vdW  Elec       q    Type
REMARK                         _______ _______ _______ _____ _____    ______ ____
ROOT
ATOM      1  N   UNL     1      46.507   4.133  14.815  0.00  0.00    +0.000 N 
ATOM      2  C   UNL     1      47.285   4.272  15.953  0.00  0.00    +0.000 A 
ATOM      3  N   UNL     1      48.317   5.129  15.957  0.00  0.00    +0.000 NA
ATOM      4  C   UNL     1      49.049   5.209  17.084  0.00  0.00    +0.000 A 
ATOM      5  C   UNL     1      48.782   4.481  18.218  0.00  0.00    +0.000 A 
ATOM      6  C   UNL     1      47.709   3.627  18.119  0.00  0.00    +0.000 A 
ATOM      7  N   UNL     1      46.950   3.505  17.004  0.00  0.00    +0.000 NA
ATOM      8  H   UNL     1      46.066   3.222  14.871  0.00  0.00    +0.000 HD
ENDROOT
BRANCH   5   9
ATOM      9  C   UNL     1      49.645   4.616  19.397  0.00  0.00    +0.000 C 
ATOM     10  N   UNL     1      50.884   4.043  19.361  0.00  0.00    +0.000 N 
ATOM     11  O   UNL     1      49.252   5.201  20.398  0.00  0.00    +0.000 OA
ATOM     12  H   UNL     1      51.167   3.355  18.676  0.00  0.00    +0.000 HD
ATOM     13  H   UNL     1      51.408   4.072  20.228  0.00  0.00    +0.000 HD
ENDBRANCH   5   9
BRANCH   1  14
ATOM     14  C   UNL     1      47.230   4.381  13.584  0.00  0.00    +0.000 C 
BRANCH  14  16
ATOM     15  C   UNL     1      46.936   6.901  13.180  0.00  0.00    +0.000 C 
ATOM     16  C   UNL     1      46.524   5.496  12.869  0.00  0.00    +0.000 C 
BRANCH  16  17
ATOM     17  C   UNL     1      45.195   5.221  12.308  0.00  0.00    +0.000 A 
ATOM     18  C   UNL     1      45.047   4.373  11.205  0.00  0.00    +0.000 A 
ATOM     19  C   UNL     1      43.774   4.037  10.737  0.00  0.00    +0.000 A 
ATOM     20  C   UNL     1      42.643   4.544  11.370  0.00  0.00    +0.000 A 
ATOM     21  C   UNL     1      42.780   5.407  12.455  0.00  0.00    +0.000 A 
ATOM     22  C   UNL     1      44.052   5.753  12.915  0.00  0.00    +0.000 A 
ENDBRANCH  16  17
ENDBRANCH  14  16
ENDBRANCH   1  14
TORSDOF 4
ENDMDL
