MODEL 1
REMARK VINA RESULT:    -8.051      0.000      0.000
REMARK INTER + INTRA:         -12.325
REMARK INTER:                 -11.346
REMARK INTRA:                  -0.979
REMARK UNBOUND:                -0.979
REMARK  Name = 
REMARK  7 active torsions:
REMARK  status: ('A' for Active; 'I' for Inactive)
REMARK    1  A    between atoms: C_2  and  C_4
REMARK    2  A    between atoms: C_7  and  N_8
REMARK    3  A    between atoms: N_8  and  C_9
REMARK    4  A    between atoms: C_9  and  C_10
REMARK    5  A    between atoms: C_10  and  C_13
REMARK    6  A    between atoms: C_17  and  S_18
REMARK    7  A    between atoms: S_18  and  C_19
REMARK                            x       y       z     vdW  Elec       q    Type
REMARK                         _______ _______ _______ _____ _____    ______ ____
ROOT
ATOM      1  C   UNL     1      43.389   4.475  11.028  0.00  0.00    +0.000 C 
ENDROOT
BRANCH   1   2
ATOM      2  C   UNL     1      43.887   4.597  12.499  0.00  0.00    +0.000 C 
ATOM      3  F   UNL     1      42.944   5.271  13.222  0.00  0.00    +0.000 F 
ATOM      4  F   UNL     1      43.910   3.335  13.034  0.00  0.00    +0.000 F 
BRANCH   2   5
ATOM      5  C   UNL     1      45.243   5.272  12.586  0.00  0.00    +0.000 A 
ATOM      6  C   UNL     1      45.688   6.128  11.571  0.00  0.00    +0.000 A 
ATOM      7  C   UNL     1      46.928   6.764  11.677  0.00  0.00    +0.000 A 
ATOM      8  C   UNL     1      47.737   6.555  12.800  0.00  0.00    +0.000 A 
ATOM      9  C   UNL     1      47.317   5.697  13.818  0.00  0.00    +0.000 A 
ATOM     10  C   UNL     1      46.072   5.062  13.702  0.00  0.00    +0.000 A 
BRANCH   9  11
ATOM     11  S   UNL     1      48.210   5.503  15.346  0.00  0.00    +0.000 S 
BRANCH  11  12
ATOM     12  C   UNL     1      47.216   4.243  16.214  0.00  0.00    +0.000 C 
ATOM     13  C   UNL     1      47.167   4.365  17.739  0.00  0.00    +0.000 C 
ATOM     14  O   UNL     1      47.742   3.045  17.909  0.00  0.00    +0.000 OA
ATOM     15  C   UNL     1      48.057   2.985  16.497  0.00  0.00    +0.000 C 
ENDBRANCH  11  12
ENDBRANCH   9  11
ENDBRANCH   2   5
ENDBRANCH   1   2
BRANCH   1  16
ATOM     16  N   UNL     1      43.730   3.163  10.431  0.00  0.00    +0.000 N 
ATOM     17  H   UNL     1      43.758   2.421  11.131  0.00  0.00    +0.000 HD
BRANCH  16  21
ATOM     18  C   UNL     1      46.522   2.619   7.393  0.00  0.00    +0.000 A 
ATOM     19  C   UNL     1      46.058   3.906   7.618  0.00  0.00    +0.000 A 
ATOM     20  C   UNL     1      45.143   4.111   8.652  0.00  0.00    +0.000 A 
ATOM     21  C   UNL     1      44.719   3.051   9.455  0.00  0.00    +0.000 A 
ATOM     22  C   UNL     1      45.240   1.793   9.116  0.00  0.00    +0.000 A 
ATOM     23  N   UNL     1      46.134   1.541   8.124  0.00  0.00    +0.000 NA
BRANCH  18  25
ATOM     24  N   UNL     1      47.433   3.269   5.242  0.00  0.00    +0.000 N 
ATOM     25  C   UNL     1      47.473   2.363   6.268  0.00  0.00    +0.000 C 
ATOM     26  O   UNL     1      48.249   1.415   6.254  0.00  0.00    +0.000 OA
ATOM     27  H   UNL     1      48.078   3.181   4.470  0.00  0.00    +0.000 HD
ATOM     28  H   UNL     1      46.801   4.060   5.300  0.00  0.00    +0.000 HD
ENDBRANCH  18  25
ENDBRANCH  16  21
ENDBRANCH   1  16
TORSDOF 7
ENDMDL
MODEL 2
REMARK VINA RESULT:    -7.832      3.094      4.312
REMARK INTER + INTRA:         -12.016
REMARK INTER:                 -11.357
REMARK INTRA:                  -0.659
REMARK UNBOUND:                -0.979
REMARK  Name = 
REMARK  7 active torsions:
REMARK  status: ('A' for Active; 'I' for Inactive)
REMARK    1  A    between atoms: C_2  and  C_4
REMARK    2  A    between atoms: C_7  and  N_8
REMARK    3  A    between atoms: N_8  and  C_9
REMARK    4  A    between atoms: C_9  and  C_10
REMARK    5  A    between atoms: C_10  and  C_13
REMARK    6  A    between atoms: C_17  and  S_18
REMARK    7  A    between atoms: S_18  and  C_19
REMARK                            x       y       z     vdW  Elec       q    Type
REMARK                         _______ _______ _______ _____ _____    ______ ____
ROOT
ATOM      1  C   UNL     1      43.218   4.058  11.322  0.00  0.00    +0.000 C 
ENDROOT
BRANCH   1   2
ATOM      2  C   UNL     1      43.199   5.083  12.495  0.00  0.00    +0.000 C 
ATOM      3  F   UNL     1      42.316   6.079  12.187  0.00  0.00    +0.000 F 
ATOM      4  F   UNL     1      42.659   4.454  13.587  0.00  0.00    +0.000 F 
BRANCH   2   5
ATOM      5  C   UNL     1      44.582   5.635  12.789  0.00  0.00    +0.000 A 
ATOM      6  C   UNL     1      45.580   4.822  13.341  0.00  0.00    +0.000 A 
ATOM      7  C   UNL     1      46.857   5.337  13.581  0.00  0.00    +0.000 A 
ATOM      8  C   UNL     1      47.154   6.669  13.270  0.00  0.00    +0.000 A 
ATOM      9  C   UNL     1      46.170   7.499  12.728  0.00  0.00    +0.000 A 
ATOM     10  C   UNL     1      44.891   6.974  12.492  0.00  0.00    +0.000 A 
BRANCH   9  11
ATOM     11  S   UNL     1      46.509   9.151  12.156  0.00  0.00    +0.000 S 
BRANCH  11  12
ATOM     12  C   UNL     1      44.839   9.880  12.076  0.00  0.00    +0.000 C 
ATOM     13  C   UNL     1      44.116   9.748  10.734  0.00  0.00    +0.000 C 
ATOM     14  O   UNL     1      44.009  11.188  10.598  0.00  0.00    +0.000 OA
ATOM     15  C   UNL     1      44.913  11.375  11.714  0.00  0.00    +0.000 C 
ENDBRANCH  11  12
ENDBRANCH   9  11
ENDBRANCH   2   5
ENDBRANCH   1   2
BRANCH   1  16
ATOM     16  N   UNL     1      43.749   4.651  10.072  0.00  0.00    +0.000 N 
ATOM     17  H   UNL     1      43.034   5.171   9.563  0.00  0.00    +0.000 HD
BRANCH  16  21
ATOM     18  C   UNL     1      46.557   2.681   7.716  0.00  0.00    +0.000 A 
ATOM     19  C   UNL     1      45.729   1.906   8.513  0.00  0.00    +0.000 A 
ATOM     20  C   UNL     1      44.761   2.549   9.288  0.00  0.00    +0.000 A 
ATOM     21  C   UNL     1      44.617   3.937   9.248  0.00  0.00    +0.000 A 
ATOM     22  C   UNL     1      45.528   4.613   8.422  0.00  0.00    +0.000 A 
ATOM     23  N   UNL     1      46.482   4.036   7.647  0.00  0.00    +0.000 NA
BRANCH  18  25
ATOM     24  N   UNL     1      48.346   2.855   6.089  0.00  0.00    +0.000 N 
ATOM     25  C   UNL     1      47.628   2.023   6.905  0.00  0.00    +0.000 C 
ATOM     26  O   UNL     1      47.864   0.823   6.962  0.00  0.00    +0.000 OA
ATOM     27  H   UNL     1      49.112   2.486   5.545  0.00  0.00    +0.000 HD
ATOM     28  H   UNL     1      48.146   3.850   6.089  0.00  0.00    +0.000 HD
ENDBRANCH  18  25
ENDBRANCH  16  21
ENDBRANCH   1  16
TORSDOF 7
ENDMDL
MODEL 3
REMARK VINA RESULT:    -7.744      2.568      3.634
REMARK INTER + INTRA:         -11.891
REMARK INTER:                 -11.104
REMARK INTRA:                  -0.787
REMARK UNBOUND:                -0.979
REMARK  Name = 
REMARK  7 active torsions:
REMARK  status: ('A' for Active; 'I' for Inactive)
REMARK    1  A    between atoms: C_2  and  C_4
REMARK    2  A    between atoms: C_7  and  N_8
REMARK    3  A    between atoms: N_8  and  C_9
REMARK    4  A    between atoms: C_9  and  C_10
REMARK    5  A    between atoms: C_10  and  C_13
REMARK    6  A    between atoms: C_17  and  S_18
REMARK    7  A    between atoms: S_18  and  C_19
REMARK                            x       y       z     vdW  Elec       q    Type
REMARK                         _______ _______ _______ _____ _____    ______ ____
ROOT
ATOM      1  C   UNL     1      43.368   4.305  11.187  0.00  0.00    +0.000 C 
ENDROOT
BRANCH   1   2
ATOM      2  C   UNL     1      43.467   5.508  12.172  0.00  0.00    +0.000 C 
ATOM      3  F   UNL     1      43.089   6.642  11.510  0.00  0.00    +0.000 F 
ATOM      4  F   UNL     1      42.516   5.329  13.143  0.00  0.00    +0.000 F 
BRANCH   2   5
ATOM      5  C   UNL     1      44.859   5.645  12.763  0.00  0.00    +0.000 A 
ATOM      6  C   UNL     1      45.551   4.525  13.242  0.00  0.00    +0.000 A 
ATOM      7  C   UNL     1      46.842   4.662  13.758  0.00  0.00    +0.000 A 
ATOM      8  C   UNL     1      47.459   5.918  13.799  0.00  0.00    +0.000 A 
ATOM      9  C   UNL     1      46.782   7.048  13.337  0.00  0.00    +0.000 A 
ATOM     10  C   UNL     1      45.486   6.901  12.821  0.00  0.00    +0.000 A 
BRANCH   9  11
ATOM     11  S   UNL     1      47.553   8.648  13.206  0.00  0.00    +0.000 S 
BRANCH  11  12
ATOM     12  C   UNL     1      48.626   8.439  11.744  0.00  0.00    +0.000 C 
ATOM     13  C   UNL     1      49.998   7.814  12.008  0.00  0.00    +0.000 C 
ATOM     14  O   UNL     1      50.681   8.985  11.492  0.00  0.00    +0.000 OA
ATOM     15  C   UNL     1      49.433   9.721  11.473  0.00  0.00    +0.000 C 
ENDBRANCH  11  12
ENDBRANCH   9  11
ENDBRANCH   2   5
ENDBRANCH   1   2
BRANCH   1  16
ATOM     16  N   UNL     1      43.718   4.689   9.800  0.00  0.00    +0.000 N 
ATOM     17  H   UNL     1      42.902   5.001   9.273  0.00  0.00    +0.000 HD
BRANCH  16  21
ATOM     18  C   UNL     1      46.614   2.598   7.666  0.00  0.00    +0.000 A 
ATOM     19  C   UNL     1      45.738   1.864   8.450  0.00  0.00    +0.000 A 
ATOM     20  C   UNL     1      44.741   2.547   9.150  0.00  0.00    +0.000 A 
ATOM     21  C   UNL     1      44.617   3.934   9.048  0.00  0.00    +0.000 A 
ATOM     22  C   UNL     1      45.576   4.567   8.244  0.00  0.00    +0.000 A 
ATOM     23  N   UNL     1      46.560   3.950   7.541  0.00  0.00    +0.000 NA
BRANCH  18  25
ATOM     24  N   UNL     1      48.457   2.680   6.092  0.00  0.00    +0.000 N 
ATOM     25  C   UNL     1      47.716   1.897   6.935  0.00  0.00    +0.000 C 
ATOM     26  O   UNL     1      47.956   0.704   7.078  0.00  0.00    +0.000 OA
ATOM     27  H   UNL     1      49.244   2.282   5.600  0.00  0.00    +0.000 HD
ATOM     28  H   UNL     1      48.252   3.671   6.021  0.00  0.00    +0.000 HD
ENDBRANCH  18  25
ENDBRANCH  16  21
ENDBRANCH   1  16
TORSDOF 7
ENDMDL
MODEL 4
REMARK VINA RESULT:    -7.062      3.528      7.920
REMARK INTER + INTRA:         -10.931
REMARK INTER:                 -10.069
REMARK INTRA:                  -0.861
REMARK UNBOUND:                -0.979
REMARK  Name = 
REMARK  7 active torsions:
REMARK  status: ('A' for Active; 'I' for Inactive)
REMARK    1  A    between atoms: C_2  and  C_4
REMARK    2  A    between atoms: C_7  and  N_8
REMARK    3  A    between atoms: N_8  and  C_9
REMARK    4  A    between atoms: C_9  and  C_10
REMARK    5  A    between atoms: C_10  and  C_13
REMARK    6  A    between atoms: C_17  and  S_18
REMARK    7  A    between atoms: S_18  and  C_19
REMARK                            x       y       z     vdW  Elec       q    Type
REMARK                         _______ _______ _______ _____ _____    ______ ____
ROOT
ATOM      1  C   UNL     1      46.878   6.469  12.196  0.00  0.00    +0.000 C 
ENDROOT
BRANCH   1   2
ATOM      2  C   UNL     1      45.365   6.426  11.831  0.00  0.00    +0.000 C 
ATOM      3  F   UNL     1      44.638   6.669  12.962  0.00  0.00    +0.000 F 
ATOM      4  F   UNL     1      45.107   7.491  11.007  0.00  0.00    +0.000 F 
BRANCH   2   5
ATOM      5  C   UNL     1      44.973   5.108  11.188  0.00  0.00    +0.000 A 
ATOM      6  C   UNL     1      44.221   4.159  11.892  0.00  0.00    +0.000 A 
ATOM      7  C   UNL     1      43.844   2.961  11.278  0.00  0.00    +0.000 A 
ATOM      8  C   UNL     1      44.210   2.698   9.953  0.00  0.00    +0.000 A 
ATOM      9  C   UNL     1      44.968   3.627   9.237  0.00  0.00    +0.000 A 
ATOM     10  C   UNL     1      45.343   4.825   9.861  0.00  0.00    +0.000 A 
BRANCH   9  11
ATOM     11  S   UNL     1      45.335   3.442   7.505  0.00  0.00    +0.000 S 
BRANCH  11  12
ATOM     12  C   UNL     1      46.996   2.686   7.543  0.00  0.00    +0.000 C 
ATOM     13  C   UNL     1      47.678   2.505   6.185  0.00  0.00    +0.000 C 
ATOM     14  O   UNL     1      47.767   1.069   6.370  0.00  0.00    +0.000 OA
ATOM     15  C   UNL     1      46.896   1.150   7.525  0.00  0.00    +0.000 C 
ENDBRANCH  11  12
ENDBRANCH   9  11
ENDBRANCH   2   5
ENDBRANCH   1   2
BRANCH   1  16
ATOM     16  N   UNL     1      47.099   6.834  13.615  0.00  0.00    +0.000 N 
ATOM     17  H   UNL     1      47.548   7.746  13.709  0.00  0.00    +0.000 HD
BRANCH  16  21
ATOM     18  C   UNL     1      48.402   4.225  16.584  0.00  0.00    +0.000 A 
ATOM     19  C   UNL     1      47.353   3.810  15.776  0.00  0.00    +0.000 A 
ATOM     20  C   UNL     1      46.923   4.661  14.756  0.00  0.00    +0.000 A 
ATOM     21  C   UNL     1      47.545   5.892  14.540  0.00  0.00    +0.000 A 
ATOM     22  C   UNL     1      48.577   6.211  15.436  0.00  0.00    +0.000 A 
ATOM     23  N   UNL     1      49.035   5.418  16.439  0.00  0.00    +0.000 NA
BRANCH  18  25
ATOM     24  N   UNL     1      47.920   3.085  18.669  0.00  0.00    +0.000 N 
ATOM     25  C   UNL     1      48.858   3.351  17.708  0.00  0.00    +0.000 C 
ATOM     26  O   UNL     1      49.991   2.890  17.776  0.00  0.00    +0.000 OA
ATOM     27  H   UNL     1      48.147   2.467  19.434  0.00  0.00    +0.000 HD
ATOM     28  H   UNL     1      46.981   3.457  18.566  0.00  0.00    +0.000 HD
ENDBRANCH  18  25
ENDBRANCH  16  21
ENDBRANCH   1  16
TORSDOF 7
ENDMDL
MODEL 5
REMARK VINA RESULT:    -7.025      2.841      3.274
REMARK INTER + INTRA:         -10.879
REMARK INTER:                 -10.075
REMARK INTRA:                  -0.804
REMARK UNBOUND:                -0.979
REMARK  Name = 
REMARK  7 active torsions:
REMARK  status: ('A' for Active; 'I' for Inactive)
REMARK    1  A    between atoms: C_2  and  C_4
REMARK    2  A    between atoms: C_7  and  N_8
REMARK    3  A    between atoms: N_8  and  C_9
REMARK    4  A    between atoms: C_9  and  C_10
REMARK    5  A    between atoms: C_10  and  C_13
REMARK    6  A    between atoms: C_17  and  S_18
REMARK    7  A    between atoms: S_18  and  C_19
REMARK                            x       y       z     vdW  Elec       q    Type
REMARK                         _______ _______ _______ _____ _____    ______ ____
ROOT
ATOM      1  C   UNL     1      43.383   4.850  10.710  0.00  0.00    +0.000 C 
ENDROOT
BRANCH   1   2
ATOM      2  C   UNL     1      43.800   5.359  12.122  0.00  0.00    +0.000 C 
ATOM      3  F   UNL     1      42.686   5.408  12.912  0.00  0.00    +0.000 F 
ATOM      4  F   UNL     1      44.596   4.398  12.690  0.00  0.00    +0.000 F 
BRANCH   2   5
ATOM      5  C   UNL     1      44.498   6.705  12.058  0.00  0.00    +0.000 A 
ATOM      6  C   UNL     1      43.965   7.757  11.303  0.00  0.00    +0.000 A 
ATOM      7  C   UNL     1      44.604   9.000  11.276  0.00  0.00    +0.000 A 
ATOM      8  C   UNL     1      45.781   9.208  12.004  0.00  0.00    +0.000 A 
ATOM      9  C   UNL     1      46.334   8.168  12.754  0.00  0.00    +0.000 A 
ATOM     10  C   UNL     1      45.687   6.924  12.775  0.00  0.00    +0.000 A 
BRANCH   9  11
ATOM     11  S   UNL     1      47.734   8.395  13.832  0.00  0.00    +0.000 S 
BRANCH  11  12
ATOM     12  C   UNL     1      49.119   7.832  12.786  0.00  0.00    +0.000 C 
ATOM     13  C   UNL     1      50.522   8.136  13.317  0.00  0.00    +0.000 C 
ATOM     14  O   UNL     1      50.847   8.919  12.140  0.00  0.00    +0.000 OA
ATOM     15  C   UNL     1      49.461   8.889  11.720  0.00  0.00    +0.000 C 
ENDBRANCH  11  12
ENDBRANCH   9  11
ENDBRANCH   2   5
ENDBRANCH   1   2
BRANCH   1  16
ATOM     16  N   UNL     1      43.909   3.494  10.428  0.00  0.00    +0.000 N 
ATOM     17  H   UNL     1      44.062   2.959  11.283  0.00  0.00    +0.000 HD
BRANCH  16  21
ATOM     18  C   UNL     1      46.646   2.690   7.398  0.00  0.00    +0.000 A 
ATOM     19  C   UNL     1      46.314   4.016   7.630  0.00  0.00    +0.000 A 
ATOM     20  C   UNL     1      45.419   4.306   8.662  0.00  0.00    +0.000 A 
ATOM     21  C   UNL     1      44.886   3.289   9.456  0.00  0.00    +0.000 A 
ATOM     22  C   UNL     1      45.279   1.987   9.109  0.00  0.00    +0.000 A 
ATOM     23  N   UNL     1      46.148   1.653   8.120  0.00  0.00    +0.000 NA
BRANCH  18  25
ATOM     24  N   UNL     1      47.465   3.132   5.159  0.00  0.00    +0.000 N 
ATOM     25  C   UNL     1      47.572   2.346   6.275  0.00  0.00    +0.000 C 
ATOM     26  O   UNL     1      48.384   1.431   6.337  0.00  0.00    +0.000 OA
ATOM     27  H   UNL     1      48.089   2.983   4.379  0.00  0.00    +0.000 HD
ATOM     28  H   UNL     1      46.804   3.902   5.152  0.00  0.00    +0.000 HD
ENDBRANCH  18  25
ENDBRANCH  16  21
ENDBRANCH   1  16
TORSDOF 7
ENDMDL
MODEL 6
REMARK VINA RESULT:    -6.907      2.350      2.702
REMARK INTER + INTRA:         -10.712
REMARK INTER:                 -10.176
REMARK INTRA:                  -0.536
REMARK UNBOUND:                -0.979
REMARK  Name = 
REMARK  7 active torsions:
REMARK  status: ('A' for Active; 'I' for Inactive)
REMARK    1  A    between atoms: C_2  and  C_4
REMARK    2  A    between atoms: C_7  and  N_8
REMARK    3  A    between atoms: N_8  and  C_9
REMARK    4  A    between atoms: C_9  and  C_10
REMARK    5  A    between atoms: C_10  and  C_13
REMARK    6  A    between atoms: C_17  and  S_18
REMARK    7  A    between atoms: S_18  and  C_19
REMARK                            x       y       z     vdW  Elec       q    Type
REMARK                         _______ _______ _______ _____ _____    ______ ____
ROOT
ATOM      1  C   UNL     1      44.646   6.117  10.868  0.00  0.00    +0.000 C 
ENDROOT
BRANCH   1   2
ATOM      2  C   UNL     1      45.132   5.758  12.304  0.00  0.00    +0.000 C 
ATOM      3  F   UNL     1      44.240   6.268  13.205  0.00  0.00    +0.000 F 
ATOM      4  F   UNL     1      45.040   4.397  12.444  0.00  0.00    +0.000 F 
BRANCH   2   5
ATOM      5  C   UNL     1      46.540   6.258  12.569  0.00  0.00    +0.000 A 
ATOM      6  C   UNL     1      47.270   6.917  11.572  0.00  0.00    +0.000 A 
ATOM      7  C   UNL     1      48.555   7.397  11.838  0.00  0.00    +0.000 A 
ATOM      8  C   UNL     1      49.125   7.229  13.105  0.00  0.00    +0.000 A 
ATOM      9  C   UNL     1      48.418   6.566  14.110  0.00  0.00    +0.000 A 
ATOM     10  C   UNL     1      47.130   6.086  13.834  0.00  0.00    +0.000 A 
BRANCH   9  11
ATOM     11  S   UNL     1      49.004   6.453  15.788  0.00  0.00    +0.000 S 
BRANCH  11  12
ATOM     12  C   UNL     1      49.270   8.205  16.221  0.00  0.00    +0.000 C 
ATOM     13  C   UNL     1      48.799   8.627  17.615  0.00  0.00    +0.000 C 
ATOM     14  O   UNL     1      47.889   9.610  17.059  0.00  0.00    +0.000 OA
ATOM     15  C   UNL     1      48.096   9.072  15.730  0.00  0.00    +0.000 C 
ENDBRANCH  11  12
ENDBRANCH   9  11
ENDBRANCH   2   5
ENDBRANCH   1   2
BRANCH   1  16
ATOM     16  N   UNL     1      44.084   4.944  10.160  0.00  0.00    +0.000 N 
ATOM     17  H   UNL     1      43.345   4.491  10.699  0.00  0.00    +0.000 HD
BRANCH  16  21
ATOM     18  C   UNL     1      46.309   2.121   8.063  0.00  0.00    +0.000 A 
ATOM     19  C   UNL     1      46.456   3.452   7.704  0.00  0.00    +0.000 A 
ATOM     20  C   UNL     1      45.738   4.416   8.416  0.00  0.00    +0.000 A 
ATOM     21  C   UNL     1      44.909   4.051   9.478  0.00  0.00    +0.000 A 
ATOM     22  C   UNL     1      44.824   2.673   9.731  0.00  0.00    +0.000 A 
ATOM     23  N   UNL     1      45.503   1.699   9.072  0.00  0.00    +0.000 NA
BRANCH  18  25
ATOM     24  N   UNL     1      46.763  -0.226   7.660  0.00  0.00    +0.000 N 
ATOM     25  C   UNL     1      47.035   1.064   7.293  0.00  0.00    +0.000 C 
ATOM     26  O   UNL     1      47.817   1.320   6.385  0.00  0.00    +0.000 OA
ATOM     27  H   UNL     1      47.185  -0.991   7.154  0.00  0.00    +0.000 HD
ATOM     28  H   UNL     1      46.087  -0.404   8.395  0.00  0.00    +0.000 HD
ENDBRANCH  18  25
ENDBRANCH  16  21
ENDBRANCH   1  16
TORSDOF 7
ENDMDL
MODEL 7
REMARK VINA RESULT:    -6.173      3.826      8.306
REMARK INTER + INTRA:          -9.679
REMARK INTER:                  -9.174
REMARK INTRA:                  -0.504
REMARK UNBOUND:                -0.979
REMARK  Name = 
REMARK  7 active torsions:
REMARK  status: ('A' for Active; 'I' for Inactive)
REMARK    1  A    between atoms: C_2  and  C_4
REMARK    2  A    between atoms: C_7  and  N_8
REMARK    3  A    between atoms: N_8  and  C_9
REMARK    4  A    between atoms: C_9  and  C_10
REMARK    5  A    between atoms: C_10  and  C_13
REMARK    6  A    between atoms: C_17  and  S_18
REMARK    7  A    between atoms: S_18  and  C_19
REMARK                            x       y       z     vdW  Elec       q    Type
REMARK                         _______ _______ _______ _____ _____    ______ ____
ROOT
ATOM      1  C   UNL     1      47.610   5.914  13.219  0.00  0.00    +0.000 C 
ENDROOT
BRANCH   1   2
ATOM      2  C   UNL     1      46.559   6.497  12.228  0.00  0.00    +0.000 C 
ATOM      3  F   UNL     1      46.204   7.745  12.656  0.00  0.00    +0.000 F 
ATOM      4  F   UNL     1      47.188   6.698  11.027  0.00  0.00    +0.000 F 
BRANCH   2   5
ATOM      5  C   UNL     1      45.349   5.591  12.087  0.00  0.00    +0.000 A 
ATOM      6  C   UNL     1      44.193   5.810  12.847  0.00  0.00    +0.000 A 
ATOM      7  C   UNL     1      43.076   4.985  12.687  0.00  0.00    +0.000 A 
ATOM      8  C   UNL     1      43.099   3.934  11.763  0.00  0.00    +0.000 A 
ATOM      9  C   UNL     1      44.245   3.693  11.003  0.00  0.00    +0.000 A 
ATOM     10  C   UNL     1      45.361   4.525  11.171  0.00  0.00    +0.000 A 
BRANCH   9  11
ATOM     11  S   UNL     1      44.300   2.483   9.697  0.00  0.00    +0.000 S 
BRANCH  11  12
ATOM     12  C   UNL     1      45.840   2.928   8.826  0.00  0.00    +0.000 C 
ATOM     13  C   UNL     1      45.666   3.569   7.447  0.00  0.00    +0.000 C 
ATOM     14  O   UNL     1      46.417   2.506   6.807  0.00  0.00    +0.000 OA
ATOM     15  C   UNL     1      46.382   1.727   8.029  0.00  0.00    +0.000 C 
ENDBRANCH  11  12
ENDBRANCH   9  11
ENDBRANCH   2   5
ENDBRANCH   1   2
BRANCH   1  16
ATOM     16  N   UNL     1      46.983   5.078  14.269  0.00  0.00    +0.000 N 
ATOM     17  H   UNL     1      45.965   5.135  14.245  0.00  0.00    +0.000 HD
BRANCH  16  21
ATOM     18  C   UNL     1      48.634   4.642  18.064  0.00  0.00    +0.000 A 
ATOM     19  C   UNL     1      49.069   5.709  17.292  0.00  0.00    +0.000 A 
ATOM     20  C   UNL     1      48.504   5.887  16.027  0.00  0.00    +0.000 A 
ATOM     21  C   UNL     1      47.511   5.025  15.558  0.00  0.00    +0.000 A 
ATOM     22  C   UNL     1      47.173   3.970  16.420  0.00  0.00    +0.000 A 
ATOM     23  N   UNL     1      47.688   3.756  17.658  0.00  0.00    +0.000 NA
BRANCH  18  25
ATOM     24  N   UNL     1      48.483   3.690  20.289  0.00  0.00    +0.000 N 
ATOM     25  C   UNL     1      49.249   4.404  19.407  0.00  0.00    +0.000 C 
ATOM     26  O   UNL     1      50.366   4.806  19.709  0.00  0.00    +0.000 OA
ATOM     27  H   UNL     1      48.853   3.456  21.199  0.00  0.00    +0.000 HD
ATOM     28  H   UNL     1      47.575   3.344  19.996  0.00  0.00    +0.000 HD
ENDBRANCH  18  25
ENDBRANCH  16  21
ENDBRANCH   1  16
TORSDOF 7
ENDMDL
MODEL 8
REMARK VINA RESULT:    -6.130      3.730      5.449
REMARK INTER + INTRA:          -9.618
REMARK INTER:                  -9.079
REMARK INTRA:                  -0.539
REMARK UNBOUND:                -0.979
REMARK  Name = 
REMARK  7 active torsions:
REMARK  status: ('A' for Active; 'I' for Inactive)
REMARK    1  A    between atoms: C_2  and  C_4
REMARK    2  A    between atoms: C_7  and  N_8
REMARK    3  A    between atoms: N_8  and  C_9
REMARK    4  A    between atoms: C_9  and  C_10
REMARK    5  A    between atoms: C_10  and  C_13
REMARK    6  A    between atoms: C_17  and  S_18
REMARK    7  A    between atoms: S_18  and  C_19
REMARK                            x       y       z     vdW  Elec       q    Type
REMARK                         _______ _______ _______ _____ _____    ______ ____
ROOT
ATOM      1  C   UNL     1      48.620   6.974  13.608  0.00  0.00    +0.000 C 
ENDROOT
BRANCH   1   2
ATOM      2  C   UNL     1      49.174   7.808  14.802  0.00  0.00    +0.000 C 
ATOM      3  F   UNL     1      49.952   8.815  14.304  0.00  0.00    +0.000 F 
ATOM      4  F   UNL     1      48.111   8.439  15.395  0.00  0.00    +0.000 F 
BRANCH   2   5
ATOM      5  C   UNL     1      49.941   6.946  15.788  0.00  0.00    +0.000 A 
ATOM      6  C   UNL     1      51.339   6.994  15.850  0.00  0.00    +0.000 A 
ATOM      7  C   UNL     1      52.031   6.215  16.783  0.00  0.00    +0.000 A 
ATOM      8  C   UNL     1      51.335   5.384  17.667  0.00  0.00    +0.000 A 
ATOM      9  C   UNL     1      49.941   5.314  17.615  0.00  0.00    +0.000 A 
ATOM     10  C   UNL     1      49.255   6.097  16.675  0.00  0.00    +0.000 A 
BRANCH   9  11
ATOM     11  S   UNL     1      48.975   4.408  18.805  0.00  0.00    +0.000 S 
BRANCH  11  12
ATOM     12  C   UNL     1      48.760   2.796  17.978  0.00  0.00    +0.000 C 
ATOM     13  C   UNL     1      49.934   2.327  17.114  0.00  0.00    +0.000 C 
ATOM     14  O   UNL     1      49.100   2.277  15.928  0.00  0.00    +0.000 OA
ATOM     15  C   UNL     1      48.037   2.967  16.629  0.00  0.00    +0.000 C 
ENDBRANCH  11  12
ENDBRANCH   9  11
ENDBRANCH   2   5
ENDBRANCH   1   2
BRANCH   1  16
ATOM     16  N   UNL     1      47.139   6.925  13.603  0.00  0.00    +0.000 N 
ATOM     17  H   UNL     1      46.748   7.101  14.529  0.00  0.00    +0.000 HD
BRANCH  16  21
ATOM     18  C   UNL     1      44.920   3.977  11.678  0.00  0.00    +0.000 A 
ATOM     19  C   UNL     1      45.073   5.193  11.031  0.00  0.00    +0.000 A 
ATOM     20  C   UNL     1      45.839   6.184  11.649  0.00  0.00    +0.000 A 
ATOM     21  C   UNL     1      46.453   5.950  12.880  0.00  0.00    +0.000 A 
ATOM     22  C   UNL     1      46.207   4.690  13.447  0.00  0.00    +0.000 A 
ATOM     23  N   UNL     1      45.475   3.693  12.886  0.00  0.00    +0.000 NA
BRANCH  18  25
ATOM     24  N   UNL     1      44.626   2.269   9.982  0.00  0.00    +0.000 N 
ATOM     25  C   UNL     1      44.074   2.911  11.058  0.00  0.00    +0.000 C 
ATOM     26  O   UNL     1      42.963   2.614  11.479  0.00  0.00    +0.000 OA
ATOM     27  H   UNL     1      44.128   1.510   9.542  0.00  0.00    +0.000 HD
ATOM     28  H   UNL     1      45.562   2.518   9.679  0.00  0.00    +0.000 HD
ENDBRANCH  18  25
ENDBRANCH  16  21
ENDBRANCH   1  16
TORSDOF 7
ENDMDL
MODEL 9
REMARK VINA RESULT:    -6.089      3.427      4.952
REMARK INTER + INTRA:          -9.559
REMARK INTER:                  -8.705
REMARK INTRA:                  -0.854
REMARK UNBOUND:                -0.979
REMARK  Name = 
REMARK  7 active torsions:
REMARK  status: ('A' for Active; 'I' for Inactive)
REMARK    1  A    between atoms: C_2  and  C_4
REMARK    2  A    between atoms: C_7  and  N_8
REMARK    3  A    between atoms: N_8  and  C_9
REMARK    4  A    between atoms: C_9  and  C_10
REMARK    5  A    between atoms: C_10  and  C_13
REMARK    6  A    between atoms: C_17  and  S_18
REMARK    7  A    between atoms: S_18  and  C_19
REMARK                            x       y       z     vdW  Elec       q    Type
REMARK                         _______ _______ _______ _____ _____    ______ ____
ROOT
ATOM      1  C   UNL     1      47.061   7.999  13.330  0.00  0.00    +0.000 C 
ENDROOT
BRANCH   1   2
ATOM      2  C   UNL     1      48.564   8.149  12.948  0.00  0.00    +0.000 C 
ATOM      3  F   UNL     1      48.796   7.431  11.809  0.00  0.00    +0.000 F 
ATOM      4  F   UNL     1      48.771   9.457  12.591  0.00  0.00    +0.000 F 
BRANCH   2   5
ATOM      5  C   UNL     1      49.483   7.719  14.076  0.00  0.00    +0.000 A 
ATOM      6  C   UNL     1      50.840   8.064  14.070  0.00  0.00    +0.000 A 
ATOM      7  C   UNL     1      51.669   7.684  15.130  0.00  0.00    +0.000 A 
ATOM      8  C   UNL     1      51.152   6.960  16.210  0.00  0.00    +0.000 A 
ATOM      9  C   UNL     1      49.803   6.597  16.230  0.00  0.00    +0.000 A 
ATOM     10  C   UNL     1      48.980   6.981  15.162  0.00  0.00    +0.000 A 
BRANCH   9  11
ATOM     11  S   UNL     1      49.034   5.819  17.635  0.00  0.00    +0.000 S 
BRANCH  11  12
ATOM     12  C   UNL     1      48.549   4.196  16.957  0.00  0.00    +0.000 C 
ATOM     13  C   UNL     1      47.121   4.099  16.415  0.00  0.00    +0.000 C 
ATOM     14  O   UNL     1      46.789   3.043  17.352  0.00  0.00    +0.000 OA
ATOM     15  C   UNL     1      48.024   3.275  18.073  0.00  0.00    +0.000 C 
ENDBRANCH  11  12
ENDBRANCH   9  11
ENDBRANCH   2   5
ENDBRANCH   1   2
BRANCH   1  16
ATOM     16  N   UNL     1      46.195   7.848  12.138  0.00  0.00    +0.000 N 
ATOM     17  H   UNL     1      45.630   8.682  11.968  0.00  0.00    +0.000 HD
BRANCH  16  21
ATOM     18  C   UNL     1      44.446   4.166  11.303  0.00  0.00    +0.000 A 
ATOM     19  C   UNL     1      44.179   4.740  12.536  0.00  0.00    +0.000 A 
ATOM     20  C   UNL     1      44.734   5.989  12.822  0.00  0.00    +0.000 A 
ATOM     21  C   UNL     1      45.523   6.654  11.881  0.00  0.00    +0.000 A 
ATOM     22  C   UNL     1      45.741   5.962  10.680  0.00  0.00    +0.000 A 
ATOM     23  N   UNL     1      45.222   4.750  10.353  0.00  0.00    +0.000 NA
BRANCH  18  25
ATOM     24  N   UNL     1      44.470   2.178   9.915  0.00  0.00    +0.000 N 
ATOM     25  C   UNL     1      43.897   2.811  10.985  0.00  0.00    +0.000 C 
ATOM     26  O   UNL     1      43.000   2.287  11.634  0.00  0.00    +0.000 OA
ATOM     27  H   UNL     1      44.177   1.243   9.670  0.00  0.00    +0.000 HD
ATOM     28  H   UNL     1      45.232   2.627   9.418  0.00  0.00    +0.000 HD
ENDBRANCH  18  25
ENDBRANCH  16  21
ENDBRANCH   1  16
TORSDOF 7
ENDMDL
