MODEL 1
REMARK VINA RESULT:    -7.725      0.000      0.000
REMARK INTER + INTRA:         -10.176
REMARK INTER:                  -9.531
REMARK INTRA:                  -0.645
REMARK UNBOUND:                -0.645
REMARK  Name = 
REMARK  4 active torsions:
REMARK  status: ('A' for Active; 'I' for Inactive)
REMARK    1  A    between atoms: C_2  and  C_4
REMARK    2  A    between atoms: C_7  and  N_8
REMARK    3  A    between atoms: N_8  and  C_9
REMARK    4  A    between atoms: C_9  and  C_10
REMARK                            x       y       z     vdW  Elec       q    Type
REMARK                         _______ _______ _______ _____ _____    ______ ____
ROOT
ATOM      1  C   UNL     1      46.336   2.285   7.796  0.00  0.00    +0.000 A 
ATOM      2  C   UNL     1      45.411   1.751   8.697  0.00  0.00    +0.000 A 
ATOM      3  C   UNL     1      44.576   2.601   9.432  0.00  0.00    +0.000 A 
ATOM      4  C   UNL     1      44.666   3.989   9.293  0.00  0.00    +0.000 A 
ATOM      5  C   UNL     1      45.546   4.508   8.335  0.00  0.00    +0.000 A 
ATOM      6  C   UNL     1      46.395   3.668   7.609  0.00  0.00    +0.000 A 
ENDROOT
BRANCH   1   8
ATOM      7  N   UNL     1      48.414   2.037   6.548  0.00  0.00    +0.000 N 
ATOM      8  C   UNL     1      47.301   1.430   7.058  0.00  0.00    +0.000 C 
ATOM      9  O   UNL     1      47.124   0.226   6.928  0.00  0.00    +0.000 OA
ATOM     10  H   UNL     1      49.103   1.423   6.131  0.00  0.00    +0.000 HD
ATOM     11  H   UNL     1      48.717   2.952   6.844  0.00  0.00    +0.000 HD
ENDBRANCH   1   8
BRANCH   4  12
ATOM     12  N   UNL     1      43.907   4.894  10.031  0.00  0.00    +0.000 N 
ATOM     13  H   UNL     1      43.042   5.144   9.557  0.00  0.00    +0.000 HD
BRANCH  12  14
ATOM     14  C   UNL     1      43.724   4.664  11.457  0.00  0.00    +0.000 C 
BRANCH  14  15
ATOM     15  C   UNL     1      45.051   4.827  12.152  0.00  0.00    +0.000 A 
ATOM     16  C   UNL     1      45.731   6.045  12.145  0.00  0.00    +0.000 A 
ATOM     17  C   UNL     1      46.938   6.136  12.825  0.00  0.00    +0.000 A 
ATOM     18  N   UNL     1      47.501   5.110  13.503  0.00  0.00    +0.000 NA
ATOM     19  C   UNL     1      46.826   3.942  13.502  0.00  0.00    +0.000 A 
ATOM     20  C   UNL     1      45.617   3.755  12.855  0.00  0.00    +0.000 A 
ENDBRANCH  14  15
ENDBRANCH  12  14
ENDBRANCH   4  12
TORSDOF 4
ENDMDL
MODEL 2
REMARK VINA RESULT:    -7.346      2.432      6.042
REMARK INTER + INTRA:          -9.708
REMARK INTER:                  -9.215
REMARK INTRA:                  -0.493
REMARK UNBOUND:                -0.645
REMARK  Name = 
REMARK  4 active torsions:
REMARK  status: ('A' for Active; 'I' for Inactive)
REMARK    1  A    between atoms: C_2  and  C_4
REMARK    2  A    between atoms: C_7  and  N_8
REMARK    3  A    between atoms: N_8  and  C_9
REMARK    4  A    between atoms: C_9  and  C_10
REMARK                            x       y       z     vdW  Elec       q    Type
REMARK                         _______ _______ _______ _____ _____    ______ ____
ROOT
ATOM      1  C   UNL     1      46.322   4.857  13.107  0.00  0.00    +0.000 A 
ATOM      2  C   UNL     1      46.527   5.981  12.301  0.00  0.00    +0.000 A 
ATOM      3  C   UNL     1      46.066   5.990  10.979  0.00  0.00    +0.000 A 
ATOM      4  C   UNL     1      45.415   4.876  10.440  0.00  0.00    +0.000 A 
ATOM      5  C   UNL     1      45.153   3.786  11.279  0.00  0.00    +0.000 A 
ATOM      6  C   UNL     1      45.624   3.761  12.595  0.00  0.00    +0.000 A 
ENDROOT
BRANCH   1   8
ATOM      7  N   UNL     1      47.516   5.865  14.976  0.00  0.00    +0.000 N 
ATOM      8  C   UNL     1      46.867   4.767  14.485  0.00  0.00    +0.000 C 
ATOM      9  O   UNL     1      46.725   3.762  15.168  0.00  0.00    +0.000 OA
ATOM     10  H   UNL     1      47.797   5.818  15.947  0.00  0.00    +0.000 HD
ATOM     11  H   UNL     1      47.435   6.778  14.554  0.00  0.00    +0.000 HD
ENDBRANCH   1   8
BRANCH   4  12
ATOM     12  N   UNL     1      44.981   4.794   9.120  0.00  0.00    +0.000 N 
ATOM     13  H   UNL     1      45.601   5.289   8.482  0.00  0.00    +0.000 HD
BRANCH  12  14
ATOM     14  C   UNL     1      44.544   3.507   8.597  0.00  0.00    +0.000 C 
BRANCH  14  15
ATOM     15  C   UNL     1      45.731   2.795   8.001  0.00  0.00    +0.000 A 
ATOM     16  C   UNL     1      45.954   1.437   8.228  0.00  0.00    +0.000 A 
ATOM     17  C   UNL     1      47.053   0.835   7.629  0.00  0.00    +0.000 A 
ATOM     18  N   UNL     1      47.927   1.486   6.828  0.00  0.00    +0.000 NA
ATOM     19  C   UNL     1      47.691   2.797   6.616  0.00  0.00    +0.000 A 
ATOM     20  C   UNL     1      46.623   3.484   7.168  0.00  0.00    +0.000 A 
ENDBRANCH  14  15
ENDBRANCH  12  14
ENDBRANCH   4  12
TORSDOF 4
ENDMDL
MODEL 3
REMARK VINA RESULT:    -7.308      2.432      5.939
REMARK INTER + INTRA:          -9.662
REMARK INTER:                  -9.166
REMARK INTRA:                  -0.496
REMARK UNBOUND:                -0.645
REMARK  Name = 
REMARK  4 active torsions:
REMARK  status: ('A' for Active; 'I' for Inactive)
REMARK    1  A    between atoms: C_2  and  C_4
REMARK    2  A    between atoms: C_7  and  N_8
REMARK    3  A    between atoms: N_8  and  C_9
REMARK    4  A    between atoms: C_9  and  C_10
REMARK                            x       y       z     vdW  Elec       q    Type
REMARK                         _______ _______ _______ _____ _____    ______ ____
ROOT
ATOM      1  C   UNL     1      46.314   4.846  13.096  0.00  0.00    +0.000 A 
ATOM      2  C   UNL     1      46.466   5.990  12.306  0.00  0.00    +0.000 A 
ATOM      3  C   UNL     1      46.006   5.996  10.983  0.00  0.00    +0.000 A 
ATOM      4  C   UNL     1      45.409   4.859  10.428  0.00  0.00    +0.000 A 
ATOM      5  C   UNL     1      45.198   3.747  11.252  0.00  0.00    +0.000 A 
ATOM      6  C   UNL     1      45.669   3.726  12.568  0.00  0.00    +0.000 A 
ENDROOT
BRANCH   1   8
ATOM      7  N   UNL     1      47.507   5.865  14.959  0.00  0.00    +0.000 N 
ATOM      8  C   UNL     1      46.861   4.763  14.474  0.00  0.00    +0.000 C 
ATOM      9  O   UNL     1      46.724   3.759  15.160  0.00  0.00    +0.000 OA
ATOM     10  H   UNL     1      47.791   5.822  15.931  0.00  0.00    +0.000 HD
ATOM     11  H   UNL     1      47.422   6.776  14.534  0.00  0.00    +0.000 HD
ENDBRANCH   1   8
BRANCH   4  12
ATOM     12  N   UNL     1      44.980   4.776   9.106  0.00  0.00    +0.000 N 
ATOM     13  H   UNL     1      45.599   5.276   8.471  0.00  0.00    +0.000 HD
BRANCH  12  14
ATOM     14  C   UNL     1      44.555   3.486   8.581  0.00  0.00    +0.000 C 
BRANCH  14  15
ATOM     15  C   UNL     1      45.738   2.806   7.942  0.00  0.00    +0.000 A 
ATOM     16  C   UNL     1      46.614   3.503   7.108  0.00  0.00    +0.000 A 
ATOM     17  C   UNL     1      47.699   2.825   6.570  0.00  0.00    +0.000 A 
ATOM     18  N   UNL     1      47.967   1.521   6.807  0.00  0.00    +0.000 NA
ATOM     19  C   UNL     1      47.112   0.866   7.620  0.00  0.00    +0.000 A 
ATOM     20  C   UNL     1      46.005   1.456   8.203  0.00  0.00    +0.000 A 
ENDBRANCH  14  15
ENDBRANCH  12  14
ENDBRANCH   4  12
TORSDOF 4
ENDMDL
MODEL 4
REMARK VINA RESULT:    -7.096      1.196      2.014
REMARK INTER + INTRA:          -9.400
REMARK INTER:                  -9.050
REMARK INTRA:                  -0.350
REMARK UNBOUND:                -0.645
REMARK  Name = 
REMARK  4 active torsions:
REMARK  status: ('A' for Active; 'I' for Inactive)
REMARK    1  A    between atoms: C_2  and  C_4
REMARK    2  A    between atoms: C_7  and  N_8
REMARK    3  A    between atoms: N_8  and  C_9
REMARK    4  A    between atoms: C_9  and  C_10
REMARK                            x       y       z     vdW  Elec       q    Type
REMARK                         _______ _______ _______ _____ _____    ______ ____
ROOT
ATOM      1  C   UNL     1      46.597   2.715   7.433  0.00  0.00    +0.000 A 
ATOM      2  C   UNL     1      46.248   4.047   7.679  0.00  0.00    +0.000 A 
ATOM      3  C   UNL     1      45.333   4.357   8.693  0.00  0.00    +0.000 A 
ATOM      4  C   UNL     1      44.742   3.346   9.458  0.00  0.00    +0.000 A 
ATOM      5  C   UNL     1      45.154   2.024   9.248  0.00  0.00    +0.000 A 
ATOM      6  C   UNL     1      46.054   1.704   8.228  0.00  0.00    +0.000 A 
ENDROOT
BRANCH   1   8
ATOM      7  N   UNL     1      47.375   3.028   5.146  0.00  0.00    +0.000 N 
ATOM      8  C   UNL     1      47.495   2.331   6.315  0.00  0.00    +0.000 C 
ATOM      9  O   UNL     1      48.327   1.441   6.435  0.00  0.00    +0.000 OA
ATOM     10  H   UNL     1      48.057   2.814   4.429  0.00  0.00    +0.000 HD
ATOM     11  H   UNL     1      46.893   3.913   5.088  0.00  0.00    +0.000 HD
ENDBRANCH   1   8
BRANCH   4  12
ATOM     12  N   UNL     1      43.785   3.577  10.442  0.00  0.00    +0.000 N 
ATOM     13  H   UNL     1      43.939   3.002  11.268  0.00  0.00    +0.000 HD
BRANCH  12  14
ATOM     14  C   UNL     1      43.424   4.949  10.769  0.00  0.00    +0.000 C 
BRANCH  14  15
ATOM     15  C   UNL     1      44.469   5.521  11.692  0.00  0.00    +0.000 A 
ATOM     16  C   UNL     1      45.093   4.734  12.661  0.00  0.00    +0.000 A 
ATOM     17  C   UNL     1      46.065   5.315  13.464  0.00  0.00    +0.000 A 
ATOM     18  N   UNL     1      46.454   6.606  13.363  0.00  0.00    +0.000 NA
ATOM     19  C   UNL     1      45.844   7.349  12.417  0.00  0.00    +0.000 A 
ATOM     20  C   UNL     1      44.865   6.859  11.570  0.00  0.00    +0.000 A 
ENDBRANCH  14  15
ENDBRANCH  12  14
ENDBRANCH   4  12
TORSDOF 4
ENDMDL
MODEL 5
REMARK VINA RESULT:    -6.396      3.187      6.422
REMARK INTER + INTRA:          -8.536
REMARK INTER:                  -8.097
REMARK INTRA:                  -0.439
REMARK UNBOUND:                -0.645
REMARK  Name = 
REMARK  4 active torsions:
REMARK  status: ('A' for Active; 'I' for Inactive)
REMARK    1  A    between atoms: C_2  and  C_4
REMARK    2  A    between atoms: C_7  and  N_8
REMARK    3  A    between atoms: N_8  and  C_9
REMARK    4  A    between atoms: C_9  and  C_10
REMARK                            x       y       z     vdW  Elec       q    Type
REMARK                         _______ _______ _______ _____ _____    ______ ____
ROOT
ATOM      1  C   UNL     1      45.277   7.497  11.828  0.00  0.00    +0.000 A 
ATOM      2  C   UNL     1      43.973   6.996  11.747  0.00  0.00    +0.000 A 
ATOM      3  C   UNL     1      43.734   5.761  11.132  0.00  0.00    +0.000 A 
ATOM      4  C   UNL     1      44.783   5.022  10.576  0.00  0.00    +0.000 A 
ATOM      5  C   UNL     1      46.090   5.502  10.728  0.00  0.00    +0.000 A 
ATOM      6  C   UNL     1      46.337   6.741  11.325  0.00  0.00    +0.000 A 
ENDROOT
BRANCH   1   8
ATOM      7  N   UNL     1      44.504   9.642  12.687  0.00  0.00    +0.000 N 
ATOM      8  C   UNL     1      45.570   8.839  12.393  0.00  0.00    +0.000 C 
ATOM      9  O   UNL     1      46.716   9.209  12.609  0.00  0.00    +0.000 OA
ATOM     10  H   UNL     1      44.720  10.513  13.157  0.00  0.00    +0.000 HD
ATOM     11  H   UNL     1      43.562   9.289  12.762  0.00  0.00    +0.000 HD
ENDBRANCH   1   8
BRANCH   4  12
ATOM     12  N   UNL     1      44.611   3.816   9.902  0.00  0.00    +0.000 N 
ATOM     13  H   UNL     1      43.856   3.261  10.299  0.00  0.00    +0.000 HD
BRANCH  12  14
ATOM     14  C   UNL     1      44.608   3.814   8.446  0.00  0.00    +0.000 C 
BRANCH  14  15
ATOM     15  C   UNL     1      45.754   2.966   7.958  0.00  0.00    +0.000 A 
ATOM     16  C   UNL     1      45.815   1.599   8.230  0.00  0.00    +0.000 A 
ATOM     17  C   UNL     1      46.885   0.869   7.731  0.00  0.00    +0.000 A 
ATOM     18  N   UNL     1      47.880   1.402   6.986  0.00  0.00    +0.000 NA
ATOM     19  C   UNL     1      47.801   2.724   6.729  0.00  0.00    +0.000 A 
ATOM     20  C   UNL     1      46.774   3.534   7.182  0.00  0.00    +0.000 A 
ENDBRANCH  14  15
ENDBRANCH  12  14
ENDBRANCH   4  12
TORSDOF 4
ENDMDL
MODEL 6
REMARK VINA RESULT:    -5.497      3.136      6.390
REMARK INTER + INTRA:          -7.427
REMARK INTER:                  -6.920
REMARK INTRA:                  -0.507
REMARK UNBOUND:                -0.645
REMARK  Name = 
REMARK  4 active torsions:
REMARK  status: ('A' for Active; 'I' for Inactive)
REMARK    1  A    between atoms: C_2  and  C_4
REMARK    2  A    between atoms: C_7  and  N_8
REMARK    3  A    between atoms: N_8  and  C_9
REMARK    4  A    between atoms: C_9  and  C_10
REMARK                            x       y       z     vdW  Elec       q    Type
REMARK                         _______ _______ _______ _____ _____    ______ ____
ROOT
ATOM      1  C   UNL     1      48.193   6.716  13.743  0.00  0.00    +0.000 A 
ATOM      2  C   UNL     1      47.225   5.715  13.873  0.00  0.00    +0.000 A 
ATOM      3  C   UNL     1      46.285   5.512  12.856  0.00  0.00    +0.000 A 
ATOM      4  C   UNL     1      46.286   6.313  11.709  0.00  0.00    +0.000 A 
ATOM      5  C   UNL     1      47.304   7.263  11.560  0.00  0.00    +0.000 A 
ATOM      6  C   UNL     1      48.236   7.484  12.578  0.00  0.00    +0.000 A 
ENDROOT
BRANCH   1   8
ATOM      7  N   UNL     1      49.503   8.335  15.006  0.00  0.00    +0.000 N 
ATOM      8  C   UNL     1      49.156   7.026  14.831  0.00  0.00    +0.000 C 
ATOM      9  O   UNL     1      49.606   6.151  15.558  0.00  0.00    +0.000 OA
ATOM     10  H   UNL     1      50.086   8.537  15.810  0.00  0.00    +0.000 HD
ATOM     11  H   UNL     1      48.974   9.096  14.607  0.00  0.00    +0.000 HD
ENDBRANCH   1   8
BRANCH   4  12
ATOM     12  N   UNL     1      45.348   6.204  10.686  0.00  0.00    +0.000 N 
ATOM     13  H   UNL     1      45.741   6.450   9.779  0.00  0.00    +0.000 HD
BRANCH  12  14
ATOM     14  C   UNL     1      44.497   5.024  10.630  0.00  0.00    +0.000 C 
BRANCH  14  15
ATOM     15  C   UNL     1      45.068   4.058   9.626  0.00  0.00    +0.000 A 
ATOM     16  C   UNL     1      44.900   2.680   9.765  0.00  0.00    +0.000 A 
ATOM     17  C   UNL     1      45.431   1.844   8.792  0.00  0.00    +0.000 A 
ATOM     18  N   UNL     1      46.103   2.283   7.704  0.00  0.00    +0.000 NA
ATOM     19  C   UNL     1      46.251   3.619   7.584  0.00  0.00    +0.000 A 
ATOM     20  C   UNL     1      45.757   4.531   8.501  0.00  0.00    +0.000 A 
ENDBRANCH  14  15
ENDBRANCH  12  14
ENDBRANCH   4  12
TORSDOF 4
ENDMDL
MODEL 7
REMARK VINA RESULT:    -5.224      2.899      4.439
REMARK INTER + INTRA:          -7.090
REMARK INTER:                  -6.680
REMARK INTRA:                  -0.410
REMARK UNBOUND:                -0.645
REMARK  Name = 
REMARK  4 active torsions:
REMARK  status: ('A' for Active; 'I' for Inactive)
REMARK    1  A    between atoms: C_2  and  C_4
REMARK    2  A    between atoms: C_7  and  N_8
REMARK    3  A    between atoms: N_8  and  C_9
REMARK    4  A    between atoms: C_9  and  C_10
REMARK                            x       y       z     vdW  Elec       q    Type
REMARK                         _______ _______ _______ _____ _____    ______ ____
ROOT
ATOM      1  C   UNL     1      44.994   3.898  10.535  0.00  0.00    +0.000 A 
ATOM      2  C   UNL     1      44.943   3.235  11.766  0.00  0.00    +0.000 A 
ATOM      3  C   UNL     1      45.363   3.887  12.931  0.00  0.00    +0.000 A 
ATOM      4  C   UNL     1      45.856   5.195  12.883  0.00  0.00    +0.000 A 
ATOM      5  C   UNL     1      45.834   5.870  11.656  0.00  0.00    +0.000 A 
ATOM      6  C   UNL     1      45.432   5.223  10.485  0.00  0.00    +0.000 A 
ENDROOT
BRANCH   1   8
ATOM      7  N   UNL     1      44.575   1.856   9.274  0.00  0.00    +0.000 N 
ATOM      8  C   UNL     1      44.640   3.221   9.261  0.00  0.00    +0.000 C 
ATOM      9  O   UNL     1      44.395   3.855   8.244  0.00  0.00    +0.000 OA
ATOM     10  H   UNL     1      44.243   1.420   8.423  0.00  0.00    +0.000 HD
ATOM     11  H   UNL     1      44.521   1.323  10.128  0.00  0.00    +0.000 HD
ENDBRANCH   1   8
BRANCH   4  12
ATOM     12  N   UNL     1      46.342   5.883  13.991  0.00  0.00    +0.000 N 
ATOM     13  H   UNL     1      45.733   5.781  14.802  0.00  0.00    +0.000 HD
BRANCH  12  14
ATOM     14  C   UNL     1      47.754   5.772  14.329  0.00  0.00    +0.000 C 
BRANCH  14  15
ATOM     15  C   UNL     1      47.880   5.192  15.714  0.00  0.00    +0.000 A 
ATOM     16  C   UNL     1      47.291   3.972  16.048  0.00  0.00    +0.000 A 
ATOM     17  C   UNL     1      47.465   3.481  17.335  0.00  0.00    +0.000 A 
ATOM     18  N   UNL     1      48.179   4.112  18.294  0.00  0.00    +0.000 NA
ATOM     19  C   UNL     1      48.746   5.288  17.950  0.00  0.00    +0.000 A 
ATOM     20  C   UNL     1      48.629   5.857  16.694  0.00  0.00    +0.000 A 
ENDBRANCH  14  15
ENDBRANCH  12  14
ENDBRANCH   4  12
TORSDOF 4
ENDMDL
MODEL 8
REMARK VINA RESULT:    -5.083      3.485      5.459
REMARK INTER + INTRA:          -6.917
REMARK INTER:                  -6.586
REMARK INTRA:                  -0.331
REMARK UNBOUND:                -0.645
REMARK  Name = 
REMARK  4 active torsions:
REMARK  status: ('A' for Active; 'I' for Inactive)
REMARK    1  A    between atoms: C_2  and  C_4
REMARK    2  A    between atoms: C_7  and  N_8
REMARK    3  A    between atoms: N_8  and  C_9
REMARK    4  A    between atoms: C_9  and  C_10
REMARK                            x       y       z     vdW  Elec       q    Type
REMARK                         _______ _______ _______ _____ _____    ______ ____
ROOT
ATOM      1  C   UNL     1      45.044   4.218  11.299  0.00  0.00    +0.000 A 
ATOM      2  C   UNL     1      45.510   5.535  11.355  0.00  0.00    +0.000 A 
ATOM      3  C   UNL     1      46.270   5.965  12.449  0.00  0.00    +0.000 A 
ATOM      4  C   UNL     1      46.557   5.096  13.507  0.00  0.00    +0.000 A 
ATOM      5  C   UNL     1      46.144   3.762  13.405  0.00  0.00    +0.000 A 
ATOM      6  C   UNL     1      45.372   3.328  12.325  0.00  0.00    +0.000 A 
ENDROOT
BRANCH   1   8
ATOM      7  N   UNL     1      43.971   4.580   9.142  0.00  0.00    +0.000 N 
ATOM      8  C   UNL     1      44.163   3.740  10.203  0.00  0.00    +0.000 C 
ATOM      9  O   UNL     1      43.646   2.631  10.231  0.00  0.00    +0.000 OA
ATOM     10  H   UNL     1      43.445   4.200   8.365  0.00  0.00    +0.000 HD
ATOM     11  H   UNL     1      44.565   5.376   8.965  0.00  0.00    +0.000 HD
ENDBRANCH   1   8
BRANCH   4  12
ATOM     12  N   UNL     1      47.258   5.471  14.651  0.00  0.00    +0.000 N 
ATOM     13  H   UNL     1      46.948   6.372  15.011  0.00  0.00    +0.000 HD
BRANCH  12  14
ATOM     14  C   UNL     1      47.474   4.486  15.702  0.00  0.00    +0.000 C 
BRANCH  14  15
ATOM     15  C   UNL     1      48.216   5.142  16.837  0.00  0.00    +0.000 A 
ATOM     16  C   UNL     1      47.892   4.874  18.168  0.00  0.00    +0.000 A 
ATOM     17  C   UNL     1      48.631   5.492  19.168  0.00  0.00    +0.000 A 
ATOM     18  N   UNL     1      49.658   6.340  18.934  0.00  0.00    +0.000 NA
ATOM     19  C   UNL     1      49.959   6.582  17.641  0.00  0.00    +0.000 A 
ATOM     20  C   UNL     1      49.281   6.014  16.577  0.00  0.00    +0.000 A 
ENDBRANCH  14  15
ENDBRANCH  12  14
ENDBRANCH   4  12
TORSDOF 4
ENDMDL
MODEL 9
REMARK VINA RESULT:    -5.042      2.631      4.200
REMARK INTER + INTRA:          -6.866
REMARK INTER:                  -6.379
REMARK INTRA:                  -0.487
REMARK UNBOUND:                -0.645
REMARK  Name = 
REMARK  4 active torsions:
REMARK  status: ('A' for Active; 'I' for Inactive)
REMARK    1  A    between atoms: C_2  and  C_4
REMARK    2  A    between atoms: C_7  and  N_8
REMARK    3  A    between atoms: N_8  and  C_9
REMARK    4  A    between atoms: C_9  and  C_10
REMARK                            x       y       z     vdW  Elec       q    Type
REMARK                         _______ _______ _______ _____ _____    ______ ____
ROOT
ATOM      1  C   UNL     1      44.991   3.802  10.328  0.00  0.00    +0.000 A 
ATOM      2  C   UNL     1      45.003   3.201  11.591  0.00  0.00    +0.000 A 
ATOM      3  C   UNL     1      45.383   3.941  12.717  0.00  0.00    +0.000 A 
ATOM      4  C   UNL     1      45.773   5.279  12.596  0.00  0.00    +0.000 A 
ATOM      5  C   UNL     1      45.688   5.888  11.338  0.00  0.00    +0.000 A 
ATOM      6  C   UNL     1      45.326   5.152  10.206  0.00  0.00    +0.000 A 
ENDROOT
BRANCH   1   8
ATOM      7  N   UNL     1      44.589   1.678   9.206  0.00  0.00    +0.000 N 
ATOM      8  C   UNL     1      44.679   3.036   9.095  0.00  0.00    +0.000 C 
ATOM      9  O   UNL     1      44.487   3.595   8.023  0.00  0.00    +0.000 OA
ATOM     10  H   UNL     1      44.284   1.183   8.377  0.00  0.00    +0.000 HD
ATOM     11  H   UNL     1      44.489   1.211  10.095  0.00  0.00    +0.000 HD
ENDBRANCH   1   8
BRANCH   4  12
ATOM     12  N   UNL     1      46.216   6.057  13.662  0.00  0.00    +0.000 N 
ATOM     13  H   UNL     1      45.652   5.916  14.499  0.00  0.00    +0.000 HD
BRANCH  12  14
ATOM     14  C   UNL     1      47.642   6.121  13.947  0.00  0.00    +0.000 C 
BRANCH  14  15
ATOM     15  C   UNL     1      48.196   7.402  13.379  0.00  0.00    +0.000 A 
ATOM     16  C   UNL     1      47.965   8.631  13.997  0.00  0.00    +0.000 A 
ATOM     17  C   UNL     1      48.524   9.772  13.437  0.00  0.00    +0.000 A 
ATOM     18  N   UNL     1      49.289   9.768  12.322  0.00  0.00    +0.000 NA
ATOM     19  C   UNL     1      49.506   8.569  11.742  0.00  0.00    +0.000 A 
ATOM     20  C   UNL     1      48.993   7.379  12.227  0.00  0.00    +0.000 A 
ENDBRANCH  14  15
ENDBRANCH  12  14
ENDBRANCH   4  12
TORSDOF 4
ENDMDL
