MODEL 1
REMARK VINA RESULT:    -8.186      0.000      0.000
REMARK INTER + INTRA:         -10.245
REMARK INTER:                 -10.339
REMARK INTRA:                   0.094
REMARK UNBOUND:                 0.094
REMARK  Name = 
REMARK  5 active torsions:
REMARK  status: ('A' for Active; 'I' for Inactive)
REMARK    1  A    between atoms: N_1  and  C_2
REMARK    2  A    between atoms: C_2  and  C_3
REMARK    3  A    between atoms: C_6  and  C_7
REMARK    4  A    between atoms: C_7  and  N_8
REMARK    5  A    between atoms: C_13  and  C_14
REMARK                            x       y       z     vdW  Elec       q    Type
REMARK                         _______ _______ _______ _____ _____    ______ ____
ROOT
ATOM      1  N   UNL     1      43.818   4.305  10.480  0.00  0.00    +0.000 N 
ATOM      2  N   UNL     1      43.205   3.234  11.012  0.00  0.00    +0.000 NA
ATOM      3  N   UNL     1      43.754   2.152  10.476  0.00  0.00    +0.000 NA
ATOM      4  C   UNL     1      44.695   2.559   9.570  0.00  0.00    +0.000 A 
ATOM      5  C   UNL     1      45.535   1.810   8.734  0.00  0.00    +0.000 A 
ATOM      6  C   UNL     1      46.394   2.497   7.858  0.00  0.00    +0.000 A 
ATOM      7  C   UNL     1      46.421   3.901   7.853  0.00  0.00    +0.000 A 
ATOM      8  C   UNL     1      45.605   4.660   8.698  0.00  0.00    +0.000 A 
ATOM      9  C   UNL     1      44.749   3.947   9.540  0.00  0.00    +0.000 A 
ENDROOT
BRANCH   6  10
ATOM     10  C   UNL     1      47.289   1.786   6.900  0.00  0.00    +0.000 C 
ATOM     11  N   UNL     1      48.331   2.470   6.342  0.00  0.00    +0.000 N 
ATOM     12  O   UNL     1      47.108   0.609   6.614  0.00  0.00    +0.000 OA
ATOM     13  H   UNL     1      48.570   3.431   6.523  0.00  0.00    +0.000 HD
ATOM     14  H   UNL     1      48.927   1.950   5.707  0.00  0.00    +0.000 HD
ENDBRANCH   6  10
BRANCH   1  15
ATOM     15  C   UNL     1      43.461   5.640  10.902  0.00  0.00    +0.000 C 
BRANCH  15  19
ATOM     16  C   UNL     1      46.932   5.982  12.396  0.00  0.00    +0.000 C 
ATOM     17  C   UNL     1      46.107   4.682  12.384  0.00  0.00    +0.000 C 
ATOM     18  C   UNL     1      44.721   4.874  13.003  0.00  0.00    +0.000 C 
ATOM     19  C   UNL     1      43.923   6.004  12.326  0.00  0.00    +0.000 C 
ATOM     20  C   UNL     1      44.752   7.303  12.294  0.00  0.00    +0.000 C 
ATOM     21  C   UNL     1      46.142   7.098  11.689  0.00  0.00    +0.000 C 
BRANCH  16  22
ATOM     22  C   UNL     1      47.337   6.327  13.846  0.00  0.00    +0.000 C 
BRANCH  22  23
ATOM     23  N   UNL     1      47.898   5.196  14.574  0.00  0.00    +0.000 NA
ATOM     24  H   UNL     1      48.907   5.184  14.426  0.00  0.00    +0.000 HD
ATOM     25  H   UNL     1      47.558   4.324  14.171  0.00  0.00    +0.000 HD
ENDBRANCH  22  23
ENDBRANCH  16  22
ENDBRANCH  15  19
ENDBRANCH   1  15
TORSDOF 5
ENDMDL
MODEL 2
REMARK VINA RESULT:    -6.757      1.738      2.248
REMARK INTER + INTRA:          -8.441
REMARK INTER:                  -8.689
REMARK INTRA:                   0.248
REMARK UNBOUND:                 0.094
REMARK  Name = 
REMARK  5 active torsions:
REMARK  status: ('A' for Active; 'I' for Inactive)
REMARK    1  A    between atoms: N_1  and  C_2
REMARK    2  A    between atoms: C_2  and  C_3
REMARK    3  A    between atoms: C_6  and  C_7
REMARK    4  A    between atoms: C_7  and  N_8
REMARK    5  A    between atoms: C_13  and  C_14
REMARK                            x       y       z     vdW  Elec       q    Type
REMARK                         _______ _______ _______ _____ _____    ______ ____
ROOT
ATOM      1  N   UNL     1      44.362   4.696  10.822  0.00  0.00    +0.000 N 
ATOM      2  N   UNL     1      43.657   3.666  11.321  0.00  0.00    +0.000 NA
ATOM      3  N   UNL     1      43.931   2.598  10.582  0.00  0.00    +0.000 NA
ATOM      4  C   UNL     1      44.789   2.981   9.587  0.00  0.00    +0.000 A 
ATOM      5  C   UNL     1      45.360   2.237   8.545  0.00  0.00    +0.000 A 
ATOM      6  C   UNL     1      46.190   2.902   7.625  0.00  0.00    +0.000 A 
ATOM      7  C   UNL     1      46.457   4.272   7.777  0.00  0.00    +0.000 A 
ATOM      8  C   UNL     1      45.912   5.021   8.825  0.00  0.00    +0.000 A 
ATOM      9  C   UNL     1      45.074   4.335   9.708  0.00  0.00    +0.000 A 
ENDROOT
BRANCH   6  10
ATOM     10  C   UNL     1      46.805   2.204   6.459  0.00  0.00    +0.000 C 
ATOM     11  N   UNL     1      47.131   2.935   5.353  0.00  0.00    +0.000 N 
ATOM     12  O   UNL     1      47.024   0.999   6.482  0.00  0.00    +0.000 OA
ATOM     13  H   UNL     1      47.004   3.927   5.243  0.00  0.00    +0.000 HD
ATOM     14  H   UNL     1      47.560   2.429   4.585  0.00  0.00    +0.000 HD
ENDBRANCH   6  10
BRANCH   1  15
ATOM     15  C   UNL     1      44.303   5.997  11.447  0.00  0.00    +0.000 C 
BRANCH  15  19
ATOM     16  C   UNL     1      46.427   8.438  13.428  0.00  0.00    +0.000 C 
ATOM     17  C   UNL     1      45.078   8.783  12.769  0.00  0.00    +0.000 C 
ATOM     18  C   UNL     1      45.063   8.443  11.278  0.00  0.00    +0.000 C 
ATOM     19  C   UNL     1      45.415   6.969  11.005  0.00  0.00    +0.000 C 
ATOM     20  C   UNL     1      46.743   6.596  11.692  0.00  0.00    +0.000 C 
ATOM     21  C   UNL     1      46.755   6.955  13.179  0.00  0.00    +0.000 C 
BRANCH  16  22
ATOM     22  C   UNL     1      47.516   9.411  12.925  0.00  0.00    +0.000 C 
BRANCH  22  23
ATOM     23  N   UNL     1      47.064  10.794  12.849  0.00  0.00    +0.000 NA
ATOM     24  H   UNL     1      47.002  11.168  13.797  0.00  0.00    +0.000 HD
ATOM     25  H   UNL     1      46.112  10.827  12.486  0.00  0.00    +0.000 HD
ENDBRANCH  22  23
ENDBRANCH  16  22
ENDBRANCH  15  19
ENDBRANCH   1  15
TORSDOF 5
ENDMDL
MODEL 3
REMARK VINA RESULT:    -6.506      3.361      5.496
REMARK INTER + INTRA:          -8.124
REMARK INTER:                  -7.519
REMARK INTRA:                  -0.605
REMARK UNBOUND:                 0.094
REMARK  Name = 
REMARK  5 active torsions:
REMARK  status: ('A' for Active; 'I' for Inactive)
REMARK    1  A    between atoms: N_1  and  C_2
REMARK    2  A    between atoms: C_2  and  C_3
REMARK    3  A    between atoms: C_6  and  C_7
REMARK    4  A    between atoms: C_7  and  N_8
REMARK    5  A    between atoms: C_13  and  C_14
REMARK                            x       y       z     vdW  Elec       q    Type
REMARK                         _______ _______ _______ _____ _____    ______ ____
ROOT
ATOM      1  N   UNL     1      47.632   6.041  14.136  0.00  0.00    +0.000 N 
ATOM      2  N   UNL     1      47.833   4.972  14.926  0.00  0.00    +0.000 NA
ATOM      3  N   UNL     1      47.108   3.973  14.439  0.00  0.00    +0.000 NA
ATOM      4  C   UNL     1      46.418   4.441  13.353  0.00  0.00    +0.000 A 
ATOM      5  C   UNL     1      45.510   3.790  12.506  0.00  0.00    +0.000 A 
ATOM      6  C   UNL     1      44.909   4.532  11.474  0.00  0.00    +0.000 A 
ATOM      7  C   UNL     1      45.242   5.884  11.289  0.00  0.00    +0.000 A 
ATOM      8  C   UNL     1      46.164   6.538  12.113  0.00  0.00    +0.000 A 
ATOM      9  C   UNL     1      46.726   5.778  13.142  0.00  0.00    +0.000 A 
ENDROOT
BRANCH   6  10
ATOM     10  C   UNL     1      43.897   3.939  10.552  0.00  0.00    +0.000 C 
ATOM     11  N   UNL     1      43.871   4.352   9.251  0.00  0.00    +0.000 N 
ATOM     12  O   UNL     1      43.102   3.091  10.940  0.00  0.00    +0.000 OA
ATOM     13  H   UNL     1      44.489   5.029   8.835  0.00  0.00    +0.000 HD
ATOM     14  H   UNL     1      43.180   3.915   8.650  0.00  0.00    +0.000 HD
ENDBRANCH   6  10
BRANCH   1  15
ATOM     15  C   UNL     1      48.326   7.282  14.391  0.00  0.00    +0.000 C 
BRANCH  15  19
ATOM     16  C   UNL     1      49.954  10.011  12.317  0.00  0.00    +0.000 C 
ATOM     17  C   UNL     1      49.143   8.836  11.739  0.00  0.00    +0.000 C 
ATOM     18  C   UNL     1      49.673   7.482  12.215  0.00  0.00    +0.000 C 
ATOM     19  C   UNL     1      49.725   7.375  13.750  0.00  0.00    +0.000 C 
ATOM     20  C   UNL     1      50.499   8.566  14.347  0.00  0.00    +0.000 C 
ATOM     21  C   UNL     1      49.973   9.915  13.853  0.00  0.00    +0.000 C 
BRANCH  16  22
ATOM     22  C   UNL     1      51.359  10.039  11.676  0.00  0.00    +0.000 C 
BRANCH  22  23
ATOM     23  N   UNL     1      51.360  10.534  10.306  0.00  0.00    +0.000 NA
ATOM     24  H   UNL     1      51.778  11.465  10.298  0.00  0.00    +0.000 HD
ATOM     25  H   UNL     1      50.401  10.669   9.988  0.00  0.00    +0.000 HD
ENDBRANCH  22  23
ENDBRANCH  16  22
ENDBRANCH  15  19
ENDBRANCH   1  15
TORSDOF 5
ENDMDL
MODEL 4
REMARK VINA RESULT:    -6.119      4.914      8.503
REMARK INTER + INTRA:          -7.635
REMARK INTER:                  -7.212
REMARK INTRA:                  -0.423
REMARK UNBOUND:                 0.094
REMARK  Name = 
REMARK  5 active torsions:
REMARK  status: ('A' for Active; 'I' for Inactive)
REMARK    1  A    between atoms: N_1  and  C_2
REMARK    2  A    between atoms: C_2  and  C_3
REMARK    3  A    between atoms: C_6  and  C_7
REMARK    4  A    between atoms: C_7  and  N_8
REMARK    5  A    between atoms: C_13  and  C_14
REMARK                            x       y       z     vdW  Elec       q    Type
REMARK                         _______ _______ _______ _____ _____    ______ ____
ROOT
ATOM      1  N   UNL     1      47.589   4.048  15.635  0.00  0.00    +0.000 N 
ATOM      2  N   UNL     1      47.945   2.761  15.476  0.00  0.00    +0.000 NA
ATOM      3  N   UNL     1      48.819   2.468  16.430  0.00  0.00    +0.000 NA
ATOM      4  C   UNL     1      49.037   3.600  17.168  0.00  0.00    +0.000 A 
ATOM      5  C   UNL     1      49.879   3.818  18.267  0.00  0.00    +0.000 A 
ATOM      6  C   UNL     1      49.938   5.112  18.817  0.00  0.00    +0.000 A 
ATOM      7  C   UNL     1      49.146   6.142  18.286  0.00  0.00    +0.000 A 
ATOM      8  C   UNL     1      48.285   5.931  17.204  0.00  0.00    +0.000 A 
ATOM      9  C   UNL     1      48.266   4.641  16.668  0.00  0.00    +0.000 A 
ENDROOT
BRANCH   6  10
ATOM     10  C   UNL     1      50.838   5.451  19.958  0.00  0.00    +0.000 C 
ATOM     11  N   UNL     1      51.474   4.438  20.617  0.00  0.00    +0.000 N 
ATOM     12  O   UNL     1      51.017   6.613  20.303  0.00  0.00    +0.000 OA
ATOM     13  H   UNL     1      51.404   3.458  20.400  0.00  0.00    +0.000 HD
ATOM     14  H   UNL     1      52.089   4.708  21.377  0.00  0.00    +0.000 HD
ENDBRANCH   6  10
BRANCH   1  15
ATOM     15  C   UNL     1      46.608   4.650  14.763  0.00  0.00    +0.000 C 
BRANCH  15  19
ATOM     16  C   UNL     1      44.522   5.518  11.714  0.00  0.00    +0.000 C 
ATOM     17  C   UNL     1      44.417   4.198  12.502  0.00  0.00    +0.000 C 
ATOM     18  C   UNL     1      45.769   3.495  12.629  0.00  0.00    +0.000 C 
ATOM     19  C   UNL     1      46.847   4.396  13.262  0.00  0.00    +0.000 C 
ATOM     20  C   UNL     1      46.936   5.737  12.508  0.00  0.00    +0.000 C 
ATOM     21  C   UNL     1      45.577   6.426  12.371  0.00  0.00    +0.000 C 
BRANCH  16  22
ATOM     22  C   UNL     1      44.801   5.213  10.225  0.00  0.00    +0.000 C 
BRANCH  22  23
ATOM     23  N   UNL     1      43.646   4.675   9.519  0.00  0.00    +0.000 NA
ATOM     24  H   UNL     1      43.661   3.658   9.602  0.00  0.00    +0.000 HD
ATOM     25  H   UNL     1      43.733   4.863   8.521  0.00  0.00    +0.000 HD
ENDBRANCH  22  23
ENDBRANCH  16  22
ENDBRANCH  15  19
ENDBRANCH   1  15
TORSDOF 5
ENDMDL
MODEL 5
REMARK VINA RESULT:    -6.071      3.494      5.743
REMARK INTER + INTRA:          -7.574
REMARK INTER:                  -7.161
REMARK INTRA:                  -0.414
REMARK UNBOUND:                 0.094
REMARK  Name = 
REMARK  5 active torsions:
REMARK  status: ('A' for Active; 'I' for Inactive)
REMARK    1  A    between atoms: N_1  and  C_2
REMARK    2  A    between atoms: C_2  and  C_3
REMARK    3  A    between atoms: C_6  and  C_7
REMARK    4  A    between atoms: C_7  and  N_8
REMARK    5  A    between atoms: C_13  and  C_14
REMARK                            x       y       z     vdW  Elec       q    Type
REMARK                         _______ _______ _______ _____ _____    ______ ____
ROOT
ATOM      1  N   UNL     1      47.834   5.835  14.103  0.00  0.00    +0.000 N 
ATOM      2  N   UNL     1      47.886   4.809  14.970  0.00  0.00    +0.000 NA
ATOM      3  N   UNL     1      47.054   3.873  14.531  0.00  0.00    +0.000 NA
ATOM      4  C   UNL     1      46.449   4.342  13.397  0.00  0.00    +0.000 A 
ATOM      5  C   UNL     1      45.486   3.748  12.570  0.00  0.00    +0.000 A 
ATOM      6  C   UNL     1      45.001   4.482  11.472  0.00  0.00    +0.000 A 
ATOM      7  C   UNL     1      45.502   5.766  11.206  0.00  0.00    +0.000 A 
ATOM      8  C   UNL     1      46.479   6.361  12.010  0.00  0.00    +0.000 A 
ATOM      9  C   UNL     1      46.923   5.614  13.103  0.00  0.00    +0.000 A 
ENDROOT
BRANCH   6  10
ATOM     10  C   UNL     1      43.944   3.951  10.564  0.00  0.00    +0.000 C 
ATOM     11  N   UNL     1      43.895   4.403   9.276  0.00  0.00    +0.000 N 
ATOM     12  O   UNL     1      43.131   3.120  10.951  0.00  0.00    +0.000 OA
ATOM     13  H   UNL     1      44.524   5.070   8.862  0.00  0.00    +0.000 HD
ATOM     14  H   UNL     1      43.172   4.009   8.684  0.00  0.00    +0.000 HD
ENDBRANCH   6  10
BRANCH   1  15
ATOM     15  C   UNL     1      48.669   6.998  14.293  0.00  0.00    +0.000 C 
BRANCH  15  19
ATOM     16  C   UNL     1      50.948   9.624  15.814  0.00  0.00    +0.000 C 
ATOM     17  C   UNL     1      51.428   8.297  15.196  0.00  0.00    +0.000 C 
ATOM     18  C   UNL     1      50.731   7.086  15.820  0.00  0.00    +0.000 C 
ATOM     19  C   UNL     1      49.196   7.178  15.730  0.00  0.00    +0.000 C 
ATOM     20  C   UNL     1      48.702   8.518  16.308  0.00  0.00    +0.000 C 
ATOM     21  C   UNL     1      49.416   9.722  15.691  0.00  0.00    +0.000 C 
BRANCH  16  22
ATOM     22  C   UNL     1      51.466   9.740  17.265  0.00  0.00    +0.000 C 
BRANCH  22  23
ATOM     23  N   UNL     1      52.907   9.555  17.380  0.00  0.00    +0.000 NA
ATOM     24  H   UNL     1      53.217   9.970  18.259  0.00  0.00    +0.000 HD
ATOM     25  H   UNL     1      53.382  10.086  16.651  0.00  0.00    +0.000 HD
ENDBRANCH  22  23
ENDBRANCH  16  22
ENDBRANCH  15  19
ENDBRANCH   1  15
TORSDOF 5
ENDMDL
MODEL 6
REMARK VINA RESULT:    -6.064      3.391      5.400
REMARK INTER + INTRA:          -7.565
REMARK INTER:                  -6.934
REMARK INTRA:                  -0.631
REMARK UNBOUND:                 0.094
REMARK  Name = 
REMARK  5 active torsions:
REMARK  status: ('A' for Active; 'I' for Inactive)
REMARK    1  A    between atoms: N_1  and  C_2
REMARK    2  A    between atoms: C_2  and  C_3
REMARK    3  A    between atoms: C_6  and  C_7
REMARK    4  A    between atoms: C_7  and  N_8
REMARK    5  A    between atoms: C_13  and  C_14
REMARK                            x       y       z     vdW  Elec       q    Type
REMARK                         _______ _______ _______ _____ _____    ______ ____
ROOT
ATOM      1  N   UNL     1      45.881   8.254  12.692  0.00  0.00    +0.000 N 
ATOM      2  N   UNL     1      45.117   9.007  11.882  0.00  0.00    +0.000 NA
ATOM      3  N   UNL     1      44.274   8.195  11.258  0.00  0.00    +0.000 NA
ATOM      4  C   UNL     1      44.545   6.914  11.659  0.00  0.00    +0.000 A 
ATOM      5  C   UNL     1      43.952   5.701  11.283  0.00  0.00    +0.000 A 
ATOM      6  C   UNL     1      44.461   4.509  11.830  0.00  0.00    +0.000 A 
ATOM      7  C   UNL     1      45.519   4.552  12.753  0.00  0.00    +0.000 A 
ATOM      8  C   UNL     1      46.104   5.757  13.153  0.00  0.00    +0.000 A 
ATOM      9  C   UNL     1      45.588   6.920  12.575  0.00  0.00    +0.000 A 
ENDROOT
BRANCH   6  10
ATOM     10  C   UNL     1      43.926   3.169  11.455  0.00  0.00    +0.000 C 
ATOM     11  N   UNL     1      43.646   2.272  12.445  0.00  0.00    +0.000 N 
ATOM     12  O   UNL     1      43.732   2.866  10.283  0.00  0.00    +0.000 OA
ATOM     13  H   UNL     1      43.758   2.430  13.433  0.00  0.00    +0.000 HD
ATOM     14  H   UNL     1      43.270   1.376  12.153  0.00  0.00    +0.000 HD
ENDBRANCH   6  10
BRANCH   1  15
ATOM     15  C   UNL     1      46.876   8.867  13.541  0.00  0.00    +0.000 C 
BRANCH  15  19
ATOM     16  C   UNL     1      50.563   7.970  13.523  0.00  0.00    +0.000 C 
ATOM     17  C   UNL     1      49.912   8.987  14.480  0.00  0.00    +0.000 C 
ATOM     18  C   UNL     1      49.136  10.069  13.727  0.00  0.00    +0.000 C 
ATOM     19  C   UNL     1      48.068   9.483  12.784  0.00  0.00    +0.000 C 
ATOM     20  C   UNL     1      48.696   8.434  11.847  0.00  0.00    +0.000 C 
ATOM     21  C   UNL     1      49.484   7.364  12.607  0.00  0.00    +0.000 C 
BRANCH  16  22
ATOM     22  C   UNL     1      51.724   8.643  12.759  0.00  0.00    +0.000 C 
BRANCH  22  23
ATOM     23  N   UNL     1      53.016   8.012  12.999  0.00  0.00    +0.000 NA
ATOM     24  H   UNL     1      53.742   8.592  12.579  0.00  0.00    +0.000 HD
ATOM     25  H   UNL     1      53.063   7.123  12.503  0.00  0.00    +0.000 HD
ENDBRANCH  22  23
ENDBRANCH  16  22
ENDBRANCH  15  19
ENDBRANCH   1  15
TORSDOF 5
ENDMDL
MODEL 7
REMARK VINA RESULT:    -5.994      3.577      5.852
REMARK INTER + INTRA:          -7.477
REMARK INTER:                  -6.935
REMARK INTRA:                  -0.542
REMARK UNBOUND:                 0.094
REMARK  Name = 
REMARK  5 active torsions:
REMARK  status: ('A' for Active; 'I' for Inactive)
REMARK    1  A    between atoms: N_1  and  C_2
REMARK    2  A    between atoms: C_2  and  C_3
REMARK    3  A    between atoms: C_6  and  C_7
REMARK    4  A    between atoms: C_7  and  N_8
REMARK    5  A    between atoms: C_13  and  C_14
REMARK                            x       y       z     vdW  Elec       q    Type
REMARK                         _______ _______ _______ _____ _____    ______ ____
ROOT
ATOM      1  N   UNL     1      47.751   6.252  13.966  0.00  0.00    +0.000 N 
ATOM      2  N   UNL     1      47.787   7.508  13.487  0.00  0.00    +0.000 NA
ATOM      3  N   UNL     1      46.874   7.596  12.528  0.00  0.00    +0.000 NA
ATOM      4  C   UNL     1      46.291   6.366  12.385  0.00  0.00    +0.000 A 
ATOM      5  C   UNL     1      45.290   5.934  11.504  0.00  0.00    +0.000 A 
ATOM      6  C   UNL     1      44.899   4.583  11.547  0.00  0.00    +0.000 A 
ATOM      7  C   UNL     1      45.485   3.707  12.475  0.00  0.00    +0.000 A 
ATOM      8  C   UNL     1      46.467   4.132  13.375  0.00  0.00    +0.000 A 
ATOM      9  C   UNL     1      46.848   5.474  13.292  0.00  0.00    +0.000 A 
ENDROOT
BRANCH   6  10
ATOM     10  C   UNL     1      43.876   4.021  10.618  0.00  0.00    +0.000 C 
ATOM     11  N   UNL     1      43.856   4.452   9.323  0.00  0.00    +0.000 N 
ATOM     12  O   UNL     1      43.066   3.183  10.995  0.00  0.00    +0.000 OA
ATOM     13  H   UNL     1      44.486   5.124   8.915  0.00  0.00    +0.000 HD
ATOM     14  H   UNL     1      43.157   4.037   8.717  0.00  0.00    +0.000 HD
ENDBRANCH   6  10
BRANCH   1  15
ATOM     15  C   UNL     1      48.612   5.860  15.058  0.00  0.00    +0.000 C 
BRANCH  15  19
ATOM     16  C   UNL     1      49.520   4.043  18.264  0.00  0.00    +0.000 C 
ATOM     17  C   UNL     1      48.617   3.469  17.156  0.00  0.00    +0.000 C 
ATOM     18  C   UNL     1      47.451   4.402  16.823  0.00  0.00    +0.000 C 
ATOM     19  C   UNL     1      47.918   5.816  16.434  0.00  0.00    +0.000 C 
ATOM     20  C   UNL     1      48.856   6.390  17.514  0.00  0.00    +0.000 C 
ATOM     21  C   UNL     1      50.010   5.443  17.852  0.00  0.00    +0.000 C 
BRANCH  16  22
ATOM     22  C   UNL     1      48.769   4.017  19.613  0.00  0.00    +0.000 C 
BRANCH  22  23
ATOM     23  N   UNL     1      49.603   4.397  20.746  0.00  0.00    +0.000 NA
ATOM     24  H   UNL     1      50.318   3.681  20.877  0.00  0.00    +0.000 HD
ATOM     25  H   UNL     1      49.050   4.382  21.602  0.00  0.00    +0.000 HD
ENDBRANCH  22  23
ENDBRANCH  16  22
ENDBRANCH  15  19
ENDBRANCH   1  15
TORSDOF 5
ENDMDL
MODEL 8
REMARK VINA RESULT:    -5.894      4.599      8.234
REMARK INTER + INTRA:          -7.350
REMARK INTER:                  -7.225
REMARK INTRA:                  -0.125
REMARK UNBOUND:                 0.094
REMARK  Name = 
REMARK  5 active torsions:
REMARK  status: ('A' for Active; 'I' for Inactive)
REMARK    1  A    between atoms: N_1  and  C_2
REMARK    2  A    between atoms: C_2  and  C_3
REMARK    3  A    between atoms: C_6  and  C_7
REMARK    4  A    between atoms: C_7  and  N_8
REMARK    5  A    between atoms: C_13  and  C_14
REMARK                            x       y       z     vdW  Elec       q    Type
REMARK                         _______ _______ _______ _____ _____    ______ ____
ROOT
ATOM      1  N   UNL     1      47.484   4.968  14.566  0.00  0.00    +0.000 N 
ATOM      2  N   UNL     1      48.219   5.997  14.109  0.00  0.00    +0.000 NA
ATOM      3  N   UNL     1      48.948   6.448  15.122  0.00  0.00    +0.000 NA
ATOM      4  C   UNL     1      48.631   5.712  16.232  0.00  0.00    +0.000 A 
ATOM      5  C   UNL     1      49.107   5.803  17.547  0.00  0.00    +0.000 A 
ATOM      6  C   UNL     1      48.573   4.932  18.514  0.00  0.00    +0.000 A 
ATOM      7  C   UNL     1      47.607   3.979  18.150  0.00  0.00    +0.000 A 
ATOM      8  C   UNL     1      47.141   3.863  16.836  0.00  0.00    +0.000 A 
ATOM      9  C   UNL     1      47.677   4.757  15.906  0.00  0.00    +0.000 A 
ENDROOT
BRANCH   6  10
ATOM     10  C   UNL     1      48.983   4.985  19.947  0.00  0.00    +0.000 C 
ATOM     11  N   UNL     1      48.529   4.018  20.798  0.00  0.00    +0.000 N 
ATOM     12  O   UNL     1      49.719   5.870  20.366  0.00  0.00    +0.000 OA
ATOM     13  H   UNL     1      47.935   3.245  20.548  0.00  0.00    +0.000 HD
ATOM     14  H   UNL     1      48.841   4.078  21.761  0.00  0.00    +0.000 HD
ENDBRANCH   6  10
BRANCH   1  15
ATOM     15  C   UNL     1      46.611   4.239  13.675  0.00  0.00    +0.000 C 
BRANCH  15  19
ATOM     16  C   UNL     1      43.142   4.511  12.162  0.00  0.00    +0.000 C 
ATOM     17  C   UNL     1      44.214   3.497  11.720  0.00  0.00    +0.000 C 
ATOM     18  C   UNL     1      45.532   4.180  11.347  0.00  0.00    +0.000 C 
ATOM     19  C   UNL     1      46.084   5.061  12.483  0.00  0.00    +0.000 C 
ATOM     20  C   UNL     1      45.009   6.054  12.964  0.00  0.00    +0.000 C 
ATOM     21  C   UNL     1      43.689   5.365  13.320  0.00  0.00    +0.000 C 
BRANCH  16  22
ATOM     22  C   UNL     1      42.674   5.337  10.944  0.00  0.00    +0.000 C 
BRANCH  22  23
ATOM     23  N   UNL     1      42.522   6.757  11.233  0.00  0.00    +0.000 NA
ATOM     24  H   UNL     1      43.450   7.168  11.338  0.00  0.00    +0.000 HD
ATOM     25  H   UNL     1      42.071   6.878  12.139  0.00  0.00    +0.000 HD
ENDBRANCH  22  23
ENDBRANCH  16  22
ENDBRANCH  15  19
ENDBRANCH   1  15
TORSDOF 5
ENDMDL
MODEL 9
REMARK VINA RESULT:    -5.800      4.522      6.740
REMARK INTER + INTRA:          -7.232
REMARK INTER:                  -6.876
REMARK INTRA:                  -0.355
REMARK UNBOUND:                 0.094
REMARK  Name = 
REMARK  5 active torsions:
REMARK  status: ('A' for Active; 'I' for Inactive)
REMARK    1  A    between atoms: N_1  and  C_2
REMARK    2  A    between atoms: C_2  and  C_3
REMARK    3  A    between atoms: C_6  and  C_7
REMARK    4  A    between atoms: C_7  and  N_8
REMARK    5  A    between atoms: C_13  and  C_14
REMARK                            x       y       z     vdW  Elec       q    Type
REMARK                         _______ _______ _______ _____ _____    ______ ____
ROOT
ATOM      1  N   UNL     1      46.792   8.385  12.428  0.00  0.00    +0.000 N 
ATOM      2  N   UNL     1      46.237   9.605  12.323  0.00  0.00    +0.000 NA
ATOM      3  N   UNL     1      47.170  10.430  11.866  0.00  0.00    +0.000 NA
ATOM      4  C   UNL     1      48.331   9.719  11.724  0.00  0.00    +0.000 A 
ATOM      5  C   UNL     1      49.600  10.131  11.294  0.00  0.00    +0.000 A 
ATOM      6  C   UNL     1      50.641   9.185  11.280  0.00  0.00    +0.000 A 
ATOM      7  C   UNL     1      50.393   7.856  11.661  0.00  0.00    +0.000 A 
ATOM      8  C   UNL     1      49.126   7.428  12.070  0.00  0.00    +0.000 A 
ATOM      9  C   UNL     1      48.120   8.397  12.093  0.00  0.00    +0.000 A 
ENDROOT
BRANCH   6  10
ATOM     10  C   UNL     1      52.034   9.540  10.882  0.00  0.00    +0.000 C 
ATOM     11  N   UNL     1      52.515   9.080   9.690  0.00  0.00    +0.000 N 
ATOM     12  O   UNL     1      52.743  10.235  11.600  0.00  0.00    +0.000 OA
ATOM     13  H   UNL     1      52.008   8.517   9.028  0.00  0.00    +0.000 HD
ATOM     14  H   UNL     1      53.461   9.355   9.447  0.00  0.00    +0.000 HD
ENDBRANCH   6  10
BRANCH   1  15
ATOM     15  C   UNL     1      46.003   7.256  12.864  0.00  0.00    +0.000 C 
BRANCH  15  19
ATOM     16  C   UNL     1      43.528   4.511  12.003  0.00  0.00    +0.000 C 
ATOM     17  C   UNL     1      44.497   4.475  13.200  0.00  0.00    +0.000 C 
ATOM     18  C   UNL     1      45.949   4.691  12.772  0.00  0.00    +0.000 C 
ATOM     19  C   UNL     1      46.144   5.999  11.983  0.00  0.00    +0.000 C 
ATOM     20  C   UNL     1      45.154   6.070  10.804  0.00  0.00    +0.000 C 
ATOM     21  C   UNL     1      43.706   5.836  11.239  0.00  0.00    +0.000 C 
BRANCH  16  22
ATOM     22  C   UNL     1      43.734   3.255  11.129  0.00  0.00    +0.000 C 
BRANCH  22  23
ATOM     23  N   UNL     1      43.059   2.073  11.648  0.00  0.00    +0.000 NA
ATOM     24  H   UNL     1      42.280   2.375  12.234  0.00  0.00    +0.000 HD
ATOM     25  H   UNL     1      43.683   1.566  12.274  0.00  0.00    +0.000 HD
ENDBRANCH  22  23
ENDBRANCH  16  22
ENDBRANCH  15  19
ENDBRANCH   1  15
TORSDOF 5
ENDMDL
