MODEL 1
REMARK VINA RESULT:    -8.038      0.000      0.000
REMARK INTER + INTRA:         -10.440
REMARK INTER:                  -9.917
REMARK INTRA:                  -0.522
REMARK UNBOUND:                -0.522
REMARK  Name = 
REMARK  4 active torsions:
REMARK  status: ('A' for Active; 'I' for Inactive)
REMARK    1  A    between atoms: C_2  and  C_4
REMARK    2  A    between atoms: N_8  and  C_9
REMARK    3  A    between atoms: C_9  and  C_10
REMARK    4  A    between atoms: C_15  and  C_16
REMARK                            x       y       z     vdW  Elec       q    Type
REMARK                         _______ _______ _______ _____ _____    ______ ____
ROOT
ATOM      1  C   UNL     1      46.577   2.721   7.510  0.00  0.00    +0.000 A 
ATOM      2  C   UNL     1      46.238   4.064   7.587  0.00  0.00    +0.000 A 
ATOM      3  C   UNL     1      45.359   4.490   8.591  0.00  0.00    +0.000 A 
ATOM      4  C   UNL     1      44.864   3.574   9.506  0.00  0.00    +0.000 A 
ATOM      5  N   UNL     1      43.949   3.913  10.507  0.00  0.00    +0.000 N 
ATOM      6  N   UNL     1      45.178   2.262   9.435  0.00  0.00    +0.000 NA
ATOM      7  C   UNL     1      46.012   1.860   8.440  0.00  0.00    +0.000 A 
ATOM      8  H   UNL     1      43.805   3.056  11.043  0.00  0.00    +0.000 HD
ENDROOT
BRANCH   1  10
ATOM      9  N   UNL     1      47.768   2.990   5.408  0.00  0.00    +0.000 N 
ATOM     10  C   UNL     1      47.456   2.168   6.458  0.00  0.00    +0.000 C 
ATOM     11  O   UNL     1      47.907   1.034   6.530  0.00  0.00    +0.000 OA
ATOM     12  H   UNL     1      48.432   2.629   4.735  0.00  0.00    +0.000 HD
ATOM     13  H   UNL     1      47.622   3.989   5.433  0.00  0.00    +0.000 HD
ENDBRANCH   1  10
BRANCH   5  14
ATOM     14  C   UNL     1      43.986   5.162  11.295  0.00  0.00    +0.000 C 
ATOM     15  C   UNL     1      42.958   5.185  12.436  0.00  0.00    +0.000 C 
ATOM     16  C   UNL     1      42.848   6.162  11.322  0.00  0.00    +0.000 C 
BRANCH  14  17
ATOM     17  C   UNL     1      45.421   5.604  11.640  0.00  0.00    +0.000 A 
ATOM     18  C   UNL     1      45.928   6.774  11.023  0.00  0.00    +0.000 A 
ATOM     19  C   UNL     1      47.155   7.341  11.372  0.00  0.00    +0.000 A 
ATOM     20  C   UNL     1      47.915   6.768  12.378  0.00  0.00    +0.000 A 
ATOM     21  C   UNL     1      47.467   5.599  12.985  0.00  0.00    +0.000 A 
ATOM     22  C   UNL     1      46.248   4.985  12.607  0.00  0.00    +0.000 A 
BRANCH  22  23
ATOM     23  C   UNL     1      45.924   3.687  13.308  0.00  0.00    +0.000 C 
ATOM     24  F   UNL     1      45.634   2.627  12.511  0.00  0.00    +0.000 F 
ATOM     25  F   UNL     1      46.975   3.256  14.073  0.00  0.00    +0.000 F 
ATOM     26  F   UNL     1      44.879   3.802  14.176  0.00  0.00    +0.000 F 
ENDBRANCH  22  23
ENDBRANCH  14  17
ENDBRANCH   5  14
TORSDOF 4
ENDMDL
MODEL 2
REMARK VINA RESULT:    -7.970      1.912      2.502
REMARK INTER + INTRA:         -10.355
REMARK INTER:                 -10.102
REMARK INTRA:                  -0.253
REMARK UNBOUND:                -0.522
REMARK  Name = 
REMARK  4 active torsions:
REMARK  status: ('A' for Active; 'I' for Inactive)
REMARK    1  A    between atoms: C_2  and  C_4
REMARK    2  A    between atoms: N_8  and  C_9
REMARK    3  A    between atoms: C_9  and  C_10
REMARK    4  A    between atoms: C_15  and  C_16
REMARK                            x       y       z     vdW  Elec       q    Type
REMARK                         _______ _______ _______ _____ _____    ______ ____
ROOT
ATOM      1  C   UNL     1      46.559   2.742   7.528  0.00  0.00    +0.000 A 
ATOM      2  C   UNL     1      46.193   4.067   7.721  0.00  0.00    +0.000 A 
ATOM      3  C   UNL     1      45.292   4.384   8.746  0.00  0.00    +0.000 A 
ATOM      4  C   UNL     1      44.801   3.379   9.566  0.00  0.00    +0.000 A 
ATOM      5  N   UNL     1      43.866   3.610  10.578  0.00  0.00    +0.000 N 
ATOM      6  N   UNL     1      45.140   2.086   9.381  0.00  0.00    +0.000 NA
ATOM      7  C   UNL     1      45.997   1.791   8.367  0.00  0.00    +0.000 A 
ATOM      8  H   UNL     1      43.731   2.705  11.032  0.00  0.00    +0.000 HD
ENDROOT
BRANCH   1  10
ATOM      9  N   UNL     1      47.369   2.961   5.247  0.00  0.00    +0.000 N 
ATOM     10  C   UNL     1      47.463   2.304   6.445  0.00  0.00    +0.000 C 
ATOM     11  O   UNL     1      48.278   1.408   6.613  0.00  0.00    +0.000 OA
ATOM     12  H   UNL     1      48.045   2.705   4.538  0.00  0.00    +0.000 HD
ATOM     13  H   UNL     1      46.895   3.847   5.144  0.00  0.00    +0.000 HD
ENDBRANCH   1  10
BRANCH   5  14
ATOM     14  C   UNL     1      43.867   4.782  11.478  0.00  0.00    +0.000 C 
ATOM     15  C   UNL     1      42.522   5.002  12.182  0.00  0.00    +0.000 C 
ATOM     16  C   UNL     1      43.032   6.022  11.230  0.00  0.00    +0.000 C 
BRANCH  14  17
ATOM     17  C   UNL     1      45.133   4.857  12.352  0.00  0.00    +0.000 A 
ATOM     18  C   UNL     1      45.514   3.703  13.080  0.00  0.00    +0.000 A 
ATOM     19  C   UNL     1      46.717   3.617  13.785  0.00  0.00    +0.000 A 
ATOM     20  C   UNL     1      47.602   4.682  13.765  0.00  0.00    +0.000 A 
ATOM     21  C   UNL     1      47.249   5.846  13.091  0.00  0.00    +0.000 A 
ATOM     22  C   UNL     1      46.011   5.966  12.412  0.00  0.00    +0.000 A 
BRANCH  22  23
ATOM     23  C   UNL     1      45.739   7.310  11.779  0.00  0.00    +0.000 C 
ATOM     24  F   UNL     1      44.767   8.062  12.355  0.00  0.00    +0.000 F 
ATOM     25  F   UNL     1      46.849   8.111  11.811  0.00  0.00    +0.000 F 
ATOM     26  F   UNL     1      45.409   7.215  10.460  0.00  0.00    +0.000 F 
ENDBRANCH  22  23
ENDBRANCH  14  17
ENDBRANCH   5  14
TORSDOF 4
ENDMDL
MODEL 3
REMARK VINA RESULT:    -6.189      3.850      5.812
REMARK INTER + INTRA:          -8.158
REMARK INTER:                  -8.587
REMARK INTRA:                   0.429
REMARK UNBOUND:                -0.522
REMARK  Name = 
REMARK  4 active torsions:
REMARK  status: ('A' for Active; 'I' for Inactive)
REMARK    1  A    between atoms: C_2  and  C_4
REMARK    2  A    between atoms: N_8  and  C_9
REMARK    3  A    between atoms: C_9  and  C_10
REMARK    4  A    between atoms: C_15  and  C_16
REMARK                            x       y       z     vdW  Elec       q    Type
REMARK                         _______ _______ _______ _____ _____    ______ ____
ROOT
ATOM      1  C   UNL     1      49.802   7.836  13.018  0.00  0.00    +0.000 A 
ATOM      2  C   UNL     1      49.202   7.819  11.766  0.00  0.00    +0.000 A 
ATOM      3  C   UNL     1      48.067   7.025  11.564  0.00  0.00    +0.000 A 
ATOM      4  C   UNL     1      47.543   6.291  12.617  0.00  0.00    +0.000 A 
ATOM      5  N   UNL     1      46.442   5.441  12.482  0.00  0.00    +0.000 N 
ATOM      6  N   UNL     1      48.124   6.289  13.836  0.00  0.00    +0.000 NA
ATOM      7  C   UNL     1      49.240   7.046  14.011  0.00  0.00    +0.000 A 
ATOM      8  H   UNL     1      46.264   5.078  13.420  0.00  0.00    +0.000 HD
ENDROOT
BRANCH   1  10
ATOM      9  N   UNL     1      52.210   8.104  12.833  0.00  0.00    +0.000 N 
ATOM     10  C   UNL     1      51.029   8.603  13.316  0.00  0.00    +0.000 C 
ATOM     11  O   UNL     1      50.995   9.649  13.946  0.00  0.00    +0.000 OA
ATOM     12  H   UNL     1      53.033   8.677  12.976  0.00  0.00    +0.000 HD
ATOM     13  H   UNL     1      52.252   7.393  12.117  0.00  0.00    +0.000 HD
ENDBRANCH   1  10
BRANCH   5  14
ATOM     14  C   UNL     1      45.241   5.738  11.675  0.00  0.00    +0.000 C 
ATOM     15  C   UNL     1      45.020   7.241  11.454  0.00  0.00    +0.000 C 
ATOM     16  C   UNL     1      44.024   6.454  12.226  0.00  0.00    +0.000 C 
BRANCH  14  17
ATOM     17  C   UNL     1      45.116   4.825  10.440  0.00  0.00    +0.000 A 
ATOM     18  C   UNL     1      45.777   5.214   9.249  0.00  0.00    +0.000 A 
ATOM     19  C   UNL     1      45.849   4.393   8.122  0.00  0.00    +0.000 A 
ATOM     20  C   UNL     1      45.280   3.132   8.155  0.00  0.00    +0.000 A 
ATOM     21  C   UNL     1      44.591   2.726   9.293  0.00  0.00    +0.000 A 
ATOM     22  C   UNL     1      44.468   3.567  10.426  0.00  0.00    +0.000 A 
BRANCH  22  23
ATOM     23  C   UNL     1      43.638   3.018  11.562  0.00  0.00    +0.000 C 
ATOM     24  F   UNL     1      43.103   1.784  11.377  0.00  0.00    +0.000 F 
ATOM     25  F   UNL     1      44.379   2.897  12.708  0.00  0.00    +0.000 F 
ATOM     26  F   UNL     1      42.598   3.832  11.898  0.00  0.00    +0.000 F 
ENDBRANCH  22  23
ENDBRANCH  14  17
ENDBRANCH   5  14
TORSDOF 4
ENDMDL
MODEL 4
REMARK VINA RESULT:    -5.818      5.592      7.438
REMARK INTER + INTRA:          -7.701
REMARK INTER:                  -6.901
REMARK INTRA:                  -0.800
REMARK UNBOUND:                -0.522
REMARK  Name = 
REMARK  4 active torsions:
REMARK  status: ('A' for Active; 'I' for Inactive)
REMARK    1  A    between atoms: C_2  and  C_4
REMARK    2  A    between atoms: N_8  and  C_9
REMARK    3  A    between atoms: C_9  and  C_10
REMARK    4  A    between atoms: C_15  and  C_16
REMARK                            x       y       z     vdW  Elec       q    Type
REMARK                         _______ _______ _______ _____ _____    ______ ____
ROOT
ATOM      1  C   UNL     1      49.813   7.644  13.011  0.00  0.00    +0.000 A 
ATOM      2  C   UNL     1      50.170   8.132  14.260  0.00  0.00    +0.000 A 
ATOM      3  C   UNL     1      49.552   7.604  15.401  0.00  0.00    +0.000 A 
ATOM      4  C   UNL     1      48.618   6.587  15.270  0.00  0.00    +0.000 A 
ATOM      5  N   UNL     1      47.927   6.042  16.355  0.00  0.00    +0.000 N 
ATOM      6  N   UNL     1      48.254   6.112  14.060  0.00  0.00    +0.000 NA
ATOM      7  C   UNL     1      48.845   6.652  12.960  0.00  0.00    +0.000 A 
ATOM      8  H   UNL     1      47.351   5.297  15.962  0.00  0.00    +0.000 HD
ENDROOT
BRANCH   1  10
ATOM      9  N   UNL     1      51.247   7.366  11.068  0.00  0.00    +0.000 N 
ATOM     10  C   UNL     1      50.372   8.170  11.748  0.00  0.00    +0.000 C 
ATOM     11  O   UNL     1      50.052   9.267  11.314  0.00  0.00    +0.000 OA
ATOM     12  H   UNL     1      51.563   7.703  10.167  0.00  0.00    +0.000 HD
ATOM     13  H   UNL     1      51.346   6.379  11.260  0.00  0.00    +0.000 HD
ENDBRANCH   1  10
BRANCH   5  14
ATOM     14  C   UNL     1      48.521   5.758  17.678  0.00  0.00    +0.000 C 
ATOM     15  C   UNL     1      47.471   5.499  18.767  0.00  0.00    +0.000 C 
ATOM     16  C   UNL     1      48.369   6.678  18.872  0.00  0.00    +0.000 C 
BRANCH  14  17
ATOM     17  C   UNL     1      49.703   4.773  17.599  0.00  0.00    +0.000 A 
ATOM     18  C   UNL     1      50.986   5.232  17.985  0.00  0.00    +0.000 A 
ATOM     19  C   UNL     1      52.091   4.385  18.089  0.00  0.00    +0.000 A 
ATOM     20  C   UNL     1      51.946   3.032  17.833  0.00  0.00    +0.000 A 
ATOM     21  C   UNL     1      50.711   2.548  17.416  0.00  0.00    +0.000 A 
ATOM     22  C   UNL     1      49.592   3.403  17.259  0.00  0.00    +0.000 A 
BRANCH  22  23
ATOM     23  C   UNL     1      48.335   2.747  16.739  0.00  0.00    +0.000 C 
ATOM     24  F   UNL     1      47.704   3.378  15.717  0.00  0.00    +0.000 F 
ATOM     25  F   UNL     1      48.590   1.491  16.255  0.00  0.00    +0.000 F 
ATOM     26  F   UNL     1      47.394   2.568  17.708  0.00  0.00    +0.000 F 
ENDBRANCH  22  23
ENDBRANCH  14  17
ENDBRANCH   5  14
TORSDOF 4
ENDMDL
MODEL 5
REMARK VINA RESULT:    -5.776      4.249      6.674
REMARK INTER + INTRA:          -7.649
REMARK INTER:                  -8.260
REMARK INTRA:                   0.611
REMARK UNBOUND:                -0.522
REMARK  Name = 
REMARK  4 active torsions:
REMARK  status: ('A' for Active; 'I' for Inactive)
REMARK    1  A    between atoms: C_2  and  C_4
REMARK    2  A    between atoms: N_8  and  C_9
REMARK    3  A    between atoms: C_9  and  C_10
REMARK    4  A    between atoms: C_15  and  C_16
REMARK                            x       y       z     vdW  Elec       q    Type
REMARK                         _______ _______ _______ _____ _____    ______ ____
ROOT
ATOM      1  C   UNL     1      48.129   4.395  16.856  0.00  0.00    +0.000 A 
ATOM      2  C   UNL     1      47.975   5.619  16.219  0.00  0.00    +0.000 A 
ATOM      3  C   UNL     1      47.562   5.645  14.881  0.00  0.00    +0.000 A 
ATOM      4  C   UNL     1      47.287   4.457  14.222  0.00  0.00    +0.000 A 
ATOM      5  N   UNL     1      46.914   4.399  12.877  0.00  0.00    +0.000 N 
ATOM      6  N   UNL     1      47.443   3.259  14.827  0.00  0.00    +0.000 NA
ATOM      7  C   UNL     1      47.869   3.249  16.118  0.00  0.00    +0.000 A 
ATOM      8  H   UNL     1      46.738   3.411  12.687  0.00  0.00    +0.000 HD
ENDROOT
BRANCH   1  10
ATOM      9  N   UNL     1      48.305   3.099  18.904  0.00  0.00    +0.000 N 
ATOM     10  C   UNL     1      48.606   4.262  18.248  0.00  0.00    +0.000 C 
ATOM     11  O   UNL     1      49.263   5.141  18.787  0.00  0.00    +0.000 OA
ATOM     12  H   UNL     1      48.703   2.986  19.829  0.00  0.00    +0.000 HD
ATOM     13  H   UNL     1      47.987   2.267  18.427  0.00  0.00    +0.000 HD
ENDBRANCH   1  10
BRANCH   5  14
ATOM     14  C   UNL     1      45.998   5.350  12.213  0.00  0.00    +0.000 C 
ATOM     15  C   UNL     1      46.521   6.793  12.219  0.00  0.00    +0.000 C 
ATOM     16  C   UNL     1      45.272   6.457  12.951  0.00  0.00    +0.000 C 
BRANCH  14  17
ATOM     17  C   UNL     1      45.449   4.811  10.879  0.00  0.00    +0.000 A 
ATOM     18  C   UNL     1      46.034   5.278   9.676  0.00  0.00    +0.000 A 
ATOM     19  C   UNL     1      45.712   4.749   8.424  0.00  0.00    +0.000 A 
ATOM     20  C   UNL     1      44.805   3.707   8.332  0.00  0.00    +0.000 A 
ATOM     21  C   UNL     1      44.183   3.244   9.486  0.00  0.00    +0.000 A 
ATOM     22  C   UNL     1      44.462   3.804  10.757  0.00  0.00    +0.000 A 
BRANCH  22  23
ATOM     23  C   UNL     1      43.664   3.243  11.909  0.00  0.00    +0.000 C 
ATOM     24  F   UNL     1      44.375   2.788  12.972  0.00  0.00    +0.000 F 
ATOM     25  F   UNL     1      42.825   4.186  12.442  0.00  0.00    +0.000 F 
ATOM     26  F   UNL     1      42.848   2.216  11.537  0.00  0.00    +0.000 F 
ENDBRANCH  22  23
ENDBRANCH  14  17
ENDBRANCH   5  14
TORSDOF 4
ENDMDL
MODEL 6
REMARK VINA RESULT:    -5.432      3.435      4.972
REMARK INTER + INTRA:          -7.225
REMARK INTER:                  -6.988
REMARK INTRA:                  -0.237
REMARK UNBOUND:                -0.522
REMARK  Name = 
REMARK  4 active torsions:
REMARK  status: ('A' for Active; 'I' for Inactive)
REMARK    1  A    between atoms: C_2  and  C_4
REMARK    2  A    between atoms: N_8  and  C_9
REMARK    3  A    between atoms: C_9  and  C_10
REMARK    4  A    between atoms: C_15  and  C_16
REMARK                            x       y       z     vdW  Elec       q    Type
REMARK                         _______ _______ _______ _____ _____    ______ ____
ROOT
ATOM      1  C   UNL     1      44.632   3.768  11.545  0.00  0.00    +0.000 A 
ATOM      2  C   UNL     1      44.392   5.081  11.165  0.00  0.00    +0.000 A 
ATOM      3  C   UNL     1      45.075   6.116  11.816  0.00  0.00    +0.000 A 
ATOM      4  C   UNL     1      45.997   5.816  12.807  0.00  0.00    +0.000 A 
ATOM      5  N   UNL     1      46.684   6.794  13.531  0.00  0.00    +0.000 N 
ATOM      6  N   UNL     1      46.232   4.544  13.193  0.00  0.00    +0.000 NA
ATOM      7  C   UNL     1      45.543   3.551  12.569  0.00  0.00    +0.000 A 
ATOM      8  H   UNL     1      47.314   6.280  14.149  0.00  0.00    +0.000 HD
ENDROOT
BRANCH   1  10
ATOM      9  N   UNL     1      44.452   2.080   9.806  0.00  0.00    +0.000 N 
ATOM     10  C   UNL     1      43.926   2.613  10.953  0.00  0.00    +0.000 C 
ATOM     11  O   UNL     1      42.928   2.136  11.473  0.00  0.00    +0.000 OA
ATOM     12  H   UNL     1      44.006   1.242   9.453  0.00  0.00    +0.000 HD
ATOM     13  H   UNL     1      45.389   2.282   9.488  0.00  0.00    +0.000 HD
ENDBRANCH   1  10
BRANCH   5  14
ATOM     14  C   UNL     1      47.228   8.043  12.959  0.00  0.00    +0.000 C 
ATOM     15  C   UNL     1      46.600   9.306  13.563  0.00  0.00    +0.000 C 
ATOM     16  C   UNL     1      46.405   9.001  12.122  0.00  0.00    +0.000 C 
BRANCH  14  17
ATOM     17  C   UNL     1      48.763   8.018  12.833  0.00  0.00    +0.000 A 
ATOM     18  C   UNL     1      49.332   8.150  11.542  0.00  0.00    +0.000 A 
ATOM     19  C   UNL     1      50.705   8.286  11.333  0.00  0.00    +0.000 A 
ATOM     20  C   UNL     1      51.565   8.321  12.417  0.00  0.00    +0.000 A 
ATOM     21  C   UNL     1      51.049   8.159  13.699  0.00  0.00    +0.000 A 
ATOM     22  C   UNL     1      49.664   7.971  13.924  0.00  0.00    +0.000 A 
BRANCH  22  23
ATOM     23  C   UNL     1      49.258   7.746  15.361  0.00  0.00    +0.000 C 
ATOM     24  F   UNL     1      48.605   6.587  15.629  0.00  0.00    +0.000 F 
ATOM     25  F   UNL     1      50.349   7.718  16.189  0.00  0.00    +0.000 F 
ATOM     26  F   UNL     1      48.469   8.744  15.850  0.00  0.00    +0.000 F 
ENDBRANCH  22  23
ENDBRANCH  14  17
ENDBRANCH   5  14
TORSDOF 4
ENDMDL
MODEL 7
REMARK VINA RESULT:    -5.406      3.595      5.242
REMARK INTER + INTRA:          -7.192
REMARK INTER:                  -6.783
REMARK INTRA:                  -0.409
REMARK UNBOUND:                -0.522
REMARK  Name = 
REMARK  4 active torsions:
REMARK  status: ('A' for Active; 'I' for Inactive)
REMARK    1  A    between atoms: C_2  and  C_4
REMARK    2  A    between atoms: N_8  and  C_9
REMARK    3  A    between atoms: C_9  and  C_10
REMARK    4  A    between atoms: C_15  and  C_16
REMARK                            x       y       z     vdW  Elec       q    Type
REMARK                         _______ _______ _______ _____ _____    ______ ____
ROOT
ATOM      1  C   UNL     1      44.512   4.472  11.478  0.00  0.00    +0.000 A 
ATOM      2  C   UNL     1      45.141   5.371  10.628  0.00  0.00    +0.000 A 
ATOM      3  C   UNL     1      45.456   6.651  11.100  0.00  0.00    +0.000 A 
ATOM      4  C   UNL     1      45.161   6.993  12.411  0.00  0.00    +0.000 A 
ATOM      5  N   UNL     1      45.403   8.264  12.941  0.00  0.00    +0.000 N 
ATOM      6  N   UNL     1      44.539   6.132  13.245  0.00  0.00    +0.000 NA
ATOM      7  C   UNL     1      44.218   4.901  12.764  0.00  0.00    +0.000 A 
ATOM      8  H   UNL     1      45.129   8.203  13.923  0.00  0.00    +0.000 HD
ENDROOT
BRANCH   1  10
ATOM      9  N   UNL     1      44.938   2.437  10.218  0.00  0.00    +0.000 N 
ATOM     10  C   UNL     1      44.097   3.117  11.058  0.00  0.00    +0.000 C 
ATOM     11  O   UNL     1      43.058   2.612  11.458  0.00  0.00    +0.000 OA
ATOM     12  H   UNL     1      44.682   1.483  10.000  0.00  0.00    +0.000 HD
ATOM     13  H   UNL     1      45.898   2.712  10.065  0.00  0.00    +0.000 HD
ENDBRANCH   1  10
BRANCH   5  14
ATOM     14  C   UNL     1      46.602   9.081  12.661  0.00  0.00    +0.000 C 
ATOM     15  C   UNL     1      46.292  10.578  12.527  0.00  0.00    +0.000 C 
ATOM     16  C   UNL     1      46.816   9.824  11.359  0.00  0.00    +0.000 C 
BRANCH  14  17
ATOM     17  C   UNL     1      47.803   8.693  13.545  0.00  0.00    +0.000 A 
ATOM     18  C   UNL     1      47.680   8.844  14.947  0.00  0.00    +0.000 A 
ATOM     19  C   UNL     1      48.649   8.389  15.844  0.00  0.00    +0.000 A 
ATOM     20  C   UNL     1      49.773   7.737  15.368  0.00  0.00    +0.000 A 
ATOM     21  C   UNL     1      49.948   7.600  13.995  0.00  0.00    +0.000 A 
ATOM     22  C   UNL     1      48.998   8.099  13.071  0.00  0.00    +0.000 A 
BRANCH  22  23
ATOM     23  C   UNL     1      49.352   7.934  11.612  0.00  0.00    +0.000 C 
ATOM     24  F   UNL     1      49.549   9.075  10.906  0.00  0.00    +0.000 F 
ATOM     25  F   UNL     1      50.521   7.235  11.459  0.00  0.00    +0.000 F 
ATOM     26  F   UNL     1      48.421   7.219  10.920  0.00  0.00    +0.000 F 
ENDBRANCH  22  23
ENDBRANCH  14  17
ENDBRANCH   5  14
TORSDOF 4
ENDMDL
MODEL 8
REMARK VINA RESULT:    -5.099      4.495      6.495
REMARK INTER + INTRA:          -6.813
REMARK INTER:                  -6.340
REMARK INTRA:                  -0.473
REMARK UNBOUND:                -0.522
REMARK  Name = 
REMARK  4 active torsions:
REMARK  status: ('A' for Active; 'I' for Inactive)
REMARK    1  A    between atoms: C_2  and  C_4
REMARK    2  A    between atoms: N_8  and  C_9
REMARK    3  A    between atoms: C_9  and  C_10
REMARK    4  A    between atoms: C_15  and  C_16
REMARK                            x       y       z     vdW  Elec       q    Type
REMARK                         _______ _______ _______ _____ _____    ______ ____
ROOT
ATOM      1  C   UNL     1      46.055   6.495  11.637  0.00  0.00    +0.000 A 
ATOM      2  C   UNL     1      47.424   6.726  11.633  0.00  0.00    +0.000 A 
ATOM      3  C   UNL     1      47.944   7.761  12.421  0.00  0.00    +0.000 A 
ATOM      4  C   UNL     1      47.093   8.520  13.210  0.00  0.00    +0.000 A 
ATOM      5  N   UNL     1      47.529   9.596  13.986  0.00  0.00    +0.000 N 
ATOM      6  N   UNL     1      45.758   8.313  13.213  0.00  0.00    +0.000 NA
ATOM      7  C   UNL     1      45.266   7.320  12.425  0.00  0.00    +0.000 A 
ATOM      8  H   UNL     1      46.700   9.927  14.481  0.00  0.00    +0.000 HD
ENDROOT
BRANCH   1  10
ATOM      9  N   UNL     1      45.595   5.541   9.450  0.00  0.00    +0.000 N 
ATOM     10  C   UNL     1      45.408   5.460  10.804  0.00  0.00    +0.000 C 
ATOM     11  O   UNL     1      44.752   4.556  11.299  0.00  0.00    +0.000 OA
ATOM     12  H   UNL     1      45.213   4.784   8.896  0.00  0.00    +0.000 HD
ATOM     13  H   UNL     1      46.314   6.113   9.029  0.00  0.00    +0.000 HD
ENDBRANCH   1  10
BRANCH   5  14
ATOM     14  C   UNL     1      48.788   9.624  14.760  0.00  0.00    +0.000 C 
ATOM     15  C   UNL     1      49.604  10.905  14.538  0.00  0.00    +0.000 C 
ATOM     16  C   UNL     1      50.160   9.593  14.117  0.00  0.00    +0.000 C 
BRANCH  14  17
ATOM     17  C   UNL     1      48.599   9.160  16.216  0.00  0.00    +0.000 A 
ATOM     18  C   UNL     1      48.197  10.118  17.179  0.00  0.00    +0.000 A 
ATOM     19  C   UNL     1      47.858   9.777  18.489  0.00  0.00    +0.000 A 
ATOM     20  C   UNL     1      47.884   8.450  18.882  0.00  0.00    +0.000 A 
ATOM     21  C   UNL     1      48.308   7.482  17.977  0.00  0.00    +0.000 A 
ATOM     22  C   UNL     1      48.701   7.819  16.659  0.00  0.00    +0.000 A 
BRANCH  22  23
ATOM     23  C   UNL     1      49.198   6.672  15.810  0.00  0.00    +0.000 C 
ATOM     24  F   UNL     1      50.236   6.942  14.979  0.00  0.00    +0.000 F 
ATOM     25  F   UNL     1      49.646   5.635  16.585  0.00  0.00    +0.000 F 
ATOM     26  F   UNL     1      48.220   6.132  15.028  0.00  0.00    +0.000 F 
ENDBRANCH  22  23
ENDBRANCH  14  17
ENDBRANCH   5  14
TORSDOF 4
ENDMDL
MODEL 9
REMARK VINA RESULT:    -5.063      5.173      7.387
REMARK INTER + INTRA:          -6.769
REMARK INTER:                  -6.022
REMARK INTRA:                  -0.746
REMARK UNBOUND:                -0.522
REMARK  Name = 
REMARK  4 active torsions:
REMARK  status: ('A' for Active; 'I' for Inactive)
REMARK    1  A    between atoms: C_2  and  C_4
REMARK    2  A    between atoms: N_8  and  C_9
REMARK    3  A    between atoms: C_9  and  C_10
REMARK    4  A    between atoms: C_15  and  C_16
REMARK                            x       y       z     vdW  Elec       q    Type
REMARK                         _______ _______ _______ _____ _____    ______ ____
ROOT
ATOM      1  C   UNL     1      45.795   6.764  12.378  0.00  0.00    +0.000 A 
ATOM      2  C   UNL     1      46.879   5.949  12.673  0.00  0.00    +0.000 A 
ATOM      3  C   UNL     1      47.915   6.453  13.470  0.00  0.00    +0.000 A 
ATOM      4  C   UNL     1      47.832   7.742  13.973  0.00  0.00    +0.000 A 
ATOM      5  N   UNL     1      48.844   8.330  14.736  0.00  0.00    +0.000 N 
ATOM      6  N   UNL     1      46.788   8.549  13.684  0.00  0.00    +0.000 NA
ATOM      7  C   UNL     1      45.802   8.054  12.889  0.00  0.00    +0.000 A 
ATOM      8  H   UNL     1      48.487   9.251  14.996  0.00  0.00    +0.000 HD
ENDROOT
BRANCH   1  10
ATOM      9  N   UNL     1      43.632   7.212  11.364  0.00  0.00    +0.000 N 
ATOM     10  C   UNL     1      44.679   6.340  11.507  0.00  0.00    +0.000 C 
ATOM     11  O   UNL     1      44.695   5.268  10.920  0.00  0.00    +0.000 OA
ATOM     12  H   UNL     1      42.911   6.945  10.705  0.00  0.00    +0.000 HD
ATOM     13  H   UNL     1      43.691   8.185  11.627  0.00  0.00    +0.000 HD
ENDBRANCH   1  10
BRANCH   5  14
ATOM     14  C   UNL     1      49.630   7.634  15.775  0.00  0.00    +0.000 C 
ATOM     15  C   UNL     1      50.853   8.435  16.243  0.00  0.00    +0.000 C 
ATOM     16  C   UNL     1      51.043   7.133  15.553  0.00  0.00    +0.000 C 
BRANCH  14  17
ATOM     17  C   UNL     1      48.744   7.010  16.870  0.00  0.00    +0.000 A 
ATOM     18  C   UNL     1      48.639   5.598  16.923  0.00  0.00    +0.000 A 
ATOM     19  C   UNL     1      47.983   4.928  17.958  0.00  0.00    +0.000 A 
ATOM     20  C   UNL     1      47.427   5.650  19.000  0.00  0.00    +0.000 A 
ATOM     21  C   UNL     1      47.478   7.040  18.966  0.00  0.00    +0.000 A 
ATOM     22  C   UNL     1      48.097   7.735  17.899  0.00  0.00    +0.000 A 
BRANCH  22  23
ATOM     23  C   UNL     1      48.020   9.242  17.967  0.00  0.00    +0.000 C 
ATOM     24  F   UNL     1      47.638   9.879  16.831  0.00  0.00    +0.000 F 
ATOM     25  F   UNL     1      47.113   9.654  18.907  0.00  0.00    +0.000 F 
ATOM     26  F   UNL     1      49.199   9.815  18.340  0.00  0.00    +0.000 F 
ENDBRANCH  22  23
ENDBRANCH  14  17
ENDBRANCH   5  14
TORSDOF 4
ENDMDL
