MODEL 1
REMARK VINA RESULT:    -8.488      0.000      0.000
REMARK INTER + INTRA:         -12.479
REMARK INTER:                 -11.465
REMARK INTRA:                  -1.014
REMARK UNBOUND:                -1.014
REMARK  Name = 
REMARK  6 active torsions:
REMARK  status: ('A' for Active; 'I' for Inactive)
REMARK    1  A    between atoms: C_2  and  C_25
REMARK    2  A    between atoms: N_3  and  C_4
REMARK    3  A    between atoms: C_4  and  C_5
REMARK    4  A    between atoms: C_8  and  C_9
REMARK    5  A    between atoms: C_9  and  N_10
REMARK    6  A    between atoms: C_11  and  C_13
REMARK                            x       y       z     vdW  Elec       q    Type
REMARK                         _______ _______ _______ _____ _____    ______ ____
ROOT
ATOM      1  C   UNL     1      45.057   6.376  11.241  0.00  0.00    +0.000 A 
ATOM      2  C   UNL     1      44.643   7.625  11.702  0.00  0.00    +0.000 A 
ATOM      3  C   UNL     1      45.459   8.331  12.587  0.00  0.00    +0.000 A 
ATOM      4  C   UNL     1      46.681   7.787  12.984  0.00  0.00    +0.000 A 
ATOM      5  C   UNL     1      47.005   6.530  12.486  0.00  0.00    +0.000 A 
ATOM      6  N   UNL     1      46.234   5.821  11.626  0.00  0.00    +0.000 NA
ENDROOT
BRANCH   1   7
ATOM      7  C   UNL     1      44.194   5.583  10.285  0.00  0.00    +0.000 C 
BRANCH   7  10
ATOM      8  O   UNL     1      44.140   2.771  10.075  0.00  0.00    +0.000 OA
ATOM      9  C   UNL     1      44.860   3.413   9.316  0.00  0.00    +0.000 C 
ATOM     10  N   UNL     1      44.956   4.784   9.348  0.00  0.00    +0.000 N 
ATOM     11  H   UNL     1      45.525   5.237   8.640  0.00  0.00    +0.000 HD
BRANCH   9  12
ATOM     12  C   UNL     1      45.701   2.718   8.290  0.00  0.00    +0.000 A 
ATOM     13  C   UNL     1      46.068   3.410   7.139  0.00  0.00    +0.000 A 
ATOM     14  C   UNL     1      46.830   2.751   6.181  0.00  0.00    +0.000 A 
ATOM     15  C   UNL     1      47.195   1.427   6.400  0.00  0.00    +0.000 A 
ATOM     16  C   UNL     1      46.786   0.814   7.576  0.00  0.00    +0.000 A 
ATOM     17  N   UNL     1      46.047   1.422   8.533  0.00  0.00    +0.000 NA
ENDBRANCH   9  12
ENDBRANCH   7  10
ENDBRANCH   1   7
BRANCH   4  18
ATOM     18  C   UNL     1      47.598   8.500  13.934  0.00  0.00    +0.000 C 
BRANCH  18  19
ATOM     19  N   UNL     1      47.902   7.689  15.085  0.00  0.00    +0.000 N 
ATOM     20  C   UNL     1      49.095   7.021  15.194  0.00  0.00    +0.000 C 
ATOM     21  O   UNL     1      49.980   7.131  14.349  0.00  0.00    +0.000 OA
ATOM     22  H   UNL     1      47.124   7.412  15.676  0.00  0.00    +0.000 HD
BRANCH  20  23
ATOM     23  C   UNL     1      49.286   6.206  16.401  0.00  0.00    +0.000 A 
ATOM     24  C   UNL     1      50.288   6.534  17.304  0.00  0.00    +0.000 A 
ATOM     25  S   UNL     1      50.341   5.514  18.670  0.00  0.00    +0.000 S 
ATOM     26  C   UNL     1      49.060   4.564  18.079  0.00  0.00    +0.000 A 
ATOM     27  N   UNL     1      48.613   3.482  18.772  0.00  0.00    +0.000 NA
ATOM     28  C   UNL     1      47.658   2.834  18.192  0.00  0.00    +0.000 A 
ATOM     29  N   UNL     1      47.105   3.175  16.985  0.00  0.00    +0.000 N 
ATOM     30  C   UNL     1      47.502   4.276  16.266  0.00  0.00    +0.000 A 
ATOM     31  O   UNL     1      46.955   4.581  15.211  0.00  0.00    +0.000 OA
ATOM     32  C   UNL     1      48.584   5.032  16.867  0.00  0.00    +0.000 A 
ATOM     33  H   UNL     1      46.352   2.632  16.589  0.00  0.00    +0.000 HD
ENDBRANCH  20  23
ENDBRANCH  18  19
ENDBRANCH   4  18
TORSDOF 6
ENDMDL
MODEL 2
REMARK VINA RESULT:    -7.859      1.874      2.280
REMARK INTER + INTRA:         -11.629
REMARK INTER:                 -10.648
REMARK INTRA:                  -0.981
REMARK UNBOUND:                -1.014
REMARK  Name = 
REMARK  6 active torsions:
REMARK  status: ('A' for Active; 'I' for Inactive)
REMARK    1  A    between atoms: C_2  and  C_25
REMARK    2  A    between atoms: N_3  and  C_4
REMARK    3  A    between atoms: C_4  and  C_5
REMARK    4  A    between atoms: C_8  and  C_9
REMARK    5  A    between atoms: C_9  and  N_10
REMARK    6  A    between atoms: C_11  and  C_13
REMARK                            x       y       z     vdW  Elec       q    Type
REMARK                         _______ _______ _______ _____ _____    ______ ____
ROOT
ATOM      1  C   UNL     1      44.833   5.095  11.885  0.00  0.00    +0.000 A 
ATOM      2  C   UNL     1      44.301   6.309  11.452  0.00  0.00    +0.000 A 
ATOM      3  C   UNL     1      44.879   7.501  11.890  0.00  0.00    +0.000 A 
ATOM      4  C   UNL     1      45.987   7.463  12.736  0.00  0.00    +0.000 A 
ATOM      5  C   UNL     1      46.440   6.208  13.129  0.00  0.00    +0.000 A 
ATOM      6  N   UNL     1      45.900   5.034  12.721  0.00  0.00    +0.000 NA
ENDROOT
BRANCH   1   7
ATOM      7  C   UNL     1      44.226   3.784  11.434  0.00  0.00    +0.000 C 
BRANCH   7  10
ATOM      8  O   UNL     1      44.138   4.328   8.668  0.00  0.00    +0.000 OA
ATOM      9  C   UNL     1      44.894   3.453   9.081  0.00  0.00    +0.000 C 
ATOM     10  N   UNL     1      45.000   3.115  10.409  0.00  0.00    +0.000 N 
ATOM     11  H   UNL     1      45.699   2.426  10.669  0.00  0.00    +0.000 HD
BRANCH   9  12
ATOM     12  C   UNL     1      45.760   2.682   8.133  0.00  0.00    +0.000 A 
ATOM     13  C   UNL     1      46.175   3.292   6.953  0.00  0.00    +0.000 A 
ATOM     14  C   UNL     1      46.959   2.562   6.067  0.00  0.00    +0.000 A 
ATOM     15  C   UNL     1      47.299   1.252   6.385  0.00  0.00    +0.000 A 
ATOM     16  C   UNL     1      46.842   0.723   7.585  0.00  0.00    +0.000 A 
ATOM     17  N   UNL     1      46.080   1.401   8.473  0.00  0.00    +0.000 NA
ENDBRANCH   9  12
ENDBRANCH   7  10
ENDBRANCH   1   7
BRANCH   4  18
ATOM     18  C   UNL     1      46.649   8.712  13.239  0.00  0.00    +0.000 C 
BRANCH  18  19
ATOM     19  N   UNL     1      47.103   8.562  14.598  0.00  0.00    +0.000 N 
ATOM     20  C   UNL     1      48.219   9.215  15.055  0.00  0.00    +0.000 C 
ATOM     21  O   UNL     1      48.844  10.003  14.350  0.00  0.00    +0.000 OA
ATOM     22  H   UNL     1      46.743   7.770  15.122  0.00  0.00    +0.000 HD
BRANCH  20  23
ATOM     23  C   UNL     1      48.600   8.968  16.452  0.00  0.00    +0.000 A 
ATOM     24  C   UNL     1      48.585  10.012  17.367  0.00  0.00    +0.000 A 
ATOM     25  S   UNL     1      49.009   9.542  18.950  0.00  0.00    +0.000 S 
ATOM     26  C   UNL     1      49.281   7.936  18.460  0.00  0.00    +0.000 A 
ATOM     27  N   UNL     1      49.702   6.995  19.348  0.00  0.00    +0.000 NA
ATOM     28  C   UNL     1      49.899   5.827  18.834  0.00  0.00    +0.000 A 
ATOM     29  N   UNL     1      49.707   5.514  17.513  0.00  0.00    +0.000 N 
ATOM     30  C   UNL     1      49.254   6.423  16.588  0.00  0.00    +0.000 A 
ATOM     31  O   UNL     1      49.047   6.099  15.423  0.00  0.00    +0.000 OA
ATOM     32  C   UNL     1      49.030   7.756  17.111  0.00  0.00    +0.000 A 
ATOM     33  H   UNL     1      49.869   4.577  17.175  0.00  0.00    +0.000 HD
ENDBRANCH  20  23
ENDBRANCH  18  19
ENDBRANCH   4  18
TORSDOF 6
ENDMDL
MODEL 3
REMARK VINA RESULT:    -7.268      1.631      2.093
REMARK INTER + INTRA:         -10.831
REMARK INTER:                  -9.767
REMARK INTRA:                  -1.064
REMARK UNBOUND:                -1.014
REMARK  Name = 
REMARK  6 active torsions:
REMARK  status: ('A' for Active; 'I' for Inactive)
REMARK    1  A    between atoms: C_2  and  C_25
REMARK    2  A    between atoms: N_3  and  C_4
REMARK    3  A    between atoms: C_4  and  C_5
REMARK    4  A    between atoms: C_8  and  C_9
REMARK    5  A    between atoms: C_9  and  N_10
REMARK    6  A    between atoms: C_11  and  C_13
REMARK                            x       y       z     vdW  Elec       q    Type
REMARK                         _______ _______ _______ _____ _____    ______ ____
ROOT
ATOM      1  C   UNL     1      45.969   7.093  11.723  0.00  0.00    +0.000 A 
ATOM      2  C   UNL     1      47.323   6.779  11.616  0.00  0.00    +0.000 A 
ATOM      3  C   UNL     1      48.247   7.469  12.402  0.00  0.00    +0.000 A 
ATOM      4  C   UNL     1      47.804   8.446  13.293  0.00  0.00    +0.000 A 
ATOM      5  C   UNL     1      46.437   8.702  13.323  0.00  0.00    +0.000 A 
ATOM      6  N   UNL     1      45.517   8.050  12.572  0.00  0.00    +0.000 NA
ENDROOT
BRANCH   1   7
ATOM      7  C   UNL     1      44.943   6.368  10.881  0.00  0.00    +0.000 C 
BRANCH   7  10
ATOM      8  O   UNL     1      43.767   3.997   9.906  0.00  0.00    +0.000 OA
ATOM      9  C   UNL     1      44.874   4.328   9.492  0.00  0.00    +0.000 C 
ATOM     10  N   UNL     1      45.527   5.462   9.914  0.00  0.00    +0.000 N 
ATOM     11  H   UNL     1      46.410   5.694   9.470  0.00  0.00    +0.000 HD
BRANCH   9  12
ATOM     12  C   UNL     1      45.595   3.488   8.483  0.00  0.00    +0.000 A 
ATOM     13  C   UNL     1      45.750   2.127   8.729  0.00  0.00    +0.000 A 
ATOM     14  C   UNL     1      46.441   1.358   7.799  0.00  0.00    +0.000 A 
ATOM     15  C   UNL     1      46.955   1.971   6.662  0.00  0.00    +0.000 A 
ATOM     16  C   UNL     1      46.753   3.335   6.497  0.00  0.00    +0.000 A 
ATOM     17  N   UNL     1      46.085   4.116   7.377  0.00  0.00    +0.000 NA
ENDBRANCH   9  12
ENDBRANCH   7  10
ENDBRANCH   1   7
BRANCH   4  18
ATOM     18  C   UNL     1      48.751   9.220  14.162  0.00  0.00    +0.000 C 
BRANCH  18  19
ATOM     19  N   UNL     1      49.180   8.445  15.299  0.00  0.00    +0.000 N 
ATOM     20  C   UNL     1      48.650   8.653  16.547  0.00  0.00    +0.000 C 
ATOM     21  O   UNL     1      47.746   9.463  16.741  0.00  0.00    +0.000 OA
ATOM     22  H   UNL     1      50.056   7.939  15.212  0.00  0.00    +0.000 HD
BRANCH  20  23
ATOM     23  C   UNL     1      49.180   7.820  17.634  0.00  0.00    +0.000 A 
ATOM     24  C   UNL     1      49.696   8.421  18.775  0.00  0.00    +0.000 A 
ATOM     25  S   UNL     1      50.225   7.308  19.955  0.00  0.00    +0.000 S 
ATOM     26  C   UNL     1      49.834   5.984  18.962  0.00  0.00    +0.000 A 
ATOM     27  N   UNL     1      50.067   4.708  19.373  0.00  0.00    +0.000 NA
ATOM     28  C   UNL     1      49.751   3.803  18.508  0.00  0.00    +0.000 A 
ATOM     29  N   UNL     1      49.218   4.059  17.271  0.00  0.00    +0.000 N 
ATOM     30  C   UNL     1      48.937   5.328  16.827  0.00  0.00    +0.000 A 
ATOM     31  O   UNL     1      48.416   5.520  15.733  0.00  0.00    +0.000 OA
ATOM     32  C   UNL     1      49.286   6.384  17.756  0.00  0.00    +0.000 A 
ATOM     33  H   UNL     1      48.984   3.304  16.642  0.00  0.00    +0.000 HD
ENDBRANCH  20  23
ENDBRANCH  18  19
ENDBRANCH   4  18
TORSDOF 6
ENDMDL
MODEL 4
REMARK VINA RESULT:    -7.121      3.230      8.599
REMARK INTER + INTRA:         -10.632
REMARK INTER:                  -9.746
REMARK INTRA:                  -0.886
REMARK UNBOUND:                -1.014
REMARK  Name = 
REMARK  6 active torsions:
REMARK  status: ('A' for Active; 'I' for Inactive)
REMARK    1  A    between atoms: C_2  and  C_25
REMARK    2  A    between atoms: N_3  and  C_4
REMARK    3  A    between atoms: C_4  and  C_5
REMARK    4  A    between atoms: C_8  and  C_9
REMARK    5  A    between atoms: C_9  and  N_10
REMARK    6  A    between atoms: C_11  and  C_13
REMARK                            x       y       z     vdW  Elec       q    Type
REMARK                         _______ _______ _______ _____ _____    ______ ____
ROOT
ATOM      1  C   UNL     1      49.970   7.487  15.402  0.00  0.00    +0.000 A 
ATOM      2  C   UNL     1      49.985   8.677  14.676  0.00  0.00    +0.000 A 
ATOM      3  C   UNL     1      49.134   8.818  13.579  0.00  0.00    +0.000 A 
ATOM      4  C   UNL     1      48.271   7.777  13.236  0.00  0.00    +0.000 A 
ATOM      5  C   UNL     1      48.334   6.622  14.007  0.00  0.00    +0.000 A 
ATOM      6  N   UNL     1      49.150   6.456  15.077  0.00  0.00    +0.000 NA
ENDROOT
BRANCH   1   7
ATOM      7  C   UNL     1      50.884   7.300  16.593  0.00  0.00    +0.000 C 
BRANCH   7  10
ATOM      8  O   UNL     1      50.044   5.420  18.520  0.00  0.00    +0.000 OA
ATOM      9  C   UNL     1      50.902   5.095  17.703  0.00  0.00    +0.000 C 
ATOM     10  N   UNL     1      51.377   5.945  16.733  0.00  0.00    +0.000 N 
ATOM     11  H   UNL     1      52.038   5.573  16.058  0.00  0.00    +0.000 HD
BRANCH   9  12
ATOM     12  C   UNL     1      51.498   3.721  17.726  0.00  0.00    +0.000 A 
ATOM     13  C   UNL     1      50.702   2.637  17.367  0.00  0.00    +0.000 A 
ATOM     14  C   UNL     1      51.254   1.362  17.412  0.00  0.00    +0.000 A 
ATOM     15  C   UNL     1      52.577   1.212  17.815  0.00  0.00    +0.000 A 
ATOM     16  C   UNL     1      53.298   2.349  18.155  0.00  0.00    +0.000 A 
ATOM     17  N   UNL     1      52.797   3.605  18.122  0.00  0.00    +0.000 NA
ENDBRANCH   9  12
ENDBRANCH   7  10
ENDBRANCH   1   7
BRANCH   4  18
ATOM     18  C   UNL     1      47.335   7.873  12.067  0.00  0.00    +0.000 C 
BRANCH  18  19
ATOM     19  N   UNL     1      46.690   6.612  11.801  0.00  0.00    +0.000 N 
ATOM     20  C   UNL     1      45.330   6.524  11.645  0.00  0.00    +0.000 C 
ATOM     21  O   UNL     1      44.608   7.519  11.663  0.00  0.00    +0.000 OA
ATOM     22  H   UNL     1      47.221   5.769  11.995  0.00  0.00    +0.000 HD
BRANCH  20  23
ATOM     23  C   UNL     1      44.781   5.184  11.400  0.00  0.00    +0.000 A 
ATOM     24  C   UNL     1      44.037   4.551  12.387  0.00  0.00    +0.000 A 
ATOM     25  S   UNL     1      43.438   3.024  11.921  0.00  0.00    +0.000 S 
ATOM     26  C   UNL     1      44.197   3.128  10.402  0.00  0.00    +0.000 A 
ATOM     27  N   UNL     1      44.103   2.113   9.501  0.00  0.00    +0.000 NA
ATOM     28  C   UNL     1      44.753   2.312   8.403  0.00  0.00    +0.000 A 
ATOM     29  N   UNL     1      45.483   3.438   8.122  0.00  0.00    +0.000 N 
ATOM     30  C   UNL     1      45.580   4.500   8.987  0.00  0.00    +0.000 A 
ATOM     31  O   UNL     1      46.202   5.514   8.687  0.00  0.00    +0.000 OA
ATOM     32  C   UNL     1      44.879   4.322  10.244  0.00  0.00    +0.000 A 
ATOM     33  H   UNL     1      45.961   3.537   7.239  0.00  0.00    +0.000 HD
ENDBRANCH  20  23
ENDBRANCH  18  19
ENDBRANCH   4  18
TORSDOF 6
ENDMDL
MODEL 5
REMARK VINA RESULT:    -6.945      3.337      5.142
REMARK INTER + INTRA:         -10.394
REMARK INTER:                  -9.521
REMARK INTRA:                  -0.873
REMARK UNBOUND:                -1.014
REMARK  Name = 
REMARK  6 active torsions:
REMARK  status: ('A' for Active; 'I' for Inactive)
REMARK    1  A    between atoms: C_2  and  C_25
REMARK    2  A    between atoms: N_3  and  C_4
REMARK    3  A    between atoms: C_4  and  C_5
REMARK    4  A    between atoms: C_8  and  C_9
REMARK    5  A    between atoms: C_9  and  N_10
REMARK    6  A    between atoms: C_11  and  C_13
REMARK                            x       y       z     vdW  Elec       q    Type
REMARK                         _______ _______ _______ _____ _____    ______ ____
ROOT
ATOM      1  C   UNL     1      47.478   5.703  14.511  0.00  0.00    +0.000 A 
ATOM      2  C   UNL     1      48.347   6.218  15.472  0.00  0.00    +0.000 A 
ATOM      3  C   UNL     1      48.627   5.464  16.612  0.00  0.00    +0.000 A 
ATOM      4  C   UNL     1      48.050   4.203  16.766  0.00  0.00    +0.000 A 
ATOM      5  C   UNL     1      47.185   3.776  15.765  0.00  0.00    +0.000 A 
ATOM      6  N   UNL     1      46.894   4.485  14.648  0.00  0.00    +0.000 NA
ENDROOT
BRANCH   1   7
ATOM      7  C   UNL     1      47.149   6.497  13.266  0.00  0.00    +0.000 C 
BRANCH   7  10
ATOM      8  O   UNL     1      44.614   6.363  12.037  0.00  0.00    +0.000 OA
ATOM      9  C   UNL     1      45.528   5.674  11.595  0.00  0.00    +0.000 C 
ATOM     10  N   UNL     1      46.794   5.668  12.132  0.00  0.00    +0.000 N 
ATOM     11  H   UNL     1      47.506   5.119  11.662  0.00  0.00    +0.000 HD
BRANCH   9  12
ATOM     12  C   UNL     1      45.307   4.773  10.419  0.00  0.00    +0.000 A 
ATOM     13  C   UNL     1      44.710   3.533  10.626  0.00  0.00    +0.000 A 
ATOM     14  C   UNL     1      44.529   2.692   9.534  0.00  0.00    +0.000 A 
ATOM     15  C   UNL     1      44.949   3.113   8.278  0.00  0.00    +0.000 A 
ATOM     16  C   UNL     1      45.535   4.367   8.163  0.00  0.00    +0.000 A 
ATOM     17  N   UNL     1      45.726   5.215   9.200  0.00  0.00    +0.000 NA
ENDBRANCH   9  12
ENDBRANCH   7  10
ENDBRANCH   1   7
BRANCH   4  18
ATOM     18  C   UNL     1      48.315   3.349  17.972  0.00  0.00    +0.000 C 
BRANCH  18  19
ATOM     19  N   UNL     1      49.721   3.081  18.132  0.00  0.00    +0.000 N 
ATOM     20  C   UNL     1      50.384   2.218  17.296  0.00  0.00    +0.000 C 
ATOM     21  O   UNL     1      49.827   1.684  16.340  0.00  0.00    +0.000 OA
ATOM     22  H   UNL     1      50.143   3.329  19.022  0.00  0.00    +0.000 HD
BRANCH  20  23
ATOM     23  C   UNL     1      51.811   2.003  17.570  0.00  0.00    +0.000 A 
ATOM     24  C   UNL     1      52.305   0.711  17.689  0.00  0.00    +0.000 A 
ATOM     25  S   UNL     1      53.987   0.642  17.960  0.00  0.00    +0.000 S 
ATOM     26  C   UNL     1      54.109   2.339  17.981  0.00  0.00    +0.000 A 
ATOM     27  N   UNL     1      55.303   2.952  18.201  0.00  0.00    +0.000 NA
ATOM     28  C   UNL     1      55.245   4.242  18.222  0.00  0.00    +0.000 A 
ATOM     29  N   UNL     1      54.100   4.974  18.039  0.00  0.00    +0.000 N 
ATOM     30  C   UNL     1      52.879   4.399  17.784  0.00  0.00    +0.000 A 
ATOM     31  O   UNL     1      51.882   5.083  17.577  0.00  0.00    +0.000 OA
ATOM     32  C   UNL     1      52.887   2.949  17.763  0.00  0.00    +0.000 A 
ATOM     33  H   UNL     1      54.123   5.983  18.058  0.00  0.00    +0.000 HD
ENDBRANCH  20  23
ENDBRANCH  18  19
ENDBRANCH   4  18
TORSDOF 6
ENDMDL
MODEL 6
REMARK VINA RESULT:    -6.886      3.661      5.098
REMARK INTER + INTRA:         -10.314
REMARK INTER:                  -9.167
REMARK INTRA:                  -1.147
REMARK UNBOUND:                -1.014
REMARK  Name = 
REMARK  6 active torsions:
REMARK  status: ('A' for Active; 'I' for Inactive)
REMARK    1  A    between atoms: C_2  and  C_25
REMARK    2  A    between atoms: N_3  and  C_4
REMARK    3  A    between atoms: C_4  and  C_5
REMARK    4  A    between atoms: C_8  and  C_9
REMARK    5  A    between atoms: C_9  and  N_10
REMARK    6  A    between atoms: C_11  and  C_13
REMARK                            x       y       z     vdW  Elec       q    Type
REMARK                         _______ _______ _______ _____ _____    ______ ____
ROOT
ATOM      1  C   UNL     1      45.391   6.765  11.876  0.00  0.00    +0.000 A 
ATOM      2  C   UNL     1      46.529   6.167  12.416  0.00  0.00    +0.000 A 
ATOM      3  C   UNL     1      47.383   6.925  13.217  0.00  0.00    +0.000 A 
ATOM      4  C   UNL     1      47.080   8.260  13.481  0.00  0.00    +0.000 A 
ATOM      5  C   UNL     1      45.933   8.777  12.889  0.00  0.00    +0.000 A 
ATOM      6  N   UNL     1      45.085   8.067  12.106  0.00  0.00    +0.000 NA
ENDROOT
BRANCH   1   7
ATOM      7  C   UNL     1      44.448   5.972  10.998  0.00  0.00    +0.000 C 
BRANCH   7  10
ATOM      8  O   UNL     1      43.646   3.431  10.075  0.00  0.00    +0.000 OA
ATOM      9  C   UNL     1      44.655   3.947   9.603  0.00  0.00    +0.000 C 
ATOM     10  N   UNL     1      45.126   5.177   9.995  0.00  0.00    +0.000 N 
ATOM     11  H   UNL     1      45.929   5.557   9.505  0.00  0.00    +0.000 HD
BRANCH   9  12
ATOM     12  C   UNL     1      45.454   3.240   8.551  0.00  0.00    +0.000 A 
ATOM     13  C   UNL     1      45.714   1.882   8.703  0.00  0.00    +0.000 A 
ATOM     14  C   UNL     1      46.475   1.237   7.734  0.00  0.00    +0.000 A 
ATOM     15  C   UNL     1      46.952   1.968   6.652  0.00  0.00    +0.000 A 
ATOM     16  C   UNL     1      46.645   3.321   6.580  0.00  0.00    +0.000 A 
ATOM     17  N   UNL     1      45.906   3.982   7.500  0.00  0.00    +0.000 NA
ENDBRANCH   9  12
ENDBRANCH   7  10
ENDBRANCH   1   7
BRANCH   4  18
ATOM     18  C   UNL     1      47.962   9.124  14.335  0.00  0.00    +0.000 C 
BRANCH  18  19
ATOM     19  N   UNL     1      49.325   9.111  13.869  0.00  0.00    +0.000 N 
ATOM     20  C   UNL     1      49.820  10.118  13.079  0.00  0.00    +0.000 C 
ATOM     21  O   UNL     1      49.146  11.102  12.783  0.00  0.00    +0.000 OA
ATOM     22  H   UNL     1      49.823   8.227  13.914  0.00  0.00    +0.000 HD
BRANCH  20  23
ATOM     23  C   UNL     1      51.217   9.987  12.646  0.00  0.00    +0.000 A 
ATOM     24  C   UNL     1      52.148  10.948  13.018  0.00  0.00    +0.000 A 
ATOM     25  S   UNL     1      53.729  10.619  12.471  0.00  0.00    +0.000 S 
ATOM     26  C   UNL     1      53.218   9.209  11.670  0.00  0.00    +0.000 A 
ATOM     27  N   UNL     1      54.096   8.448  10.962  0.00  0.00    +0.000 NA
ATOM     28  C   UNL     1      53.567   7.425  10.379  0.00  0.00    +0.000 A 
ATOM     29  N   UNL     1      52.239   7.090  10.445  0.00  0.00    +0.000 N 
ATOM     30  C   UNL     1      51.323   7.810  11.172  0.00  0.00    +0.000 A 
ATOM     31  O   UNL     1      50.150   7.457  11.250  0.00  0.00    +0.000 OA
ATOM     32  C   UNL     1      51.863   8.980  11.836  0.00  0.00    +0.000 A 
ATOM     33  H   UNL     1      51.888   6.269   9.974  0.00  0.00    +0.000 HD
ENDBRANCH  20  23
ENDBRANCH  18  19
ENDBRANCH   4  18
TORSDOF 6
ENDMDL
MODEL 7
REMARK VINA RESULT:    -6.795      4.057      8.578
REMARK INTER + INTRA:         -10.192
REMARK INTER:                  -9.133
REMARK INTRA:                  -1.059
REMARK UNBOUND:                -1.014
REMARK  Name = 
REMARK  6 active torsions:
REMARK  status: ('A' for Active; 'I' for Inactive)
REMARK    1  A    between atoms: C_2  and  C_25
REMARK    2  A    between atoms: N_3  and  C_4
REMARK    3  A    between atoms: C_4  and  C_5
REMARK    4  A    between atoms: C_8  and  C_9
REMARK    5  A    between atoms: C_9  and  N_10
REMARK    6  A    between atoms: C_11  and  C_13
REMARK                            x       y       z     vdW  Elec       q    Type
REMARK                         _______ _______ _______ _____ _____    ______ ____
ROOT
ATOM      1  C   UNL     1      49.715   4.719  17.660  0.00  0.00    +0.000 A 
ATOM      2  C   UNL     1      48.453   4.453  17.130  0.00  0.00    +0.000 A 
ATOM      3  C   UNL     1      47.966   5.250  16.093  0.00  0.00    +0.000 A 
ATOM      4  C   UNL     1      48.752   6.287  15.592  0.00  0.00    +0.000 A 
ATOM      5  C   UNL     1      49.991   6.490  16.191  0.00  0.00    +0.000 A 
ATOM      6  N   UNL     1      50.490   5.733  17.198  0.00  0.00    +0.000 NA
ENDROOT
BRANCH   1   7
ATOM      7  C   UNL     1      50.270   3.877  18.787  0.00  0.00    +0.000 C 
BRANCH   7  10
ATOM      8  O   UNL     1      50.757   1.571  17.238  0.00  0.00    +0.000 OA
ATOM      9  C   UNL     1      51.708   2.178  17.721  0.00  0.00    +0.000 C 
ATOM     10  N   UNL     1      51.568   3.306  18.494  0.00  0.00    +0.000 N 
ATOM     11  H   UNL     1      52.412   3.782  18.798  0.00  0.00    +0.000 HD
BRANCH   9  12
ATOM     12  C   UNL     1      53.111   1.704  17.495  0.00  0.00    +0.000 A 
ATOM     13  C   UNL     1      54.152   2.625  17.569  0.00  0.00    +0.000 A 
ATOM     14  C   UNL     1      55.449   2.183  17.336  0.00  0.00    +0.000 A 
ATOM     15  C   UNL     1      55.663   0.843  17.033  0.00  0.00    +0.000 A 
ATOM     16  C   UNL     1      54.566  -0.007  16.979  0.00  0.00    +0.000 A 
ATOM     17  N   UNL     1      53.290   0.385  17.203  0.00  0.00    +0.000 NA
ENDBRANCH   9  12
ENDBRANCH   7  10
ENDBRANCH   1   7
BRANCH   4  18
ATOM     18  C   UNL     1      48.280   7.177  14.479  0.00  0.00    +0.000 C 
BRANCH  18  19
ATOM     19  N   UNL     1      47.050   6.696  13.902  0.00  0.00    +0.000 N 
ATOM     20  C   UNL     1      46.859   6.675  12.544  0.00  0.00    +0.000 C 
ATOM     21  O   UNL     1      47.744   7.005  11.758  0.00  0.00    +0.000 OA
ATOM     22  H   UNL     1      46.245   6.628  14.517  0.00  0.00    +0.000 HD
BRANCH  20  23
ATOM     23  C   UNL     1      45.557   6.186  12.071  0.00  0.00    +0.000 A 
ATOM     24  C   UNL     1      44.658   7.069  11.489  0.00  0.00    +0.000 A 
ATOM     25  S   UNL     1      43.217   6.328  10.955  0.00  0.00    +0.000 S 
ATOM     26  C   UNL     1      43.720   4.809  11.531  0.00  0.00    +0.000 A 
ATOM     27  N   UNL     1      42.920   3.715  11.412  0.00  0.00    +0.000 NA
ATOM     28  C   UNL     1      43.413   2.635  11.920  0.00  0.00    +0.000 A 
ATOM     29  N   UNL     1      44.637   2.549  12.531  0.00  0.00    +0.000 N 
ATOM     30  C   UNL     1      45.492   3.619  12.645  0.00  0.00    +0.000 A 
ATOM     31  O   UNL     1      46.601   3.498  13.155  0.00  0.00    +0.000 OA
ATOM     32  C   UNL     1      44.979   4.862  12.103  0.00  0.00    +0.000 A 
ATOM     33  H   UNL     1      44.971   1.671  12.900  0.00  0.00    +0.000 HD
ENDBRANCH  20  23
ENDBRANCH  18  19
ENDBRANCH   4  18
TORSDOF 6
ENDMDL
MODEL 8
REMARK VINA RESULT:    -6.505      5.109      7.539
REMARK INTER + INTRA:          -9.800
REMARK INTER:                  -8.907
REMARK INTRA:                  -0.893
REMARK UNBOUND:                -1.014
REMARK  Name = 
REMARK  6 active torsions:
REMARK  status: ('A' for Active; 'I' for Inactive)
REMARK    1  A    between atoms: C_2  and  C_25
REMARK    2  A    between atoms: N_3  and  C_4
REMARK    3  A    between atoms: C_4  and  C_5
REMARK    4  A    between atoms: C_8  and  C_9
REMARK    5  A    between atoms: C_9  and  N_10
REMARK    6  A    between atoms: C_11  and  C_13
REMARK                            x       y       z     vdW  Elec       q    Type
REMARK                         _______ _______ _______ _____ _____    ______ ____
ROOT
ATOM      1  C   UNL     1      50.628   8.857  11.365  0.00  0.00    +0.000 A 
ATOM      2  C   UNL     1      50.235   7.579  11.760  0.00  0.00    +0.000 A 
ATOM      3  C   UNL     1      48.940   7.381  12.241  0.00  0.00    +0.000 A 
ATOM      4  C   UNL     1      48.054   8.457  12.303  0.00  0.00    +0.000 A 
ATOM      5  C   UNL     1      48.537   9.698  11.902  0.00  0.00    +0.000 A 
ATOM      6  N   UNL     1      49.788   9.920  11.431  0.00  0.00    +0.000 NA
ENDROOT
BRANCH   1   7
ATOM      7  C   UNL     1      52.026   9.106  10.844  0.00  0.00    +0.000 C 
BRANCH   7  10
ATOM      8  O   UNL     1      52.760   8.916   8.128  0.00  0.00    +0.000 OA
ATOM      9  C   UNL     1      52.946   7.953   8.865  0.00  0.00    +0.000 C 
ATOM     10  N   UNL     1      52.615   7.951  10.200  0.00  0.00    +0.000 N 
ATOM     11  H   UNL     1      52.865   7.135  10.750  0.00  0.00    +0.000 HD
BRANCH   9  12
ATOM     12  C   UNL     1      53.554   6.690   8.335  0.00  0.00    +0.000 A 
ATOM     13  C   UNL     1      52.898   6.003   7.318  0.00  0.00    +0.000 A 
ATOM     14  C   UNL     1      53.456   4.821   6.847  0.00  0.00    +0.000 A 
ATOM     15  C   UNL     1      54.644   4.363   7.406  0.00  0.00    +0.000 A 
ATOM     16  C   UNL     1      55.231   5.112   8.417  0.00  0.00    +0.000 A 
ATOM     17  N   UNL     1      54.720   6.268   8.901  0.00  0.00    +0.000 NA
ENDBRANCH   9  12
ENDBRANCH   7  10
ENDBRANCH   1   7
BRANCH   4  18
ATOM     18  C   UNL     1      46.651   8.303  12.811  0.00  0.00    +0.000 C 
BRANCH  18  19
ATOM     19  N   UNL     1      46.134   6.984  12.551  0.00  0.00    +0.000 N 
ATOM     20  C   UNL     1      45.063   6.788  11.716  0.00  0.00    +0.000 C 
ATOM     21  O   UNL     1      44.536   7.716  11.107  0.00  0.00    +0.000 OA
ATOM     22  H   UNL     1      46.402   6.245  13.194  0.00  0.00    +0.000 HD
BRANCH  20  23
ATOM     23  C   UNL     1      44.609   5.402  11.543  0.00  0.00    +0.000 A 
ATOM     24  C   UNL     1      43.888   4.780  12.554  0.00  0.00    +0.000 A 
ATOM     25  S   UNL     1      43.400   3.192  12.171  0.00  0.00    +0.000 S 
ATOM     26  C   UNL     1      44.182   3.256  10.662  0.00  0.00    +0.000 A 
ATOM     27  N   UNL     1      44.174   2.185   9.823  0.00  0.00    +0.000 NA
ATOM     28  C   UNL     1      44.832   2.362   8.726  0.00  0.00    +0.000 A 
ATOM     29  N   UNL     1      45.492   3.515   8.390  0.00  0.00    +0.000 N 
ATOM     30  C   UNL     1      45.501   4.631   9.191  0.00  0.00    +0.000 A 
ATOM     31  O   UNL     1      46.062   5.664   8.840  0.00  0.00    +0.000 OA
ATOM     32  C   UNL     1      44.788   4.481  10.444  0.00  0.00    +0.000 A 
ATOM     33  H   UNL     1      45.981   3.594   7.510  0.00  0.00    +0.000 HD
ENDBRANCH  20  23
ENDBRANCH  18  19
ENDBRANCH   4  18
TORSDOF 6
ENDMDL
MODEL 9
REMARK VINA RESULT:    -6.372      2.166      3.059
REMARK INTER + INTRA:          -9.621
REMARK INTER:                  -8.794
REMARK INTRA:                  -0.827
REMARK UNBOUND:                -1.014
REMARK  Name = 
REMARK  6 active torsions:
REMARK  status: ('A' for Active; 'I' for Inactive)
REMARK    1  A    between atoms: C_2  and  C_25
REMARK    2  A    between atoms: N_3  and  C_4
REMARK    3  A    between atoms: C_4  and  C_5
REMARK    4  A    between atoms: C_8  and  C_9
REMARK    5  A    between atoms: C_9  and  N_10
REMARK    6  A    between atoms: C_11  and  C_13
REMARK                            x       y       z     vdW  Elec       q    Type
REMARK                         _______ _______ _______ _____ _____    ______ ____
ROOT
ATOM      1  C   UNL     1      45.948   7.063  11.568  0.00  0.00    +0.000 A 
ATOM      2  C   UNL     1      47.309   6.780  11.456  0.00  0.00    +0.000 A 
ATOM      3  C   UNL     1      48.210   7.420  12.308  0.00  0.00    +0.000 A 
ATOM      4  C   UNL     1      47.739   8.316  13.267  0.00  0.00    +0.000 A 
ATOM      5  C   UNL     1      46.368   8.547  13.297  0.00  0.00    +0.000 A 
ATOM      6  N   UNL     1      45.469   7.942  12.483  0.00  0.00    +0.000 NA
ENDROOT
BRANCH   1   7
ATOM      7  C   UNL     1      44.945   6.391  10.656  0.00  0.00    +0.000 C 
BRANCH   7  10
ATOM      8  O   UNL     1      43.721   4.028   9.721  0.00  0.00    +0.000 OA
ATOM      9  C   UNL     1      44.862   4.295   9.355  0.00  0.00    +0.000 C 
ATOM     10  N   UNL     1      45.541   5.419   9.763  0.00  0.00    +0.000 N 
ATOM     11  H   UNL     1      46.455   5.594   9.358  0.00  0.00    +0.000 HD
BRANCH   9  12
ATOM     12  C   UNL     1      45.599   3.381   8.424  0.00  0.00    +0.000 A 
ATOM     13  C   UNL     1      45.729   2.038   8.763  0.00  0.00    +0.000 A 
ATOM     14  C   UNL     1      46.434   1.200   7.906  0.00  0.00    +0.000 A 
ATOM     15  C   UNL     1      46.986   1.730   6.746  0.00  0.00    +0.000 A 
ATOM     16  C   UNL     1      46.808   3.082   6.485  0.00  0.00    +0.000 A 
ATOM     17  N   UNL     1      46.127   3.928   7.293  0.00  0.00    +0.000 NA
ENDBRANCH   9  12
ENDBRANCH   7  10
ENDBRANCH   1   7
BRANCH   4  18
ATOM     18  C   UNL     1      48.661   9.032  14.209  0.00  0.00    +0.000 C 
BRANCH  18  19
ATOM     19  N   UNL     1      48.571   8.502  15.546  0.00  0.00    +0.000 N 
ATOM     20  C   UNL     1      49.195   7.331  15.893  0.00  0.00    +0.000 C 
ATOM     21  O   UNL     1      49.906   6.715  15.103  0.00  0.00    +0.000 OA
ATOM     22  H   UNL     1      47.831   8.864  16.139  0.00  0.00    +0.000 HD
BRANCH  20  23
ATOM     23  C   UNL     1      49.014   6.875  17.278  0.00  0.00    +0.000 A 
ATOM     24  C   UNL     1      48.490   5.614  17.527  0.00  0.00    +0.000 A 
ATOM     25  S   UNL     1      48.391   5.228  19.185  0.00  0.00    +0.000 S 
ATOM     26  C   UNL     1      48.993   6.754  19.633  0.00  0.00    +0.000 A 
ATOM     27  N   UNL     1      49.136   7.093  20.943  0.00  0.00    +0.000 NA
ATOM     28  C   UNL     1      49.574   8.292  21.139  0.00  0.00    +0.000 A 
ATOM     29  N   UNL     1      49.887   9.180  20.143  0.00  0.00    +0.000 N 
ATOM     30  C   UNL     1      49.788   8.871  18.808  0.00  0.00    +0.000 A 
ATOM     31  O   UNL     1      50.122   9.672  17.941  0.00  0.00    +0.000 OA
ATOM     32  C   UNL     1      49.287   7.539  18.532  0.00  0.00    +0.000 A 
ATOM     33  H   UNL     1      50.235  10.102  20.362  0.00  0.00    +0.000 HD
ENDBRANCH  20  23
ENDBRANCH  18  19
ENDBRANCH   4  18
TORSDOF 6
ENDMDL
