MODEL 1
REMARK VINA RESULT:    -8.451      0.000      0.000
REMARK INTER + INTRA:         -12.803
REMARK INTER:                 -12.403
REMARK INTRA:                  -0.400
REMARK UNBOUND:                -0.400
REMARK  Name = 
REMARK  9 active torsions:
REMARK  status: ('A' for Active; 'I' for Inactive)
REMARK    1  A    between atoms: C_1  and  O_2
REMARK    2  A    between atoms: O_2  and  C_3
REMARK    3  A    between atoms: C_10  and  C_11
REMARK    4  A    between atoms: N_13  and  C_14
REMARK    5  A    between atoms: C_14  and  C_15
REMARK    6  A    between atoms: C_18  and  C_19
REMARK    7  A    between atoms: C_19  and  N_20
REMARK    8  A    between atoms: N_20  and  C_21
REMARK    9  A    between atoms: C_21  and  C_22
REMARK                            x       y       z     vdW  Elec       q    Type
REMARK                         _______ _______ _______ _____ _____    ______ ____
ROOT
ATOM      1  C   UNL     1      46.754   8.015  13.223  0.00  0.00    +0.000 C 
ENDROOT
BRANCH   1   2
ATOM      2  C   UNL     1      45.995   7.020  12.386  0.00  0.00    +0.000 A 
ATOM      3  C   UNL     1      44.833   6.420  12.882  0.00  0.00    +0.000 A 
ATOM      4  C   UNL     1      44.150   5.466  12.127  0.00  0.00    +0.000 A 
ATOM      5  C   UNL     1      44.587   5.118  10.842  0.00  0.00    +0.000 A 
ATOM      6  C   UNL     1      45.773   5.693  10.363  0.00  0.00    +0.000 A 
ATOM      7  C   UNL     1      46.472   6.631  11.128  0.00  0.00    +0.000 A 
BRANCH   5   8
ATOM      8  C   UNL     1      43.845   4.121   9.971  0.00  0.00    +0.000 C 
BRANCH   8   9
ATOM      9  N   UNL     1      44.051   4.260   8.526  0.00  0.00    +0.000 NA
ATOM     10  H   UNL     1      43.549   5.075   8.185  0.00  0.00    +0.000 HD
BRANCH   9  11
ATOM     11  C   UNL     1      45.467   4.332   8.157  0.00  0.00    +0.000 C 
BRANCH  11  12
ATOM     12  C   UNL     1      45.925   3.048   7.446  0.00  0.00    +0.000 C 
ATOM     13  C   UNL     1      46.079   1.864   8.410  0.00  0.00    +0.000 C 
ATOM     14  C   UNL     1      46.692   0.665   7.699  0.00  0.00    +0.000 C 
ATOM     15  O   UNL     1      47.941   1.012   7.104  0.00  0.00    +0.000 OA
ATOM     16  C   UNL     1      47.799   2.022   6.108  0.00  0.00    +0.000 C 
ATOM     17  C   UNL     1      47.253   3.305   6.717  0.00  0.00    +0.000 C 
ENDBRANCH  11  12
ENDBRANCH   9  11
ENDBRANCH   8   9
ENDBRANCH   5   8
ENDBRANCH   1   2
BRANCH   1  20
ATOM     18  C   UNL     1      48.552   6.875  14.447  0.00  0.00    +0.000 C 
ATOM     19  O   UNL     1      49.297   6.939  13.467  0.00  0.00    +0.000 OA
ATOM     20  N   UNL     1      47.284   7.383  14.403  0.00  0.00    +0.000 N 
ATOM     21  H   UNL     1      46.666   7.275  15.197  0.00  0.00    +0.000 HD
BRANCH  18  29
ATOM     22  C   UNL     1      47.369   4.253  16.346  0.00  0.00    +0.000 A 
ATOM     23  N   UNL     1      47.136   3.290  17.259  0.00  0.00    +0.000 NA
ATOM     24  C   UNL     1      47.959   3.203  18.307  0.00  0.00    +0.000 A 
ATOM     25  N   UNL     1      49.011   3.973  18.562  0.00  0.00    +0.000 NA
ATOM     26  C   UNL     1      49.215   4.913  17.623  0.00  0.00    +0.000 A 
ATOM     27  S   UNL     1      50.514   5.992  17.792  0.00  0.00    +0.000 S 
ATOM     28  C   UNL     1      50.108   6.783  16.345  0.00  0.00    +0.000 A 
ATOM     29  C   UNL     1      48.994   6.253  15.705  0.00  0.00    +0.000 A 
ATOM     30  C   UNL     1      48.458   5.132  16.475  0.00  0.00    +0.000 A 
BRANCH  22  32
ATOM     31  C   UNL     1      47.024   3.591  14.137  0.00  0.00    +0.000 C 
ATOM     32  O   UNL     1      46.527   4.323  15.256  0.00  0.00    +0.000 OA
ENDBRANCH  22  32
ENDBRANCH  18  29
ENDBRANCH   1  20
TORSDOF 8
ENDMDL
MODEL 2
REMARK VINA RESULT:    -8.423      1.682      2.110
REMARK INTER + INTRA:         -12.762
REMARK INTER:                 -11.449
REMARK INTRA:                  -1.313
REMARK UNBOUND:                -0.400
REMARK  Name = 
REMARK  9 active torsions:
REMARK  status: ('A' for Active; 'I' for Inactive)
REMARK    1  A    between atoms: C_1  and  O_2
REMARK    2  A    between atoms: O_2  and  C_3
REMARK    3  A    between atoms: C_10  and  C_11
REMARK    4  A    between atoms: N_13  and  C_14
REMARK    5  A    between atoms: C_14  and  C_15
REMARK    6  A    between atoms: C_18  and  C_19
REMARK    7  A    between atoms: C_19  and  N_20
REMARK    8  A    between atoms: N_20  and  C_21
REMARK    9  A    between atoms: C_21  and  C_22
REMARK                            x       y       z     vdW  Elec       q    Type
REMARK                         _______ _______ _______ _____ _____    ______ ____
ROOT
ATOM      1  C   UNL     1      48.029   6.817  13.309  0.00  0.00    +0.000 C 
ENDROOT
BRANCH   1   2
ATOM      2  C   UNL     1      46.887   6.007  12.752  0.00  0.00    +0.000 A 
ATOM      3  C   UNL     1      46.408   4.891  13.446  0.00  0.00    +0.000 A 
ATOM      4  C   UNL     1      45.379   4.114  12.913  0.00  0.00    +0.000 A 
ATOM      5  C   UNL     1      44.776   4.455  11.695  0.00  0.00    +0.000 A 
ATOM      6  C   UNL     1      45.284   5.552  10.985  0.00  0.00    +0.000 A 
ATOM      7  C   UNL     1      46.331   6.318  11.505  0.00  0.00    +0.000 A 
BRANCH   5   8
ATOM      8  C   UNL     1      43.624   3.663  11.107  0.00  0.00    +0.000 C 
BRANCH   8   9
ATOM      9  N   UNL     1      43.762   3.289   9.695  0.00  0.00    +0.000 NA
ATOM     10  H   UNL     1      44.140   4.073   9.169  0.00  0.00    +0.000 HD
BRANCH   9  11
ATOM     11  C   UNL     1      44.581   2.091   9.501  0.00  0.00    +0.000 C 
BRANCH  11  12
ATOM     12  C   UNL     1      45.816   2.394   8.637  0.00  0.00    +0.000 C 
ATOM     13  C   UNL     1      45.532   3.437   7.548  0.00  0.00    +0.000 C 
ATOM     14  C   UNL     1      46.726   3.582   6.614  0.00  0.00    +0.000 C 
ATOM     15  O   UNL     1      47.081   2.323   6.043  0.00  0.00    +0.000 OA
ATOM     16  C   UNL     1      47.476   1.378   7.034  0.00  0.00    +0.000 C 
ATOM     17  C   UNL     1      46.332   1.096   7.996  0.00  0.00    +0.000 C 
ENDBRANCH  11  12
ENDBRANCH   9  11
ENDBRANCH   8   9
ENDBRANCH   5   8
ENDBRANCH   1   2
BRANCH   1  20
ATOM     18  C   UNL     1      49.030   6.865  15.550  0.00  0.00    +0.000 C 
ATOM     19  O   UNL     1      50.161   6.738  15.077  0.00  0.00    +0.000 OA
ATOM     20  N   UNL     1      47.930   6.911  14.742  0.00  0.00    +0.000 N 
ATOM     21  H   UNL     1      47.003   6.962  15.146  0.00  0.00    +0.000 HD
BRANCH  18  29
ATOM     22  C   UNL     1      48.893   4.564  18.114  0.00  0.00    +0.000 A 
ATOM     23  N   UNL     1      48.798   3.901  19.283  0.00  0.00    +0.000 NA
ATOM     24  C   UNL     1      48.562   4.609  20.391  0.00  0.00    +0.000 A 
ATOM     25  N   UNL     1      48.408   5.925  20.480  0.00  0.00    +0.000 NA
ATOM     26  C   UNL     1      48.520   6.549  19.295  0.00  0.00    +0.000 A 
ATOM     27  S   UNL     1      48.344   8.236  19.220  0.00  0.00    +0.000 S 
ATOM     28  C   UNL     1      48.592   8.236  17.540  0.00  0.00    +0.000 A 
ATOM     29  C   UNL     1      48.815   6.974  17.002  0.00  0.00    +0.000 A 
ATOM     30  C   UNL     1      48.769   5.963  18.056  0.00  0.00    +0.000 A 
BRANCH  22  32
ATOM     31  C   UNL     1      47.981   3.243  16.423  0.00  0.00    +0.000 C 
ATOM     32  O   UNL     1      49.158   3.829  16.977  0.00  0.00    +0.000 OA
ENDBRANCH  22  32
ENDBRANCH  18  29
ENDBRANCH   1  20
TORSDOF 8
ENDMDL
MODEL 3
REMARK VINA RESULT:    -8.329      2.196      2.795
REMARK INTER + INTRA:         -12.624
REMARK INTER:                 -11.689
REMARK INTRA:                  -0.936
REMARK UNBOUND:                -0.400
REMARK  Name = 
REMARK  9 active torsions:
REMARK  status: ('A' for Active; 'I' for Inactive)
REMARK    1  A    between atoms: C_1  and  O_2
REMARK    2  A    between atoms: O_2  and  C_3
REMARK    3  A    between atoms: C_10  and  C_11
REMARK    4  A    between atoms: N_13  and  C_14
REMARK    5  A    between atoms: C_14  and  C_15
REMARK    6  A    between atoms: C_18  and  C_19
REMARK    7  A    between atoms: C_19  and  N_20
REMARK    8  A    between atoms: N_20  and  C_21
REMARK    9  A    between atoms: C_21  and  C_22
REMARK                            x       y       z     vdW  Elec       q    Type
REMARK                         _______ _______ _______ _____ _____    ______ ____
ROOT
ATOM      1  C   UNL     1      48.038   6.690  13.674  0.00  0.00    +0.000 C 
ENDROOT
BRANCH   1   2
ATOM      2  C   UNL     1      46.924   6.086  12.859  0.00  0.00    +0.000 A 
ATOM      3  C   UNL     1      46.401   4.833  13.195  0.00  0.00    +0.000 A 
ATOM      4  C   UNL     1      45.400   4.252  12.418  0.00  0.00    +0.000 A 
ATOM      5  C   UNL     1      44.866   4.923  11.310  0.00  0.00    +0.000 A 
ATOM      6  C   UNL     1      45.419   6.163  10.954  0.00  0.00    +0.000 A 
ATOM      7  C   UNL     1      46.440   6.736  11.717  0.00  0.00    +0.000 A 
BRANCH   5   8
ATOM      8  C   UNL     1      43.744   4.346  10.469  0.00  0.00    +0.000 C 
BRANCH   8   9
ATOM      9  N   UNL     1      44.145   3.357   9.462  0.00  0.00    +0.000 NA
ATOM     10  H   UNL     1      43.322   2.880   9.104  0.00  0.00    +0.000 HD
BRANCH   9  11
ATOM     11  C   UNL     1      44.921   3.944   8.367  0.00  0.00    +0.000 C 
BRANCH  11  12
ATOM     12  C   UNL     1      45.639   2.858   7.548  0.00  0.00    +0.000 C 
ATOM     13  C   UNL     1      46.021   1.638   8.396  0.00  0.00    +0.000 C 
ATOM     14  C   UNL     1      46.875   0.667   7.592  0.00  0.00    +0.000 C 
ATOM     15  O   UNL     1      48.033   1.318   7.073  0.00  0.00    +0.000 OA
ATOM     16  C   UNL     1      47.699   2.375   6.177  0.00  0.00    +0.000 C 
ATOM     17  C   UNL     1      46.895   3.452   6.891  0.00  0.00    +0.000 C 
ENDBRANCH  11  12
ENDBRANCH   9  11
ENDBRANCH   8   9
ENDBRANCH   5   8
ENDBRANCH   1   2
BRANCH   1  20
ATOM     18  C   UNL     1      48.973   6.313  15.913  0.00  0.00    +0.000 C 
ATOM     19  O   UNL     1      50.101   6.620  15.523  0.00  0.00    +0.000 OA
ATOM     20  N   UNL     1      47.905   6.323  15.060  0.00  0.00    +0.000 N 
ATOM     21  H   UNL     1      46.996   6.017  15.380  0.00  0.00    +0.000 HD
BRANCH  18  29
ATOM     22  C   UNL     1      47.914   8.037  18.704  0.00  0.00    +0.000 A 
ATOM     23  N   UNL     1      47.522   8.450  19.926  0.00  0.00    +0.000 NA
ATOM     24  C   UNL     1      47.497   7.554  20.915  0.00  0.00    +0.000 A 
ATOM     25  N   UNL     1      47.819   6.267  20.836  0.00  0.00    +0.000 NA
ATOM     26  C   UNL     1      48.194   5.894  19.601  0.00  0.00    +0.000 A 
ATOM     27  S   UNL     1      48.648   4.283  19.318  0.00  0.00    +0.000 S 
ATOM     28  C   UNL     1      48.957   4.607  17.680  0.00  0.00    +0.000 A 
ATOM     29  C   UNL     1      48.724   5.926  17.311  0.00  0.00    +0.000 A 
ATOM     30  C   UNL     1      48.268   6.698  18.466  0.00  0.00    +0.000 A 
BRANCH  22  32
ATOM     31  C   UNL     1      49.148   9.683  17.605  0.00  0.00    +0.000 C 
ATOM     32  O   UNL     1      47.918   8.964  17.682  0.00  0.00    +0.000 OA
ENDBRANCH  22  32
ENDBRANCH  18  29
ENDBRANCH   1  20
TORSDOF 8
ENDMDL
MODEL 4
REMARK VINA RESULT:    -8.231      1.943      3.545
REMARK INTER + INTRA:         -12.481
REMARK INTER:                 -11.063
REMARK INTRA:                  -1.417
REMARK UNBOUND:                -0.400
REMARK  Name = 
REMARK  9 active torsions:
REMARK  status: ('A' for Active; 'I' for Inactive)
REMARK    1  A    between atoms: C_1  and  O_2
REMARK    2  A    between atoms: O_2  and  C_3
REMARK    3  A    between atoms: C_10  and  C_11
REMARK    4  A    between atoms: N_13  and  C_14
REMARK    5  A    between atoms: C_14  and  C_15
REMARK    6  A    between atoms: C_18  and  C_19
REMARK    7  A    between atoms: C_19  and  N_20
REMARK    8  A    between atoms: N_20  and  C_21
REMARK    9  A    between atoms: C_21  and  C_22
REMARK                            x       y       z     vdW  Elec       q    Type
REMARK                         _______ _______ _______ _____ _____    ______ ____
ROOT
ATOM      1  C   UNL     1      47.152   4.285  14.927  0.00  0.00    +0.000 C 
ENDROOT
BRANCH   1   2
ATOM      2  C   UNL     1      46.275   4.378  13.706  0.00  0.00    +0.000 A 
ATOM      3  C   UNL     1      45.999   3.237  12.945  0.00  0.00    +0.000 A 
ATOM      4  C   UNL     1      45.223   3.327  11.790  0.00  0.00    +0.000 A 
ATOM      5  C   UNL     1      44.668   4.548  11.388  0.00  0.00    +0.000 A 
ATOM      6  C   UNL     1      44.978   5.697  12.132  0.00  0.00    +0.000 A 
ATOM      7  C   UNL     1      45.776   5.614  13.276  0.00  0.00    +0.000 A 
BRANCH   5   8
ATOM      8  C   UNL     1      43.779   4.677  10.165  0.00  0.00    +0.000 C 
BRANCH   8   9
ATOM      9  N   UNL     1      44.060   3.742   9.070  0.00  0.00    +0.000 NA
ATOM     10  H   UNL     1      43.227   3.622   8.500  0.00  0.00    +0.000 HD
BRANCH   9  11
ATOM     11  C   UNL     1      45.197   4.157   8.245  0.00  0.00    +0.000 C 
BRANCH  11  12
ATOM     12  C   UNL     1      45.784   2.969   7.465  0.00  0.00    +0.000 C 
ATOM     13  C   UNL     1      46.138   1.785   8.374  0.00  0.00    +0.000 C 
ATOM     14  C   UNL     1      46.867   0.702   7.592  0.00  0.00    +0.000 C 
ATOM     15  O   UNL     1      48.030   1.230   6.956  0.00  0.00    +0.000 OA
ATOM     16  C   UNL     1      47.709   2.244   6.007  0.00  0.00    +0.000 C 
ATOM     17  C   UNL     1      47.030   3.423   6.689  0.00  0.00    +0.000 C 
ENDBRANCH  11  12
ENDBRANCH   9  11
ENDBRANCH   8   9
ENDBRANCH   5   8
ENDBRANCH   1   2
BRANCH   1  20
ATOM     18  C   UNL     1      48.591   5.803  16.213  0.00  0.00    +0.000 C 
ATOM     19  O   UNL     1      49.277   4.860  16.610  0.00  0.00    +0.000 OA
ATOM     20  N   UNL     1      47.526   5.599  15.381  0.00  0.00    +0.000 N 
ATOM     21  H   UNL     1      46.939   6.376  15.107  0.00  0.00    +0.000 HD
BRANCH  18  29
ATOM     22  C   UNL     1      48.707   8.797  14.508  0.00  0.00    +0.000 A 
ATOM     23  N   UNL     1      48.817  10.077  14.105  0.00  0.00    +0.000 NA
ATOM     24  C   UNL     1      49.155  10.997  15.012  0.00  0.00    +0.000 A 
ATOM     25  N   UNL     1      49.401  10.793  16.302  0.00  0.00    +0.000 NA
ATOM     26  C   UNL     1      49.270   9.506  16.666  0.00  0.00    +0.000 A 
ATOM     27  S   UNL     1      49.552   9.063  18.279  0.00  0.00    +0.000 S 
ATOM     28  C   UNL     1      49.219   7.432  17.940  0.00  0.00    +0.000 A 
ATOM     29  C   UNL     1      48.887   7.188  16.613  0.00  0.00    +0.000 A 
ATOM     30  C   UNL     1      48.920   8.434  15.849  0.00  0.00    +0.000 A 
BRANCH  22  32
ATOM     31  C   UNL     1      49.451   7.363  12.826  0.00  0.00    +0.000 C 
ATOM     32  O   UNL     1      48.337   7.856  13.570  0.00  0.00    +0.000 OA
ENDBRANCH  22  32
ENDBRANCH  18  29
ENDBRANCH   1  20
TORSDOF 8
ENDMDL
MODEL 5
REMARK VINA RESULT:    -7.596      1.893      2.406
REMARK INTER + INTRA:         -11.548
REMARK INTER:                 -10.282
REMARK INTRA:                  -1.266
REMARK UNBOUND:                -0.400
REMARK  Name = 
REMARK  9 active torsions:
REMARK  status: ('A' for Active; 'I' for Inactive)
REMARK    1  A    between atoms: C_1  and  O_2
REMARK    2  A    between atoms: O_2  and  C_3
REMARK    3  A    between atoms: C_10  and  C_11
REMARK    4  A    between atoms: N_13  and  C_14
REMARK    5  A    between atoms: C_14  and  C_15
REMARK    6  A    between atoms: C_18  and  C_19
REMARK    7  A    between atoms: C_19  and  N_20
REMARK    8  A    between atoms: N_20  and  C_21
REMARK    9  A    between atoms: C_21  and  C_22
REMARK                            x       y       z     vdW  Elec       q    Type
REMARK                         _______ _______ _______ _____ _____    ______ ____
ROOT
ATOM      1  C   UNL     1      48.026   7.668  13.593  0.00  0.00    +0.000 C 
ENDROOT
BRANCH   1   2
ATOM      2  C   UNL     1      47.108   6.554  13.165  0.00  0.00    +0.000 A 
ATOM      3  C   UNL     1      47.042   5.369  13.905  0.00  0.00    +0.000 A 
ATOM      4  C   UNL     1      46.225   4.318  13.488  0.00  0.00    +0.000 A 
ATOM      5  C   UNL     1      45.422   4.439  12.346  0.00  0.00    +0.000 A 
ATOM      6  C   UNL     1      45.519   5.615  11.586  0.00  0.00    +0.000 A 
ATOM      7  C   UNL     1      46.356   6.659  11.989  0.00  0.00    +0.000 A 
BRANCH   5   8
ATOM      8  C   UNL     1      44.485   3.338  11.888  0.00  0.00    +0.000 C 
BRANCH   8   9
ATOM      9  N   UNL     1      44.961   2.520  10.767  0.00  0.00    +0.000 NA
ATOM     10  H   UNL     1      44.948   1.538  11.030  0.00  0.00    +0.000 HD
BRANCH   9  11
ATOM     11  C   UNL     1      44.195   2.738   9.538  0.00  0.00    +0.000 C 
BRANCH  11  12
ATOM     12  C   UNL     1      45.080   2.574   8.292  0.00  0.00    +0.000 C 
ATOM     13  C   UNL     1      46.057   1.396   8.414  0.00  0.00    +0.000 C 
ATOM     14  C   UNL     1      47.024   1.372   7.239  0.00  0.00    +0.000 C 
ATOM     15  O   UNL     1      47.721   2.612   7.129  0.00  0.00    +0.000 OA
ATOM     16  C   UNL     1      46.838   3.704   6.882  0.00  0.00    +0.000 C 
ATOM     17  C   UNL     1      45.858   3.873   8.033  0.00  0.00    +0.000 C 
ENDBRANCH  11  12
ENDBRANCH   9  11
ENDBRANCH   8   9
ENDBRANCH   5   8
ENDBRANCH   1   2
BRANCH   1  20
ATOM     18  C   UNL     1      49.411   7.420  15.606  0.00  0.00    +0.000 C 
ATOM     19  O   UNL     1      48.650   8.141  16.252  0.00  0.00    +0.000 OA
ATOM     20  N   UNL     1      49.171   7.141  14.290  0.00  0.00    +0.000 N 
ATOM     21  H   UNL     1      49.832   6.591  13.757  0.00  0.00    +0.000 HD
BRANCH  18  29
ATOM     22  C   UNL     1      50.046   4.393  17.130  0.00  0.00    +0.000 A 
ATOM     23  N   UNL     1      50.565   3.317  17.753  0.00  0.00    +0.000 NA
ATOM     24  C   UNL     1      51.847   3.361  18.121  0.00  0.00    +0.000 A 
ATOM     25  N   UNL     1      52.696   4.366  17.941  0.00  0.00    +0.000 NA
ATOM     26  C   UNL     1      52.143   5.415  17.308  0.00  0.00    +0.000 A 
ATOM     27  S   UNL     1      53.083   6.794  16.999  0.00  0.00    +0.000 S 
ATOM     28  C   UNL     1      51.775   7.579  16.255  0.00  0.00    +0.000 A 
ATOM     29  C   UNL     1      50.608   6.824  16.220  0.00  0.00    +0.000 A 
ATOM     30  C   UNL     1      50.831   5.526  16.855  0.00  0.00    +0.000 A 
BRANCH  22  32
ATOM     31  C   UNL     1      47.827   4.699  17.780  0.00  0.00    +0.000 C 
ATOM     32  O   UNL     1      48.726   4.333  16.734  0.00  0.00    +0.000 OA
ENDBRANCH  22  32
ENDBRANCH  18  29
ENDBRANCH   1  20
TORSDOF 8
ENDMDL
MODEL 6
REMARK VINA RESULT:    -7.063      2.866      4.487
REMARK INTER + INTRA:         -10.766
REMARK INTER:                  -9.596
REMARK INTRA:                  -1.171
REMARK UNBOUND:                -0.400
REMARK  Name = 
REMARK  9 active torsions:
REMARK  status: ('A' for Active; 'I' for Inactive)
REMARK    1  A    between atoms: C_1  and  O_2
REMARK    2  A    between atoms: O_2  and  C_3
REMARK    3  A    between atoms: C_10  and  C_11
REMARK    4  A    between atoms: N_13  and  C_14
REMARK    5  A    between atoms: C_14  and  C_15
REMARK    6  A    between atoms: C_18  and  C_19
REMARK    7  A    between atoms: C_19  and  N_20
REMARK    8  A    between atoms: N_20  and  C_21
REMARK    9  A    between atoms: C_21  and  C_22
REMARK                            x       y       z     vdW  Elec       q    Type
REMARK                         _______ _______ _______ _____ _____    ______ ____
ROOT
ATOM      1  C   UNL     1      47.935   5.975  15.008  0.00  0.00    +0.000 C 
ENDROOT
BRANCH   1   2
ATOM      2  C   UNL     1      47.010   5.636  13.869  0.00  0.00    +0.000 A 
ATOM      3  C   UNL     1      46.457   4.355  13.766  0.00  0.00    +0.000 A 
ATOM      4  C   UNL     1      45.634   4.024  12.689  0.00  0.00    +0.000 A 
ATOM      5  C   UNL     1      45.309   4.973  11.712  0.00  0.00    +0.000 A 
ATOM      6  C   UNL     1      45.895   6.245  11.799  0.00  0.00    +0.000 A 
ATOM      7  C   UNL     1      46.740   6.572  12.863  0.00  0.00    +0.000 A 
BRANCH   5   8
ATOM      8  C   UNL     1      44.380   4.666  10.554  0.00  0.00    +0.000 C 
BRANCH   8   9
ATOM      9  N   UNL     1      44.781   3.547   9.694  0.00  0.00    +0.000 NA
ATOM     10  H   UNL     1      44.120   2.781   9.798  0.00  0.00    +0.000 HD
BRANCH   9  11
ATOM     11  C   UNL     1      44.913   3.930   8.286  0.00  0.00    +0.000 C 
BRANCH  11  12
ATOM     12  C   UNL     1      45.640   2.843   7.478  0.00  0.00    +0.000 C 
ATOM     13  C   UNL     1      46.028   1.631   8.336  0.00  0.00    +0.000 C 
ATOM     14  C   UNL     1      46.888   0.659   7.541  0.00  0.00    +0.000 C 
ATOM     15  O   UNL     1      48.044   1.313   7.020  0.00  0.00    +0.000 OA
ATOM     16  C   UNL     1      47.705   2.361   6.115  0.00  0.00    +0.000 C 
ATOM     17  C   UNL     1      46.893   3.438   6.818  0.00  0.00    +0.000 C 
ENDBRANCH  11  12
ENDBRANCH   9  11
ENDBRANCH   8   9
ENDBRANCH   5   8
ENDBRANCH   1   2
BRANCH   1  20
ATOM     18  C   UNL     1      49.793   7.578  15.113  0.00  0.00    +0.000 C 
ATOM     19  O   UNL     1      49.313   8.110  16.115  0.00  0.00    +0.000 OA
ATOM     20  N   UNL     1      49.171   6.521  14.510  0.00  0.00    +0.000 N 
ATOM     21  H   UNL     1      49.548   6.128  13.657  0.00  0.00    +0.000 HD
BRANCH  18  29
ATOM     22  C   UNL     1      50.660   8.763  11.994  0.00  0.00    +0.000 A 
ATOM     23  N   UNL     1      51.264   9.255  10.895  0.00  0.00    +0.000 NA
ATOM     24  C   UNL     1      52.571   9.522  10.960  0.00  0.00    +0.000 A 
ATOM     25  N   UNL     1      53.367   9.357  12.011  0.00  0.00    +0.000 NA
ATOM     26  C   UNL     1      52.725   8.876  13.088  0.00  0.00    +0.000 A 
ATOM     27  S   UNL     1      53.591   8.597  14.521  0.00  0.00    +0.000 S 
ATOM     28  C   UNL     1      52.197   8.040  15.313  0.00  0.00    +0.000 A 
ATOM     29  C   UNL     1      51.054   8.053  14.523  0.00  0.00    +0.000 A 
ATOM     30  C   UNL     1      51.374   8.554  13.187  0.00  0.00    +0.000 A 
BRANCH  22  32
ATOM     31  C   UNL     1      48.521   9.679  12.153  0.00  0.00    +0.000 C 
ATOM     32  O   UNL     1      49.305   8.510  11.925  0.00  0.00    +0.000 OA
ENDBRANCH  22  32
ENDBRANCH  18  29
ENDBRANCH   1  20
TORSDOF 8
ENDMDL
MODEL 7
REMARK VINA RESULT:    -6.964      2.621      3.793
REMARK INTER + INTRA:         -10.622
REMARK INTER:                  -9.550
REMARK INTRA:                  -1.072
REMARK UNBOUND:                -0.400
REMARK  Name = 
REMARK  9 active torsions:
REMARK  status: ('A' for Active; 'I' for Inactive)
REMARK    1  A    between atoms: C_1  and  O_2
REMARK    2  A    between atoms: O_2  and  C_3
REMARK    3  A    between atoms: C_10  and  C_11
REMARK    4  A    between atoms: N_13  and  C_14
REMARK    5  A    between atoms: C_14  and  C_15
REMARK    6  A    between atoms: C_18  and  C_19
REMARK    7  A    between atoms: C_19  and  N_20
REMARK    8  A    between atoms: N_20  and  C_21
REMARK    9  A    between atoms: C_21  and  C_22
REMARK                            x       y       z     vdW  Elec       q    Type
REMARK                         _______ _______ _______ _____ _____    ______ ____
ROOT
ATOM      1  C   UNL     1      47.745   4.866  15.647  0.00  0.00    +0.000 C 
ENDROOT
BRANCH   1   2
ATOM      2  C   UNL     1      47.055   4.898  14.309  0.00  0.00    +0.000 A 
ATOM      3  C   UNL     1      46.489   3.734  13.777  0.00  0.00    +0.000 A 
ATOM      4  C   UNL     1      45.887   3.749  12.519  0.00  0.00    +0.000 A 
ATOM      5  C   UNL     1      45.798   4.935  11.778  0.00  0.00    +0.000 A 
ATOM      6  C   UNL     1      46.399   6.091  12.297  0.00  0.00    +0.000 A 
ATOM      7  C   UNL     1      47.024   6.072  13.547  0.00  0.00    +0.000 A 
BRANCH   5   8
ATOM      8  C   UNL     1      45.109   5.002  10.428  0.00  0.00    +0.000 C 
BRANCH   8   9
ATOM      9  N   UNL     1      45.016   3.735   9.695  0.00  0.00    +0.000 NA
ATOM     10  H   UNL     1      44.247   3.182  10.064  0.00  0.00    +0.000 HD
BRANCH   9  11
ATOM     11  C   UNL     1      44.871   3.924   8.250  0.00  0.00    +0.000 C 
BRANCH  11  12
ATOM     12  C   UNL     1      45.622   2.834   7.467  0.00  0.00    +0.000 C 
ATOM     13  C   UNL     1      46.035   1.651   8.353  0.00  0.00    +0.000 C 
ATOM     14  C   UNL     1      46.917   0.680   7.581  0.00  0.00    +0.000 C 
ATOM     15  O   UNL     1      48.059   1.346   7.045  0.00  0.00    +0.000 OA
ATOM     16  C   UNL     1      47.698   2.365   6.116  0.00  0.00    +0.000 C 
ATOM     17  C   UNL     1      46.863   3.441   6.794  0.00  0.00    +0.000 C 
ENDBRANCH  11  12
ENDBRANCH   9  11
ENDBRANCH   8   9
ENDBRANCH   5   8
ENDBRANCH   1   2
BRANCH   1  20
ATOM     18  C   UNL     1      49.803   5.960  16.419  0.00  0.00    +0.000 C 
ATOM     19  O   UNL     1      50.240   4.892  16.852  0.00  0.00    +0.000 OA
ATOM     20  N   UNL     1      48.580   6.027  15.812  0.00  0.00    +0.000 N 
ATOM     21  H   UNL     1      48.211   6.918  15.510  0.00  0.00    +0.000 HD
BRANCH  18  29
ATOM     22  C   UNL     1      49.106   9.081  17.705  0.00  0.00    +0.000 A 
ATOM     23  N   UNL     1      49.109  10.361  18.128  0.00  0.00    +0.000 NA
ATOM     24  C   UNL     1      50.212  11.086  17.933  0.00  0.00    +0.000 A 
ATOM     25  N   UNL     1      51.340  10.685  17.357  0.00  0.00    +0.000 NA
ATOM     26  C   UNL     1      51.300   9.402  16.959  0.00  0.00    +0.000 A 
ATOM     27  S   UNL     1      52.656   8.722  16.196  0.00  0.00    +0.000 S 
ATOM     28  C   UNL     1      51.868   7.228  16.020  0.00  0.00    +0.000 A 
ATOM     29  C   UNL     1      50.576   7.207  16.532  0.00  0.00    +0.000 A 
ATOM     30  C   UNL     1      50.237   8.513  17.093  0.00  0.00    +0.000 A 
BRANCH  22  32
ATOM     31  C   UNL     1      47.234   8.786  19.064  0.00  0.00    +0.000 C 
ATOM     32  O   UNL     1      47.970   8.332  17.929  0.00  0.00    +0.000 OA
ENDBRANCH  22  32
ENDBRANCH  18  29
ENDBRANCH   1  20
TORSDOF 8
ENDMDL
MODEL 8
REMARK VINA RESULT:    -6.697      3.893      9.042
REMARK INTER + INTRA:         -10.230
REMARK INTER:                  -8.046
REMARK INTRA:                  -2.184
REMARK UNBOUND:                -0.400
REMARK  Name = 
REMARK  9 active torsions:
REMARK  status: ('A' for Active; 'I' for Inactive)
REMARK    1  A    between atoms: C_1  and  O_2
REMARK    2  A    between atoms: O_2  and  C_3
REMARK    3  A    between atoms: C_10  and  C_11
REMARK    4  A    between atoms: N_13  and  C_14
REMARK    5  A    between atoms: C_14  and  C_15
REMARK    6  A    between atoms: C_18  and  C_19
REMARK    7  A    between atoms: C_19  and  N_20
REMARK    8  A    between atoms: N_20  and  C_21
REMARK    9  A    between atoms: C_21  and  C_22
REMARK                            x       y       z     vdW  Elec       q    Type
REMARK                         _______ _______ _______ _____ _____    ______ ____
ROOT
ATOM      1  C   UNL     1      47.632   3.823  16.110  0.00  0.00    +0.000 C 
ENDROOT
BRANCH   1   2
ATOM      2  C   UNL     1      48.028   4.673  17.288  0.00  0.00    +0.000 A 
ATOM      3  C   UNL     1      49.371   5.003  17.501  0.00  0.00    +0.000 A 
ATOM      4  C   UNL     1      49.747   5.754  18.615  0.00  0.00    +0.000 A 
ATOM      5  C   UNL     1      48.790   6.228  19.521  0.00  0.00    +0.000 A 
ATOM      6  C   UNL     1      47.450   5.863  19.325  0.00  0.00    +0.000 A 
ATOM      7  C   UNL     1      47.073   5.090  18.223  0.00  0.00    +0.000 A 
BRANCH   5   8
ATOM      8  C   UNL     1      49.155   7.087  20.717  0.00  0.00    +0.000 C 
BRANCH   8   9
ATOM      9  N   UNL     1      49.717   8.406  20.408  0.00  0.00    +0.000 NA
ATOM     10  H   UNL     1      50.477   8.306  19.740  0.00  0.00    +0.000 HD
BRANCH   9  11
ATOM     11  C   UNL     1      48.713   9.350  19.912  0.00  0.00    +0.000 C 
BRANCH  11  12
ATOM     12  C   UNL     1      49.040   9.813  18.483  0.00  0.00    +0.000 C 
ATOM     13  C   UNL     1      48.068   9.241  17.442  0.00  0.00    +0.000 C 
ATOM     14  C   UNL     1      48.525   9.585  16.031  0.00  0.00    +0.000 C 
ATOM     15  O   UNL     1      49.856   9.126  15.801  0.00  0.00    +0.000 OA
ATOM     16  C   UNL     1      50.796   9.748  16.675  0.00  0.00    +0.000 C 
ATOM     17  C   UNL     1      50.481   9.417  18.127  0.00  0.00    +0.000 C 
ENDBRANCH  11  12
ENDBRANCH   9  11
ENDBRANCH   8   9
ENDBRANCH   5   8
ENDBRANCH   1   2
BRANCH   1  20
ATOM     18  C   UNL     1      46.444   4.091  13.977  0.00  0.00    +0.000 C 
ATOM     19  O   UNL     1      46.840   2.991  13.587  0.00  0.00    +0.000 OA
ATOM     20  N   UNL     1      46.793   4.570  15.208  0.00  0.00    +0.000 N 
ATOM     21  H   UNL     1      46.505   5.497  15.494  0.00  0.00    +0.000 HD
BRANCH  18  29
ATOM     22  C   UNL     1      46.565   7.398  13.011  0.00  0.00    +0.000 A 
ATOM     23  N   UNL     1      46.368   8.624  12.487  0.00  0.00    +0.000 NA
ATOM     24  C   UNL     1      45.289   8.817  11.725  0.00  0.00    +0.000 A 
ATOM     25  N   UNL     1      44.361   7.918  11.412  0.00  0.00    +0.000 NA
ATOM     26  C   UNL     1      44.600   6.708  11.945  0.00  0.00    +0.000 A 
ATOM     27  S   UNL     1      43.512   5.439  11.653  0.00  0.00    +0.000 S 
ATOM     28  C   UNL     1      44.436   4.366  12.590  0.00  0.00    +0.000 A 
ATOM     29  C   UNL     1      45.579   4.935  13.138  0.00  0.00    +0.000 A 
ATOM     30  C   UNL     1      45.675   6.342  12.751  0.00  0.00    +0.000 A 
BRANCH  22  32
ATOM     31  C   UNL     1      48.879   7.107  12.993  0.00  0.00    +0.000 C 
ATOM     32  O   UNL     1      47.693   7.201  13.781  0.00  0.00    +0.000 OA
ENDBRANCH  22  32
ENDBRANCH  18  29
ENDBRANCH   1  20
TORSDOF 8
ENDMDL
MODEL 9
REMARK VINA RESULT:    -6.571      3.727      8.275
REMARK INTER + INTRA:         -10.044
REMARK INTER:                  -8.324
REMARK INTRA:                  -1.721
REMARK UNBOUND:                -0.400
REMARK  Name = 
REMARK  9 active torsions:
REMARK  status: ('A' for Active; 'I' for Inactive)
REMARK    1  A    between atoms: C_1  and  O_2
REMARK    2  A    between atoms: O_2  and  C_3
REMARK    3  A    between atoms: C_10  and  C_11
REMARK    4  A    between atoms: N_13  and  C_14
REMARK    5  A    between atoms: C_14  and  C_15
REMARK    6  A    between atoms: C_18  and  C_19
REMARK    7  A    between atoms: C_19  and  N_20
REMARK    8  A    between atoms: N_20  and  C_21
REMARK    9  A    between atoms: C_21  and  C_22
REMARK                            x       y       z     vdW  Elec       q    Type
REMARK                         _______ _______ _______ _____ _____    ______ ____
ROOT
ATOM      1  C   UNL     1      48.061   9.204  14.314  0.00  0.00    +0.000 C 
ENDROOT
BRANCH   1   2
ATOM      2  C   UNL     1      48.307   8.827  15.751  0.00  0.00    +0.000 A 
ATOM      3  C   UNL     1      48.185   9.784  16.764  0.00  0.00    +0.000 A 
ATOM      4  C   UNL     1      48.453   9.449  18.091  0.00  0.00    +0.000 A 
ATOM      5  C   UNL     1      48.809   8.142  18.446  0.00  0.00    +0.000 A 
ATOM      6  C   UNL     1      48.967   7.194  17.424  0.00  0.00    +0.000 A 
ATOM      7  C   UNL     1      48.722   7.533  16.091  0.00  0.00    +0.000 A 
BRANCH   5   8
ATOM      8  C   UNL     1      49.062   7.728  19.884  0.00  0.00    +0.000 C 
BRANCH   8   9
ATOM      9  N   UNL     1      48.596   6.386  20.252  0.00  0.00    +0.000 NA
ATOM     10  H   UNL     1      48.129   5.956  19.458  0.00  0.00    +0.000 HD
BRANCH   9  11
ATOM     11  C   UNL     1      49.672   5.527  20.749  0.00  0.00    +0.000 C 
BRANCH  11  12
ATOM     12  C   UNL     1      50.005   4.411  19.745  0.00  0.00    +0.000 C 
ATOM     13  C   UNL     1      51.118   4.811  18.768  0.00  0.00    +0.000 C 
ATOM     14  C   UNL     1      51.299   3.750  17.691  0.00  0.00    +0.000 C 
ATOM     15  O   UNL     1      50.072   3.509  17.004  0.00  0.00    +0.000 OA
ATOM     16  C   UNL     1      49.059   3.010  17.874  0.00  0.00    +0.000 C 
ATOM     17  C   UNL     1      48.739   4.022  18.965  0.00  0.00    +0.000 C 
ENDBRANCH  11  12
ENDBRANCH   9  11
ENDBRANCH   8   9
ENDBRANCH   5   8
ENDBRANCH   1   2
BRANCH   1  20
ATOM     18  C   UNL     1      47.081   7.475  12.871  0.00  0.00    +0.000 C 
ATOM     19  O   UNL     1      48.196   7.151  12.457  0.00  0.00    +0.000 OA
ATOM     20  N   UNL     1      46.934   8.479  13.787  0.00  0.00    +0.000 N 
ATOM     21  H   UNL     1      46.010   8.771  14.077  0.00  0.00    +0.000 HD
BRANCH  18  29
ATOM     22  C   UNL     1      45.982   4.210  12.990  0.00  0.00    +0.000 A 
ATOM     23  N   UNL     1      45.316   3.042  12.902  0.00  0.00    +0.000 NA
ATOM     24  C   UNL     1      44.125   3.040  12.297  0.00  0.00    +0.000 A 
ATOM     25  N   UNL     1      43.502   4.082  11.759  0.00  0.00    +0.000 NA
ATOM     26  C   UNL     1      44.194   5.228  11.876  0.00  0.00    +0.000 A 
ATOM     27  S   UNL     1      43.548   6.661  11.237  0.00  0.00    +0.000 S 
ATOM     28  C   UNL     1      44.901   7.554  11.742  0.00  0.00    +0.000 A 
ATOM     29  C   UNL     1      45.863   6.797  12.402  0.00  0.00    +0.000 A 
ATOM     30  C   UNL     1      45.436   5.401  12.480  0.00  0.00    +0.000 A 
BRANCH  22  32
ATOM     31  C   UNL     1      47.073   4.393  15.043  0.00  0.00    +0.000 C 
ATOM     32  O   UNL     1      47.202   4.208  13.634  0.00  0.00    +0.000 OA
ENDBRANCH  22  32
ENDBRANCH  18  29
ENDBRANCH   1  20
TORSDOF 8
ENDMDL
