MODEL 1
REMARK VINA RESULT:    -7.232      0.000      0.000
REMARK INTER + INTRA:          -9.266
REMARK INTER:                  -8.923
REMARK INTRA:                  -0.343
REMARK UNBOUND:                -0.343
REMARK  Name = 
REMARK  4 active torsions:
REMARK  status: ('A' for Active; 'I' for Inactive)
REMARK    1  A    between atoms: C_5  and  N_6
REMARK    2  A    between atoms: N_6  and  C_7
REMARK    3  A    between atoms: C_7  and  C_8
REMARK    4  A    between atoms: C_12  and  C_13
REMARK                            x       y       z     vdW  Elec       q    Type
REMARK                         _______ _______ _______ _____ _____    ______ ____
ROOT
ATOM      1  C   UNL     1      44.679   3.886  11.054  0.00  0.00    +0.000 C 
ATOM      2  C   UNL     1      43.364   4.510  10.578  0.00  0.00    +0.000 C 
ATOM      3  C   UNL     1      43.036   5.775  11.357  0.00  0.00    +0.000 C 
ATOM      4  C   UNL     1      43.125   5.501  12.856  0.00  0.00    +0.000 C 
ATOM      5  C   UNL     1      44.506   4.936  13.230  0.00  0.00    +0.000 C 
ATOM      6  O   UNL     1      44.706   3.715  12.482  0.00  0.00    +0.000 OA
ENDROOT
BRANCH   5   7
ATOM      7  C   UNL     1      45.677   5.903  13.075  0.00  0.00    +0.000 A 
ATOM      8  C   UNL     1      45.490   7.254  12.744  0.00  0.00    +0.000 A 
ATOM      9  C   UNL     1      46.599   8.037  12.466  0.00  0.00    +0.000 A 
ATOM     10  N   UNL     1      47.869   7.587  12.520  0.00  0.00    +0.000 NA
ATOM     11  C   UNL     1      48.039   6.310  12.916  0.00  0.00    +0.000 A 
ATOM     12  C   UNL     1      46.996   5.455  13.233  0.00  0.00    +0.000 A 
ENDBRANCH   5   7
BRANCH   1  13
ATOM     13  C   UNL     1      44.940   2.520  10.375  0.00  0.00    +0.000 C 
BRANCH  13  14
ATOM     14  N   UNL     1      44.674   2.620   8.945  0.00  0.00    +0.000 N 
ATOM     15  H   UNL     1      44.009   3.349   8.697  0.00  0.00    +0.000 HD
BRANCH  14  20
ATOM     16  C   UNL     1      47.089   3.224   6.174  0.00  0.00    +0.000 A 
ATOM     17  C   UNL     1      47.782   2.026   6.250  0.00  0.00    +0.000 A 
ATOM     18  N   UNL     1      47.477   1.050   7.129  0.00  0.00    +0.000 NA
ATOM     19  C   UNL     1      46.437   1.301   7.962  0.00  0.00    +0.000 A 
ATOM     20  C   UNL     1      45.653   2.463   7.971  0.00  0.00    +0.000 A 
ATOM     21  C   UNL     1      46.023   3.443   7.052  0.00  0.00    +0.000 A 
ENDBRANCH  14  20
ENDBRANCH  13  14
ENDBRANCH   1  13
TORSDOF 4
ENDMDL
MODEL 2
REMARK VINA RESULT:    -6.820      1.654      6.148
REMARK INTER + INTRA:          -8.757
REMARK INTER:                  -8.363
REMARK INTRA:                  -0.394
REMARK UNBOUND:                -0.343
REMARK  Name = 
REMARK  4 active torsions:
REMARK  status: ('A' for Active; 'I' for Inactive)
REMARK    1  A    between atoms: C_5  and  N_6
REMARK    2  A    between atoms: N_6  and  C_7
REMARK    3  A    between atoms: C_7  and  C_8
REMARK    4  A    between atoms: C_12  and  C_13
REMARK                            x       y       z     vdW  Elec       q    Type
REMARK                         _______ _______ _______ _____ _____    ______ ____
ROOT
ATOM      1  C   UNL     1      45.105   5.417  11.547  0.00  0.00    +0.000 C 
ATOM      2  C   UNL     1      44.950   4.532  12.787  0.00  0.00    +0.000 C 
ATOM      3  C   UNL     1      44.630   3.094  12.407  0.00  0.00    +0.000 C 
ATOM      4  C   UNL     1      43.458   3.061  11.430  0.00  0.00    +0.000 C 
ATOM      5  C   UNL     1      43.747   3.933  10.197  0.00  0.00    +0.000 C 
ATOM      6  O   UNL     1      43.987   5.284  10.651  0.00  0.00    +0.000 OA
ENDROOT
BRANCH   5   7
ATOM      7  C   UNL     1      44.859   3.429   9.280  0.00  0.00    +0.000 A 
ATOM      8  C   UNL     1      45.564   4.285   8.422  0.00  0.00    +0.000 A 
ATOM      9  C   UNL     1      46.450   3.739   7.507  0.00  0.00    +0.000 A 
ATOM     10  N   UNL     1      46.705   2.419   7.404  0.00  0.00    +0.000 NA
ATOM     11  C   UNL     1      46.081   1.615   8.287  0.00  0.00    +0.000 A 
ATOM     12  C   UNL     1      45.193   2.068   9.249  0.00  0.00    +0.000 A 
ENDBRANCH   5   7
BRANCH   1  13
ATOM     13  C   UNL     1      45.275   6.906  11.928  0.00  0.00    +0.000 C 
BRANCH  13  14
ATOM     14  N   UNL     1      46.089   7.018  13.132  0.00  0.00    +0.000 N 
ATOM     15  H   UNL     1      45.821   6.376  13.875  0.00  0.00    +0.000 HD
BRANCH  14  20
ATOM     16  C   UNL     1      49.505   8.220  12.258  0.00  0.00    +0.000 A 
ATOM     17  C   UNL     1      50.175   7.741  13.371  0.00  0.00    +0.000 A 
ATOM     18  N   UNL     1      49.572   7.038  14.352  0.00  0.00    +0.000 NA
ATOM     19  C   UNL     1      48.243   6.819  14.198  0.00  0.00    +0.000 A 
ATOM     20  C   UNL     1      47.461   7.237  13.112  0.00  0.00    +0.000 A 
ATOM     21  C   UNL     1      48.134   7.971  12.137  0.00  0.00    +0.000 A 
ENDBRANCH  14  20
ENDBRANCH  13  14
ENDBRANCH   1  13
TORSDOF 4
ENDMDL
MODEL 3
REMARK VINA RESULT:    -6.661      2.517      6.691
REMARK INTER + INTRA:          -8.561
REMARK INTER:                  -8.239
REMARK INTRA:                  -0.322
REMARK UNBOUND:                -0.343
REMARK  Name = 
REMARK  4 active torsions:
REMARK  status: ('A' for Active; 'I' for Inactive)
REMARK    1  A    between atoms: C_5  and  N_6
REMARK    2  A    between atoms: N_6  and  C_7
REMARK    3  A    between atoms: C_7  and  C_8
REMARK    4  A    between atoms: C_12  and  C_13
REMARK                            x       y       z     vdW  Elec       q    Type
REMARK                         _______ _______ _______ _____ _____    ______ ____
ROOT
ATOM      1  C   UNL     1      45.582   5.483  11.429  0.00  0.00    +0.000 C 
ATOM      2  C   UNL     1      45.454   4.644  12.704  0.00  0.00    +0.000 C 
ATOM      3  C   UNL     1      44.872   3.270  12.409  0.00  0.00    +0.000 C 
ATOM      4  C   UNL     1      43.594   3.411  11.587  0.00  0.00    +0.000 C 
ATOM      5  C   UNL     1      43.853   4.216  10.302  0.00  0.00    +0.000 C 
ATOM      6  O   UNL     1      44.353   5.517  10.684  0.00  0.00    +0.000 OA
ENDROOT
BRANCH   5   7
ATOM      7  C   UNL     1      44.749   3.536   9.269  0.00  0.00    +0.000 A 
ATOM      8  C   UNL     1      44.910   2.143   9.222  0.00  0.00    +0.000 A 
ATOM      9  C   UNL     1      45.856   1.605   8.364  0.00  0.00    +0.000 A 
ATOM     10  N   UNL     1      46.625   2.341   7.537  0.00  0.00    +0.000 NA
ATOM     11  C   UNL     1      46.405   3.671   7.535  0.00  0.00    +0.000 A 
ATOM     12  C   UNL     1      45.471   4.299   8.341  0.00  0.00    +0.000 A 
ENDBRANCH   5   7
BRANCH   1  13
ATOM     13  C   UNL     1      46.026   6.931  11.743  0.00  0.00    +0.000 C 
BRANCH  13  14
ATOM     14  N   UNL     1      44.879   7.713  12.190  0.00  0.00    +0.000 N 
ATOM     15  H   UNL     1      44.724   7.686  13.195  0.00  0.00    +0.000 HD
BRANCH  14  20
ATOM     16  C   UNL     1      43.208  10.439  10.277  0.00  0.00    +0.000 A 
ATOM     17  C   UNL     1      43.855  11.516  10.860  0.00  0.00    +0.000 A 
ATOM     18  N   UNL     1      44.807  11.384  11.806  0.00  0.00    +0.000 NA
ATOM     19  C   UNL     1      45.108  10.114  12.175  0.00  0.00    +0.000 A 
ATOM     20  C   UNL     1      44.536   8.947  11.649  0.00  0.00    +0.000 A 
ATOM     21  C   UNL     1      43.548   9.145  10.687  0.00  0.00    +0.000 A 
ENDBRANCH  14  20
ENDBRANCH  13  14
ENDBRANCH   1  13
TORSDOF 4
ENDMDL
MODEL 4
REMARK VINA RESULT:    -6.383      2.383      6.773
REMARK INTER + INTRA:          -8.219
REMARK INTER:                  -8.089
REMARK INTRA:                  -0.129
REMARK UNBOUND:                -0.343
REMARK  Name = 
REMARK  4 active torsions:
REMARK  status: ('A' for Active; 'I' for Inactive)
REMARK    1  A    between atoms: C_5  and  N_6
REMARK    2  A    between atoms: N_6  and  C_7
REMARK    3  A    between atoms: C_7  and  C_8
REMARK    4  A    between atoms: C_12  and  C_13
REMARK                            x       y       z     vdW  Elec       q    Type
REMARK                         _______ _______ _______ _____ _____    ______ ____
ROOT
ATOM      1  C   UNL     1      45.674   4.886  12.149  0.00  0.00    +0.000 C 
ATOM      2  C   UNL     1      44.794   4.109  13.131  0.00  0.00    +0.000 C 
ATOM      3  C   UNL     1      43.748   3.278  12.403  0.00  0.00    +0.000 C 
ATOM      4  C   UNL     1      42.996   4.150  11.400  0.00  0.00    +0.000 C 
ATOM      5  C   UNL     1      43.972   4.832  10.426  0.00  0.00    +0.000 C 
ATOM      6  O   UNL     1      44.890   5.634  11.202  0.00  0.00    +0.000 OA
ENDROOT
BRANCH   5   7
ATOM      7  C   UNL     1      44.699   3.898   9.461  0.00  0.00    +0.000 A 
ATOM      8  C   UNL     1      44.599   2.502   9.557  0.00  0.00    +0.000 A 
ATOM      9  C   UNL     1      45.406   1.714   8.751  0.00  0.00    +0.000 A 
ATOM     10  N   UNL     1      46.275   2.207   7.847  0.00  0.00    +0.000 NA
ATOM     11  C   UNL     1      46.304   3.548   7.709  0.00  0.00    +0.000 A 
ATOM     12  C   UNL     1      45.524   4.417   8.454  0.00  0.00    +0.000 A 
ENDBRANCH   5   7
BRANCH   1  13
ATOM     13  C   UNL     1      46.635   5.850  12.885  0.00  0.00    +0.000 C 
BRANCH  13  14
ATOM     14  N   UNL     1      46.671   5.522  14.305  0.00  0.00    +0.000 N 
ATOM     15  H   UNL     1      46.154   4.680  14.550  0.00  0.00    +0.000 HD
BRANCH  14  20
ATOM     16  C   UNL     1      49.783   6.842  15.870  0.00  0.00    +0.000 A 
ATOM     17  C   UNL     1      49.867   5.952  16.927  0.00  0.00    +0.000 A 
ATOM     18  N   UNL     1      48.985   4.950  17.123  0.00  0.00    +0.000 NA
ATOM     19  C   UNL     1      47.981   4.855  16.216  0.00  0.00    +0.000 A 
ATOM     20  C   UNL     1      47.800   5.683  15.100  0.00  0.00    +0.000 A 
ATOM     21  C   UNL     1      48.732   6.708  14.957  0.00  0.00    +0.000 A 
ENDBRANCH  14  20
ENDBRANCH  13  14
ENDBRANCH   1  13
TORSDOF 4
ENDMDL
MODEL 5
REMARK VINA RESULT:    -5.903      1.985      6.920
REMARK INTER + INTRA:          -7.626
REMARK INTER:                  -7.379
REMARK INTRA:                  -0.247
REMARK UNBOUND:                -0.343
REMARK  Name = 
REMARK  4 active torsions:
REMARK  status: ('A' for Active; 'I' for Inactive)
REMARK    1  A    between atoms: C_5  and  N_6
REMARK    2  A    between atoms: N_6  and  C_7
REMARK    3  A    between atoms: C_7  and  C_8
REMARK    4  A    between atoms: C_12  and  C_13
REMARK                            x       y       z     vdW  Elec       q    Type
REMARK                         _______ _______ _______ _____ _____    ______ ____
ROOT
ATOM      1  C   UNL     1      45.571   5.785  11.612  0.00  0.00    +0.000 C 
ATOM      2  C   UNL     1      45.952   5.035  12.892  0.00  0.00    +0.000 C 
ATOM      3  C   UNL     1      45.623   3.553  12.786  0.00  0.00    +0.000 C 
ATOM      4  C   UNL     1      44.178   3.372  12.327  0.00  0.00    +0.000 C 
ATOM      5  C   UNL     1      43.925   4.115  11.005  0.00  0.00    +0.000 C 
ATOM      6  O   UNL     1      44.214   5.515  11.217  0.00  0.00    +0.000 OA
ENDROOT
BRANCH   5   7
ATOM      7  C   UNL     1      44.654   3.556   9.785  0.00  0.00    +0.000 A 
ATOM      8  C   UNL     1      44.835   2.178   9.592  0.00  0.00    +0.000 A 
ATOM      9  C   UNL     1      45.639   1.746   8.549  0.00  0.00    +0.000 A 
ATOM     10  N   UNL     1      46.246   2.575   7.676  0.00  0.00    +0.000 NA
ATOM     11  C   UNL     1      45.999   3.891   7.824  0.00  0.00    +0.000 A 
ATOM     12  C   UNL     1      45.197   4.418   8.822  0.00  0.00    +0.000 A 
ENDBRANCH   5   7
BRANCH   1  13
ATOM     13  C   UNL     1      45.758   7.313  11.771  0.00  0.00    +0.000 C 
BRANCH  13  14
ATOM     14  N   UNL     1      46.109   7.627  13.150  0.00  0.00    +0.000 N 
ATOM     15  H   UNL     1      46.126   6.819  13.769  0.00  0.00    +0.000 HD
BRANCH  14  20
ATOM     16  C   UNL     1      48.961   9.382  14.782  0.00  0.00    +0.000 A 
ATOM     17  C   UNL     1      49.070  10.446  13.901  0.00  0.00    +0.000 A 
ATOM     18  N   UNL     1      48.251  10.617  12.843  0.00  0.00    +0.000 NA
ATOM     19  C   UNL     1      47.293   9.672  12.672  0.00  0.00    +0.000 A 
ATOM     20  C   UNL     1      47.075   8.564  13.501  0.00  0.00    +0.000 A 
ATOM     21  C   UNL     1      47.959   8.430  14.569  0.00  0.00    +0.000 A 
ENDBRANCH  14  20
ENDBRANCH  13  14
ENDBRANCH   1  13
TORSDOF 4
ENDMDL
MODEL 6
REMARK VINA RESULT:    -5.822      4.009      7.476
REMARK INTER + INTRA:          -7.526
REMARK INTER:                  -6.925
REMARK INTRA:                  -0.601
REMARK UNBOUND:                -0.343
REMARK  Name = 
REMARK  4 active torsions:
REMARK  status: ('A' for Active; 'I' for Inactive)
REMARK    1  A    between atoms: C_5  and  N_6
REMARK    2  A    between atoms: N_6  and  C_7
REMARK    3  A    between atoms: C_7  and  C_8
REMARK    4  A    between atoms: C_12  and  C_13
REMARK                            x       y       z     vdW  Elec       q    Type
REMARK                         _______ _______ _______ _____ _____    ______ ____
ROOT
ATOM      1  C   UNL     1      48.428   7.619  14.743  0.00  0.00    +0.000 C 
ATOM      2  C   UNL     1      48.583   9.011  14.123  0.00  0.00    +0.000 C 
ATOM      3  C   UNL     1      48.131   9.025  12.670  0.00  0.00    +0.000 C 
ATOM      4  C   UNL     1      48.803   7.889  11.904  0.00  0.00    +0.000 C 
ATOM      5  C   UNL     1      48.531   6.534  12.580  0.00  0.00    +0.000 C 
ATOM      6  O   UNL     1      49.037   6.600  13.932  0.00  0.00    +0.000 OA
ENDROOT
BRANCH   5   7
ATOM      7  C   UNL     1      47.082   6.054  12.532  0.00  0.00    +0.000 A 
ATOM      8  C   UNL     1      46.532   5.239  13.534  0.00  0.00    +0.000 A 
ATOM      9  C   UNL     1      45.264   4.713  13.349  0.00  0.00    +0.000 A 
ATOM     10  N   UNL     1      44.498   4.958  12.267  0.00  0.00    +0.000 NA
ATOM     11  C   UNL     1      45.005   5.806  11.351  0.00  0.00    +0.000 A 
ATOM     12  C   UNL     1      46.254   6.396  11.454  0.00  0.00    +0.000 A 
ENDBRANCH   5   7
BRANCH   1  13
ATOM     13  C   UNL     1      49.029   7.561  16.168  0.00  0.00    +0.000 C 
BRANCH  13  14
ATOM     14  N   UNL     1      48.217   6.692  17.011  0.00  0.00    +0.000 N 
ATOM     15  H   UNL     1      47.227   6.927  17.019  0.00  0.00    +0.000 HD
BRANCH  14  20
ATOM     16  C   UNL     1      47.736   2.998  17.050  0.00  0.00    +0.000 A 
ATOM     17  C   UNL     1      49.066   2.626  17.144  0.00  0.00    +0.000 A 
ATOM     18  N   UNL     1      50.080   3.513  17.221  0.00  0.00    +0.000 NA
ATOM     19  C   UNL     1      49.728   4.822  17.196  0.00  0.00    +0.000 A 
ATOM     20  C   UNL     1      48.421   5.321  17.119  0.00  0.00    +0.000 A 
ATOM     21  C   UNL     1      47.417   4.360  17.027  0.00  0.00    +0.000 A 
ENDBRANCH  14  20
ENDBRANCH  13  14
ENDBRANCH   1  13
TORSDOF 4
ENDMDL
MODEL 7
REMARK VINA RESULT:    -5.400      4.459      6.686
REMARK INTER + INTRA:          -7.006
REMARK INTER:                  -6.735
REMARK INTRA:                  -0.271
REMARK UNBOUND:                -0.343
REMARK  Name = 
REMARK  4 active torsions:
REMARK  status: ('A' for Active; 'I' for Inactive)
REMARK    1  A    between atoms: C_5  and  N_6
REMARK    2  A    between atoms: N_6  and  C_7
REMARK    3  A    between atoms: C_7  and  C_8
REMARK    4  A    between atoms: C_12  and  C_13
REMARK                            x       y       z     vdW  Elec       q    Type
REMARK                         _______ _______ _______ _____ _____    ______ ____
ROOT
ATOM      1  C   UNL     1      47.848   4.668  15.344  0.00  0.00    +0.000 C 
ATOM      2  C   UNL     1      48.144   6.162  15.182  0.00  0.00    +0.000 C 
ATOM      3  C   UNL     1      49.113   6.654  16.247  0.00  0.00    +0.000 C 
ATOM      4  C   UNL     1      48.626   6.230  17.630  0.00  0.00    +0.000 C 
ATOM      5  C   UNL     1      48.421   4.708  17.697  0.00  0.00    +0.000 C 
ATOM      6  O   UNL     1      47.452   4.343  16.688  0.00  0.00    +0.000 OA
ENDROOT
BRANCH   5   7
ATOM      7  C   UNL     1      49.692   3.867  17.603  0.00  0.00    +0.000 A 
ATOM      8  C   UNL     1      49.669   2.520  17.214  0.00  0.00    +0.000 A 
ATOM      9  C   UNL     1      50.834   1.775  17.301  0.00  0.00    +0.000 A 
ATOM     10  N   UNL     1      52.016   2.275  17.716  0.00  0.00    +0.000 NA
ATOM     11  C   UNL     1      52.043   3.590  18.011  0.00  0.00    +0.000 A 
ATOM     12  C   UNL     1      50.937   4.420  17.937  0.00  0.00    +0.000 A 
ENDBRANCH   5   7
BRANCH   1  13
ATOM     13  C   UNL     1      46.748   4.197  14.363  0.00  0.00    +0.000 C 
BRANCH  13  14
ATOM     14  N   UNL     1      45.943   5.336  13.939  0.00  0.00    +0.000 N 
ATOM     15  H   UNL     1      46.400   6.237  14.062  0.00  0.00    +0.000 HD
BRANCH  14  20
ATOM     16  C   UNL     1      44.662   4.991  10.459  0.00  0.00    +0.000 A 
ATOM     17  C   UNL     1      43.310   5.123  10.730  0.00  0.00    +0.000 A 
ATOM     18  N   UNL     1      42.822   5.341  11.969  0.00  0.00    +0.000 NA
ATOM     19  C   UNL     1      43.739   5.423  12.965  0.00  0.00    +0.000 A 
ATOM     20  C   UNL     1      45.129   5.322  12.813  0.00  0.00    +0.000 A 
ATOM     21  C   UNL     1      45.574   5.082  11.515  0.00  0.00    +0.000 A 
ENDBRANCH  14  20
ENDBRANCH  13  14
ENDBRANCH   1  13
TORSDOF 4
ENDMDL
MODEL 8
REMARK VINA RESULT:    -5.393      1.996      3.305
REMARK INTER + INTRA:          -6.997
REMARK INTER:                  -6.658
REMARK INTRA:                  -0.339
REMARK UNBOUND:                -0.343
REMARK  Name = 
REMARK  4 active torsions:
REMARK  status: ('A' for Active; 'I' for Inactive)
REMARK    1  A    between atoms: C_5  and  N_6
REMARK    2  A    between atoms: N_6  and  C_7
REMARK    3  A    between atoms: C_7  and  C_8
REMARK    4  A    between atoms: C_12  and  C_13
REMARK                            x       y       z     vdW  Elec       q    Type
REMARK                         _______ _______ _______ _____ _____    ______ ____
ROOT
ATOM      1  C   UNL     1      45.472   6.316  12.382  0.00  0.00    +0.000 C 
ATOM      2  C   UNL     1      45.006   5.123  13.221  0.00  0.00    +0.000 C 
ATOM      3  C   UNL     1      46.035   4.752  14.279  0.00  0.00    +0.000 C 
ATOM      4  C   UNL     1      47.411   4.602  13.637  0.00  0.00    +0.000 C 
ATOM      5  C   UNL     1      47.803   5.878  12.874  0.00  0.00    +0.000 C 
ATOM      6  O   UNL     1      46.799   6.120  11.863  0.00  0.00    +0.000 OA
ENDROOT
BRANCH   5   7
ATOM      7  C   UNL     1      48.056   7.111  13.739  0.00  0.00    +0.000 A 
ATOM      8  C   UNL     1      47.825   8.412  13.269  0.00  0.00    +0.000 A 
ATOM      9  C   UNL     1      48.223   9.488  14.047  0.00  0.00    +0.000 A 
ATOM     10  N   UNL     1      48.800   9.366  15.259  0.00  0.00    +0.000 NA
ATOM     11  C   UNL     1      48.944   8.112  15.733  0.00  0.00    +0.000 A 
ATOM     12  C   UNL     1      48.562   6.976  15.039  0.00  0.00    +0.000 A 
ENDBRANCH   5   7
BRANCH   1  13
ATOM     13  C   UNL     1      44.504   6.599  11.209  0.00  0.00    +0.000 C 
BRANCH  13  14
ATOM     14  N   UNL     1      43.845   5.363  10.804  0.00  0.00    +0.000 N 
ATOM     15  H   UNL     1      42.839   5.452  10.676  0.00  0.00    +0.000 HD
BRANCH  14  20
ATOM     16  C   UNL     1      45.889   3.788   8.117  0.00  0.00    +0.000 A 
ATOM     17  C   UNL     1      45.552   2.466   8.360  0.00  0.00    +0.000 A 
ATOM     18  N   UNL     1      44.686   2.088   9.324  0.00  0.00    +0.000 NA
ATOM     19  C   UNL     1      44.149   3.087  10.067  0.00  0.00    +0.000 A 
ATOM     20  C   UNL     1      44.399   4.457   9.907  0.00  0.00    +0.000 A 
ATOM     21  C   UNL     1      45.312   4.787   8.907  0.00  0.00    +0.000 A 
ENDBRANCH  14  20
ENDBRANCH  13  14
ENDBRANCH   1  13
TORSDOF 4
ENDMDL
MODEL 9
REMARK VINA RESULT:    -5.302      4.746      6.778
REMARK INTER + INTRA:          -6.885
REMARK INTER:                  -6.620
REMARK INTRA:                  -0.265
REMARK UNBOUND:                -0.343
REMARK  Name = 
REMARK  4 active torsions:
REMARK  status: ('A' for Active; 'I' for Inactive)
REMARK    1  A    between atoms: C_5  and  N_6
REMARK    2  A    between atoms: N_6  and  C_7
REMARK    3  A    between atoms: C_7  and  C_8
REMARK    4  A    between atoms: C_12  and  C_13
REMARK                            x       y       z     vdW  Elec       q    Type
REMARK                         _______ _______ _______ _____ _____    ______ ____
ROOT
ATOM      1  C   UNL     1      47.666   4.740  15.990  0.00  0.00    +0.000 C 
ATOM      2  C   UNL     1      47.520   3.238  16.252  0.00  0.00    +0.000 C 
ATOM      3  C   UNL     1      48.128   2.846  17.590  0.00  0.00    +0.000 C 
ATOM      4  C   UNL     1      49.548   3.394  17.698  0.00  0.00    +0.000 C 
ATOM      5  C   UNL     1      49.568   4.916  17.479  0.00  0.00    +0.000 C 
ATOM      6  O   UNL     1      49.022   5.186  16.169  0.00  0.00    +0.000 OA
ENDROOT
BRANCH   5   7
ATOM      7  C   UNL     1      48.889   5.745  18.567  0.00  0.00    +0.000 A 
ATOM      8  C   UNL     1      48.683   5.250  19.863  0.00  0.00    +0.000 A 
ATOM      9  C   UNL     1      47.924   5.993  20.753  0.00  0.00    +0.000 A 
ATOM     10  N   UNL     1      47.385   7.194  20.461  0.00  0.00    +0.000 NA
ATOM     11  C   UNL     1      47.658   7.695  19.240  0.00  0.00    +0.000 A 
ATOM     12  C   UNL     1      48.420   7.037  18.289  0.00  0.00    +0.000 A 
ENDBRANCH   5   7
BRANCH   1  13
ATOM     13  C   UNL     1      47.191   5.119  14.567  0.00  0.00    +0.000 C 
BRANCH  13  14
ATOM     14  N   UNL     1      46.197   4.157  14.106  0.00  0.00    +0.000 N 
ATOM     15  H   UNL     1      45.707   3.674  14.856  0.00  0.00    +0.000 HD
BRANCH  14  20
ATOM     16  C   UNL     1      43.347   4.093  11.708  0.00  0.00    +0.000 A 
ATOM     17  C   UNL     1      43.768   5.113  10.871  0.00  0.00    +0.000 A 
ATOM     18  N   UNL     1      44.928   5.780  11.043  0.00  0.00    +0.000 NA
ATOM     19  C   UNL     1      45.682   5.400  12.105  0.00  0.00    +0.000 A 
ATOM     20  C   UNL     1      45.370   4.376  13.010  0.00  0.00    +0.000 A 
ATOM     21  C   UNL     1      44.155   3.732  12.791  0.00  0.00    +0.000 A 
ENDBRANCH  14  20
ENDBRANCH  13  14
ENDBRANCH   1  13
TORSDOF 4
ENDMDL
