MODEL 1
REMARK VINA RESULT:    -8.412      0.000      0.000
REMARK INTER + INTRA:         -11.585
REMARK INTER:                 -11.116
REMARK INTRA:                  -0.469
REMARK UNBOUND:                -0.469
REMARK  Name = 
REMARK  6 active torsions:
REMARK  status: ('A' for Active; 'I' for Inactive)
REMARK    1  A    between atoms: N_1  and  C_2
REMARK    2  A    between atoms: C_2  and  C_3
REMARK    3  A    between atoms: C_7  and  C_8
REMARK    4  A    between atoms: C_8  and  C_9
REMARK    5  A    between atoms: C_9  and  N_10
REMARK    6  A    between atoms: C_14  and  C_15
REMARK                            x       y       z     vdW  Elec       q    Type
REMARK                         _______ _______ _______ _____ _____    ______ ____
ROOT
ATOM      1  N   UNL     1      43.778   4.947   9.560  0.00  0.00    +0.000 N 
ATOM      2  C   UNL     1      44.563   3.969   8.953  0.00  0.00    +0.000 A 
ATOM      3  N   UNL     1      44.433   2.691   9.340  0.00  0.00    +0.000 NA
ATOM      4  C   UNL     1      45.272   1.784   8.801  0.00  0.00    +0.000 A 
ATOM      5  C   UNL     1      46.221   2.096   7.862  0.00  0.00    +0.000 A 
ATOM      6  C   UNL     1      46.262   3.422   7.500  0.00  0.00    +0.000 A 
ATOM      7  N   UNL     1      45.453   4.373   8.033  0.00  0.00    +0.000 NA
ATOM      8  H   UNL     1      44.264   5.828   9.430  0.00  0.00    +0.000 HD
ENDROOT
BRANCH   5   9
ATOM      9  C   UNL     1      47.132   1.052   7.374  0.00  0.00    +0.000 C 
ATOM     10  N   UNL     1      46.857  -0.248   7.686  0.00  0.00    +0.000 N 
ATOM     11  O   UNL     1      48.120   1.345   6.714  0.00  0.00    +0.000 OA
ATOM     12  H   UNL     1      46.119  -0.556   8.301  0.00  0.00    +0.000 HD
ATOM     13  H   UNL     1      47.531  -0.939   7.374  0.00  0.00    +0.000 HD
ENDBRANCH   5   9
BRANCH   1  14
ATOM     14  C   UNL     1      43.419   4.606  10.937  0.00  0.00    +0.000 C 
BRANCH  14  15
ATOM     15  C   UNL     1      43.628   5.799  11.876  0.00  0.00    +0.000 C 
BRANCH  15  20
ATOM     16  C   UNL     1      46.822   5.234  13.915  0.00  0.00    +0.000 A 
ATOM     17  C   UNL     1      47.737   6.005  13.201  0.00  0.00    +0.000 A 
ATOM     18  C   UNL     1      47.327   6.746  12.090  0.00  0.00    +0.000 A 
ATOM     19  C   UNL     1      45.996   6.701  11.667  0.00  0.00    +0.000 A 
ATOM     20  C   UNL     1      45.062   5.914  12.353  0.00  0.00    +0.000 A 
ATOM     21  C   UNL     1      45.482   5.197  13.484  0.00  0.00    +0.000 A 
BRANCH  16  22
ATOM     22  C   UNL     1      47.260   4.417  15.107  0.00  0.00    +0.000 C 
BRANCH  22  23
ATOM     23  N   UNL     1      47.591   3.045  14.739  0.00  0.00    +0.000 NA
ATOM     24  H   UNL     1      46.822   2.435  15.008  0.00  0.00    +0.000 HD
ATOM     25  H   UNL     1      48.400   2.744  15.282  0.00  0.00    +0.000 HD
ENDBRANCH  22  23
ENDBRANCH  16  22
ENDBRANCH  15  20
ENDBRANCH  14  15
ENDBRANCH   1  14
TORSDOF 6
ENDMDL
MODEL 2
REMARK VINA RESULT:    -7.979      1.745      2.159
REMARK INTER + INTRA:         -11.013
REMARK INTER:                 -10.541
REMARK INTRA:                  -0.471
REMARK UNBOUND:                -0.469
REMARK  Name = 
REMARK  6 active torsions:
REMARK  status: ('A' for Active; 'I' for Inactive)
REMARK    1  A    between atoms: N_1  and  C_2
REMARK    2  A    between atoms: C_2  and  C_3
REMARK    3  A    between atoms: C_7  and  C_8
REMARK    4  A    between atoms: C_8  and  C_9
REMARK    5  A    between atoms: C_9  and  N_10
REMARK    6  A    between atoms: C_14  and  C_15
REMARK                            x       y       z     vdW  Elec       q    Type
REMARK                         _______ _______ _______ _____ _____    ______ ____
ROOT
ATOM      1  N   UNL     1      43.770   4.731   9.907  0.00  0.00    +0.000 N 
ATOM      2  C   UNL     1      44.646   4.015   9.094  0.00  0.00    +0.000 A 
ATOM      3  N   UNL     1      44.606   2.675   9.107  0.00  0.00    +0.000 NA
ATOM      4  C   UNL     1      45.528   2.012   8.381  0.00  0.00    +0.000 A 
ATOM      5  C   UNL     1      46.477   2.638   7.612  0.00  0.00    +0.000 A 
ATOM      6  C   UNL     1      46.424   4.011   7.632  0.00  0.00    +0.000 A 
ATOM      7  N   UNL     1      45.527   4.720   8.366  0.00  0.00    +0.000 NA
ATOM      8  H   UNL     1      44.188   5.644  10.049  0.00  0.00    +0.000 HD
ENDROOT
BRANCH   5   9
ATOM      9  C   UNL     1      47.480   1.835   6.900  0.00  0.00    +0.000 C 
ATOM     10  N   UNL     1      48.614   2.453   6.460  0.00  0.00    +0.000 N 
ATOM     11  O   UNL     1      47.294   0.641   6.698  0.00  0.00    +0.000 OA
ATOM     12  H   UNL     1      48.792   3.445   6.505  0.00  0.00    +0.000 HD
ATOM     13  H   UNL     1      49.264   1.880   5.931  0.00  0.00    +0.000 HD
ENDBRANCH   5   9
BRANCH   1  14
ATOM     14  C   UNL     1      43.400   3.996  11.118  0.00  0.00    +0.000 C 
BRANCH  14  15
ATOM     15  C   UNL     1      43.432   4.906  12.351  0.00  0.00    +0.000 C 
BRANCH  15  20
ATOM     16  C   UNL     1      46.541   6.969  13.222  0.00  0.00    +0.000 A 
ATOM     17  C   UNL     1      47.413   5.973  13.653  0.00  0.00    +0.000 A 
ATOM     18  C   UNL     1      47.027   4.630  13.625  0.00  0.00    +0.000 A 
ATOM     19  C   UNL     1      45.749   4.275  13.186  0.00  0.00    +0.000 A 
ATOM     20  C   UNL     1      44.845   5.260  12.770  0.00  0.00    +0.000 A 
ATOM     21  C   UNL     1      45.256   6.602  12.779  0.00  0.00    +0.000 A 
BRANCH  16  22
ATOM     22  C   UNL     1      46.943   8.424  13.265  0.00  0.00    +0.000 C 
BRANCH  22  23
ATOM     23  N   UNL     1      47.171   8.889  14.629  0.00  0.00    +0.000 NA
ATOM     24  H   UNL     1      46.298   9.252  15.006  0.00  0.00    +0.000 HD
ATOM     25  H   UNL     1      47.821   9.673  14.605  0.00  0.00    +0.000 HD
ENDBRANCH  22  23
ENDBRANCH  16  22
ENDBRANCH  15  20
ENDBRANCH  14  15
ENDBRANCH   1  14
TORSDOF 6
ENDMDL
MODEL 3
REMARK VINA RESULT:    -7.924      2.707      6.428
REMARK INTER + INTRA:         -10.941
REMARK INTER:                 -10.377
REMARK INTRA:                  -0.564
REMARK UNBOUND:                -0.469
REMARK  Name = 
REMARK  6 active torsions:
REMARK  status: ('A' for Active; 'I' for Inactive)
REMARK    1  A    between atoms: N_1  and  C_2
REMARK    2  A    between atoms: C_2  and  C_3
REMARK    3  A    between atoms: C_7  and  C_8
REMARK    4  A    between atoms: C_8  and  C_9
REMARK    5  A    between atoms: C_9  and  N_10
REMARK    6  A    between atoms: C_14  and  C_15
REMARK                            x       y       z     vdW  Elec       q    Type
REMARK                         _______ _______ _______ _____ _____    ______ ____
ROOT
ATOM      1  N   UNL     1      44.232   2.893  12.516  0.00  0.00    +0.000 N 
ATOM      2  C   UNL     1      45.158   3.866  12.887  0.00  0.00    +0.000 A 
ATOM      3  N   UNL     1      44.986   5.128  12.469  0.00  0.00    +0.000 NA
ATOM      4  C   UNL     1      45.947   6.025  12.767  0.00  0.00    +0.000 A 
ATOM      5  C   UNL     1      47.067   5.718  13.498  0.00  0.00    +0.000 A 
ATOM      6  C   UNL     1      47.145   4.409  13.913  0.00  0.00    +0.000 A 
ATOM      7  N   UNL     1      46.212   3.468  13.617  0.00  0.00    +0.000 NA
ATOM      8  H   UNL     1      44.708   2.000  12.586  0.00  0.00    +0.000 HD
ENDROOT
BRANCH   5   9
ATOM      9  C   UNL     1      48.092   6.745  13.724  0.00  0.00    +0.000 C 
ATOM     10  N   UNL     1      47.752   7.855  14.441  0.00  0.00    +0.000 N 
ATOM     11  O   UNL     1      49.220   6.612  13.267  0.00  0.00    +0.000 OA
ATOM     12  H   UNL     1      46.823   8.078  14.766  0.00  0.00    +0.000 HD
ATOM     13  H   UNL     1      48.469   8.567  14.538  0.00  0.00    +0.000 HD
ENDBRANCH   5   9
BRANCH   1  14
ATOM     14  C   UNL     1      43.596   3.184  11.230  0.00  0.00    +0.000 C 
BRANCH  14  15
ATOM     15  C   UNL     1      43.987   2.149  10.170  0.00  0.00    +0.000 C 
BRANCH  15  20
ATOM     16  C   UNL     1      46.680   2.274   7.447  0.00  0.00    +0.000 A 
ATOM     17  C   UNL     1      46.798   3.647   7.248  0.00  0.00    +0.000 A 
ATOM     18  C   UNL     1      46.049   4.543   8.015  0.00  0.00    +0.000 A 
ATOM     19  C   UNL     1      45.152   4.068   8.976  0.00  0.00    +0.000 A 
ATOM     20  C   UNL     1      44.998   2.691   9.179  0.00  0.00    +0.000 A 
ATOM     21  C   UNL     1      45.777   1.804   8.420  0.00  0.00    +0.000 A 
BRANCH  16  22
ATOM     22  C   UNL     1      47.473   1.298   6.612  0.00  0.00    +0.000 C 
BRANCH  22  23
ATOM     23  N   UNL     1      48.586   1.943   5.924  0.00  0.00    +0.000 NA
ATOM     24  H   UNL     1      49.448   1.738   6.425  0.00  0.00    +0.000 HD
ATOM     25  H   UNL     1      48.461   2.954   5.969  0.00  0.00    +0.000 HD
ENDBRANCH  22  23
ENDBRANCH  16  22
ENDBRANCH  15  20
ENDBRANCH  14  15
ENDBRANCH   1  14
TORSDOF 6
ENDMDL
MODEL 4
REMARK VINA RESULT:    -7.036      3.184      6.549
REMARK INTER + INTRA:          -9.767
REMARK INTER:                  -9.263
REMARK INTRA:                  -0.505
REMARK UNBOUND:                -0.469
REMARK  Name = 
REMARK  6 active torsions:
REMARK  status: ('A' for Active; 'I' for Inactive)
REMARK    1  A    between atoms: N_1  and  C_2
REMARK    2  A    between atoms: C_2  and  C_3
REMARK    3  A    between atoms: C_7  and  C_8
REMARK    4  A    between atoms: C_8  and  C_9
REMARK    5  A    between atoms: C_9  and  N_10
REMARK    6  A    between atoms: C_14  and  C_15
REMARK                            x       y       z     vdW  Elec       q    Type
REMARK                         _______ _______ _______ _____ _____    ______ ____
ROOT
ATOM      1  N   UNL     1      44.829   3.866  12.796  0.00  0.00    +0.000 N 
ATOM      2  C   UNL     1      45.439   5.116  12.874  0.00  0.00    +0.000 A 
ATOM      3  N   UNL     1      44.697   6.219  12.697  0.00  0.00    +0.000 NA
ATOM      4  C   UNL     1      45.332   7.408  12.686  0.00  0.00    +0.000 A 
ATOM      5  C   UNL     1      46.684   7.545  12.877  0.00  0.00    +0.000 A 
ATOM      6  C   UNL     1      47.360   6.366  13.084  0.00  0.00    +0.000 A 
ATOM      7  N   UNL     1      46.765   5.145  13.081  0.00  0.00    +0.000 NA
ATOM      8  H   UNL     1      45.563   3.201  12.576  0.00  0.00    +0.000 HD
ENDROOT
BRANCH   5   9
ATOM      9  C   UNL     1      47.299   8.876  12.789  0.00  0.00    +0.000 C 
ATOM     10  N   UNL     1      48.609   9.011  13.146  0.00  0.00    +0.000 N 
ATOM     11  O   UNL     1      46.645   9.841  12.416  0.00  0.00    +0.000 OA
ATOM     12  H   UNL     1      49.181   8.285  13.551  0.00  0.00    +0.000 HD
ATOM     13  H   UNL     1      48.990   9.951  13.119  0.00  0.00    +0.000 HD
ENDBRANCH   5   9
BRANCH   1  14
ATOM     14  C   UNL     1      43.667   3.861  11.906  0.00  0.00    +0.000 C 
BRANCH  14  15
ATOM     15  C   UNL     1      43.743   2.708  10.900  0.00  0.00    +0.000 C 
BRANCH  15  20
ATOM     16  C   UNL     1      46.231   2.181   8.034  0.00  0.00    +0.000 A 
ATOM     17  C   UNL     1      46.375   3.483   7.560  0.00  0.00    +0.000 A 
ATOM     18  C   UNL     1      45.713   4.543   8.183  0.00  0.00    +0.000 A 
ATOM     19  C   UNL     1      44.875   4.304   9.276  0.00  0.00    +0.000 A 
ATOM     20  C   UNL     1      44.695   3.001   9.757  0.00  0.00    +0.000 A 
ATOM     21  C   UNL     1      45.388   1.950   9.138  0.00  0.00    +0.000 A 
BRANCH  16  22
ATOM     22  C   UNL     1      46.930   1.027   7.356  0.00  0.00    +0.000 C 
BRANCH  22  23
ATOM     23  N   UNL     1      48.109   1.460   6.614  0.00  0.00    +0.000 NA
ATOM     24  H   UNL     1      48.535   2.247   7.099  0.00  0.00    +0.000 HD
ATOM     25  H   UNL     1      47.815   1.808   5.703  0.00  0.00    +0.000 HD
ENDBRANCH  22  23
ENDBRANCH  16  22
ENDBRANCH  15  20
ENDBRANCH  14  15
ENDBRANCH   1  14
TORSDOF 6
ENDMDL
MODEL 5
REMARK VINA RESULT:    -6.983      2.970      6.873
REMARK INTER + INTRA:          -9.697
REMARK INTER:                  -9.286
REMARK INTRA:                  -0.411
REMARK UNBOUND:                -0.469
REMARK  Name = 
REMARK  6 active torsions:
REMARK  status: ('A' for Active; 'I' for Inactive)
REMARK    1  A    between atoms: N_1  and  C_2
REMARK    2  A    between atoms: C_2  and  C_3
REMARK    3  A    between atoms: C_7  and  C_8
REMARK    4  A    between atoms: C_8  and  C_9
REMARK    5  A    between atoms: C_9  and  N_10
REMARK    6  A    between atoms: C_14  and  C_15
REMARK                            x       y       z     vdW  Elec       q    Type
REMARK                         _______ _______ _______ _____ _____    ______ ____
ROOT
ATOM      1  N   UNL     1      45.714   5.440  11.023  0.00  0.00    +0.000 N 
ATOM      2  C   UNL     1      46.219   5.137  12.286  0.00  0.00    +0.000 A 
ATOM      3  N   UNL     1      45.993   3.923  12.809  0.00  0.00    +0.000 NA
ATOM      4  C   UNL     1      46.414   3.694  14.069  0.00  0.00    +0.000 A 
ATOM      5  C   UNL     1      47.085   4.623  14.822  0.00  0.00    +0.000 A 
ATOM      6  C   UNL     1      47.302   5.827  14.196  0.00  0.00    +0.000 A 
ATOM      7  N   UNL     1      46.876   6.110  12.937  0.00  0.00    +0.000 NA
ATOM      8  H   UNL     1      45.649   6.451  10.973  0.00  0.00    +0.000 HD
ENDROOT
BRANCH   5   9
ATOM      9  C   UNL     1      47.454   4.306  16.208  0.00  0.00    +0.000 C 
ATOM     10  N   UNL     1      48.586   4.866  16.724  0.00  0.00    +0.000 N 
ATOM     11  O   UNL     1      46.766   3.546  16.878  0.00  0.00    +0.000 OA
ATOM     12  H   UNL     1      49.250   5.423  16.206  0.00  0.00    +0.000 HD
ATOM     13  H   UNL     1      48.838   4.589  17.667  0.00  0.00    +0.000 HD
ENDBRANCH   5   9
BRANCH   1  14
ATOM     14  C   UNL     1      44.489   4.699  10.716  0.00  0.00    +0.000 C 
BRANCH  14  15
ATOM     15  C   UNL     1      44.277   4.582   9.203  0.00  0.00    +0.000 C 
BRANCH  15  20
ATOM     16  C   UNL     1      46.699   2.636   6.961  0.00  0.00    +0.000 A 
ATOM     17  C   UNL     1      46.620   1.363   7.520  0.00  0.00    +0.000 A 
ATOM     18  C   UNL     1      45.757   1.109   8.589  0.00  0.00    +0.000 A 
ATOM     19  C   UNL     1      44.981   2.139   9.127  0.00  0.00    +0.000 A 
ATOM     20  C   UNL     1      45.060   3.434   8.597  0.00  0.00    +0.000 A 
ATOM     21  C   UNL     1      45.911   3.668   7.506  0.00  0.00    +0.000 A 
BRANCH  16  22
ATOM     22  C   UNL     1      47.641   2.923   5.817  0.00  0.00    +0.000 C 
BRANCH  22  23
ATOM     23  N   UNL     1      48.565   1.820   5.577  0.00  0.00    +0.000 NA
ATOM     24  H   UNL     1      48.736   1.743   4.576  0.00  0.00    +0.000 HD
ATOM     25  H   UNL     1      48.119   0.949   5.860  0.00  0.00    +0.000 HD
ENDBRANCH  22  23
ENDBRANCH  16  22
ENDBRANCH  15  20
ENDBRANCH  14  15
ENDBRANCH   1  14
TORSDOF 6
ENDMDL
MODEL 6
REMARK VINA RESULT:    -6.858      3.743      6.388
REMARK INTER + INTRA:          -9.532
REMARK INTER:                  -9.218
REMARK INTRA:                  -0.314
REMARK UNBOUND:                -0.469
REMARK  Name = 
REMARK  6 active torsions:
REMARK  status: ('A' for Active; 'I' for Inactive)
REMARK    1  A    between atoms: N_1  and  C_2
REMARK    2  A    between atoms: C_2  and  C_3
REMARK    3  A    between atoms: C_7  and  C_8
REMARK    4  A    between atoms: C_8  and  C_9
REMARK    5  A    between atoms: C_9  and  N_10
REMARK    6  A    between atoms: C_14  and  C_15
REMARK                            x       y       z     vdW  Elec       q    Type
REMARK                         _______ _______ _______ _____ _____    ______ ____
ROOT
ATOM      1  N   UNL     1      47.221   3.439  14.655  0.00  0.00    +0.000 N 
ATOM      2  C   UNL     1      46.293   3.910  13.729  0.00  0.00    +0.000 A 
ATOM      3  N   UNL     1      45.933   5.202  13.760  0.00  0.00    +0.000 NA
ATOM      4  C   UNL     1      44.965   5.604  12.912  0.00  0.00    +0.000 A 
ATOM      5  C   UNL     1      44.359   4.771  12.006  0.00  0.00    +0.000 A 
ATOM      6  C   UNL     1      44.812   3.473  12.022  0.00  0.00    +0.000 A 
ATOM      7  N   UNL     1      45.769   3.019  12.873  0.00  0.00    +0.000 NA
ATOM      8  H   UNL     1      47.076   2.438  14.726  0.00  0.00    +0.000 HD
ENDROOT
BRANCH   5   9
ATOM      9  C   UNL     1      43.271   5.283  11.163  0.00  0.00    +0.000 C 
ATOM     10  N   UNL     1      42.259   5.978  11.758  0.00  0.00    +0.000 N 
ATOM     11  O   UNL     1      43.268   5.077   9.956  0.00  0.00    +0.000 OA
ATOM     12  H   UNL     1      42.145   6.105  12.753  0.00  0.00    +0.000 HD
ATOM     13  H   UNL     1      41.500   6.277  11.154  0.00  0.00    +0.000 HD
ENDBRANCH   5   9
BRANCH   1  14
ATOM     14  C   UNL     1      47.188   4.186  15.914  0.00  0.00    +0.000 C 
BRANCH  14  15
ATOM     15  C   UNL     1      47.676   3.324  17.083  0.00  0.00    +0.000 C 
BRANCH  15  20
ATOM     16  C   UNL     1      51.385   2.480  17.538  0.00  0.00    +0.000 A 
ATOM     17  C   UNL     1      51.933   3.751  17.694  0.00  0.00    +0.000 A 
ATOM     18  C   UNL     1      51.113   4.883  17.699  0.00  0.00    +0.000 A 
ATOM     19  C   UNL     1      49.733   4.752  17.522  0.00  0.00    +0.000 A 
ATOM     20  C   UNL     1      49.160   3.487  17.340  0.00  0.00    +0.000 A 
ATOM     21  C   UNL     1      49.993   2.357  17.365  0.00  0.00    +0.000 A 
BRANCH  16  22
ATOM     22  C   UNL     1      52.265   1.254  17.515  0.00  0.00    +0.000 C 
BRANCH  22  23
ATOM     23  N   UNL     1      51.643   0.119  18.188  0.00  0.00    +0.000 NA
ATOM     24  H   UNL     1      50.837   0.448  18.715  0.00  0.00    +0.000 HD
ATOM     25  H   UNL     1      52.298  -0.259  18.871  0.00  0.00    +0.000 HD
ENDBRANCH  22  23
ENDBRANCH  16  22
ENDBRANCH  15  20
ENDBRANCH  14  15
ENDBRANCH   1  14
TORSDOF 6
ENDMDL
MODEL 7
REMARK VINA RESULT:    -6.503      3.477      7.293
REMARK INTER + INTRA:          -9.062
REMARK INTER:                  -8.684
REMARK INTRA:                  -0.378
REMARK UNBOUND:                -0.469
REMARK  Name = 
REMARK  6 active torsions:
REMARK  status: ('A' for Active; 'I' for Inactive)
REMARK    1  A    between atoms: N_1  and  C_2
REMARK    2  A    between atoms: C_2  and  C_3
REMARK    3  A    between atoms: C_7  and  C_8
REMARK    4  A    between atoms: C_8  and  C_9
REMARK    5  A    between atoms: C_9  and  N_10
REMARK    6  A    between atoms: C_14  and  C_15
REMARK                            x       y       z     vdW  Elec       q    Type
REMARK                         _______ _______ _______ _____ _____    ______ ____
ROOT
ATOM      1  N   UNL     1      47.247   6.451  12.978  0.00  0.00    +0.000 N 
ATOM      2  C   UNL     1      47.516   5.771  14.163  0.00  0.00    +0.000 A 
ATOM      3  N   UNL     1      46.826   4.658  14.452  0.00  0.00    +0.000 NA
ATOM      4  C   UNL     1      47.044   4.076  15.648  0.00  0.00    +0.000 A 
ATOM      5  C   UNL     1      47.952   4.546  16.563  0.00  0.00    +0.000 A 
ATOM      6  C   UNL     1      48.637   5.671  16.171  0.00  0.00    +0.000 A 
ATOM      7  N   UNL     1      48.434   6.303  14.986  0.00  0.00    +0.000 NA
ATOM      8  H   UNL     1      47.560   7.407  13.116  0.00  0.00    +0.000 HD
ENDROOT
BRANCH   5   9
ATOM      9  C   UNL     1      48.080   3.882  17.867  0.00  0.00    +0.000 C 
ATOM     10  N   UNL     1      47.292   2.798  18.124  0.00  0.00    +0.000 N 
ATOM     11  O   UNL     1      48.866   4.301  18.706  0.00  0.00    +0.000 OA
ATOM     12  H   UNL     1      46.558   2.455  17.522  0.00  0.00    +0.000 HD
ATOM     13  H   UNL     1      47.371   2.392  19.051  0.00  0.00    +0.000 HD
ENDBRANCH   5   9
BRANCH   1  14
ATOM     14  C   UNL     1      45.862   6.284  12.535  0.00  0.00    +0.000 C 
BRANCH  14  15
ATOM     15  C   UNL     1      45.748   6.407  11.012  0.00  0.00    +0.000 C 
BRANCH  15  20
ATOM     16  C   UNL     1      45.335   3.607   8.430  0.00  0.00    +0.000 A 
ATOM     17  C   UNL     1      44.587   2.681   9.154  0.00  0.00    +0.000 A 
ATOM     18  C   UNL     1      44.173   2.967  10.457  0.00  0.00    +0.000 A 
ATOM     19  C   UNL     1      44.527   4.177  11.058  0.00  0.00    +0.000 A 
ATOM     20  C   UNL     1      45.298   5.115  10.360  0.00  0.00    +0.000 A 
ATOM     21  C   UNL     1      45.684   4.826   9.042  0.00  0.00    +0.000 A 
BRANCH  16  22
ATOM     22  C   UNL     1      45.801   3.300   7.027  0.00  0.00    +0.000 C 
BRANCH  22  23
ATOM     23  N   UNL     1      46.944   4.119   6.638  0.00  0.00    +0.000 NA
ATOM     24  H   UNL     1      46.642   4.802   5.945  0.00  0.00    +0.000 HD
ATOM     25  H   UNL     1      47.633   3.527   6.176  0.00  0.00    +0.000 HD
ENDBRANCH  22  23
ENDBRANCH  16  22
ENDBRANCH  15  20
ENDBRANCH  14  15
ENDBRANCH   1  14
TORSDOF 6
ENDMDL
MODEL 8
REMARK VINA RESULT:    -6.206      3.689      6.862
REMARK INTER + INTRA:          -8.670
REMARK INTER:                  -8.232
REMARK INTRA:                  -0.439
REMARK UNBOUND:                -0.469
REMARK  Name = 
REMARK  6 active torsions:
REMARK  status: ('A' for Active; 'I' for Inactive)
REMARK    1  A    between atoms: N_1  and  C_2
REMARK    2  A    between atoms: C_2  and  C_3
REMARK    3  A    between atoms: C_7  and  C_8
REMARK    4  A    between atoms: C_8  and  C_9
REMARK    5  A    between atoms: C_9  and  N_10
REMARK    6  A    between atoms: C_14  and  C_15
REMARK                            x       y       z     vdW  Elec       q    Type
REMARK                         _______ _______ _______ _____ _____    ______ ____
ROOT
ATOM      1  N   UNL     1      47.753   7.284  13.677  0.00  0.00    +0.000 N 
ATOM      2  C   UNL     1      47.912   6.256  14.603  0.00  0.00    +0.000 A 
ATOM      3  N   UNL     1      47.287   5.087  14.401  0.00  0.00    +0.000 NA
ATOM      4  C   UNL     1      47.386   4.147  15.361  0.00  0.00    +0.000 A 
ATOM      5  C   UNL     1      48.116   4.315  16.511  0.00  0.00    +0.000 A 
ATOM      6  C   UNL     1      48.750   5.530  16.621  0.00  0.00    +0.000 A 
ATOM      7  N   UNL     1      48.659   6.514  15.689  0.00  0.00    +0.000 NA
ATOM      8  H   UNL     1      47.960   8.148  14.166  0.00  0.00    +0.000 HD
ENDROOT
BRANCH   5   9
ATOM      9  C   UNL     1      48.118   3.258  17.531  0.00  0.00    +0.000 C 
ATOM     10  N   UNL     1      46.937   2.648  17.837  0.00  0.00    +0.000 N 
ATOM     11  O   UNL     1      49.156   2.943  18.100  0.00  0.00    +0.000 OA
ATOM     12  H   UNL     1      46.032   2.917  17.482  0.00  0.00    +0.000 HD
ATOM     13  H   UNL     1      46.966   1.955  18.579  0.00  0.00    +0.000 HD
ENDBRANCH   5   9
BRANCH   1  14
ATOM     14  C   UNL     1      46.461   7.226  12.989  0.00  0.00    +0.000 C 
BRANCH  14  15
ATOM     15  C   UNL     1      46.644   7.055  11.478  0.00  0.00    +0.000 C 
BRANCH  15  20
ATOM     16  C   UNL     1      44.379   3.969  11.327  0.00  0.00    +0.000 A 
ATOM     17  C   UNL     1      44.398   3.687   9.963  0.00  0.00    +0.000 A 
ATOM     18  C   UNL     1      45.172   4.456   9.090  0.00  0.00    +0.000 A 
ATOM     19  C   UNL     1      45.917   5.534   9.574  0.00  0.00    +0.000 A 
ATOM     20  C   UNL     1      45.896   5.853  10.938  0.00  0.00    +0.000 A 
ATOM     21  C   UNL     1      45.135   5.055  11.807  0.00  0.00    +0.000 A 
BRANCH  16  22
ATOM     22  C   UNL     1      43.532   3.154  12.275  0.00  0.00    +0.000 C 
BRANCH  22  23
ATOM     23  N   UNL     1      42.983   1.963  11.635  0.00  0.00    +0.000 NA
ATOM     24  H   UNL     1      41.989   1.902  11.847  0.00  0.00    +0.000 HD
ATOM     25  H   UNL     1      43.417   1.138  12.048  0.00  0.00    +0.000 HD
ENDBRANCH  22  23
ENDBRANCH  16  22
ENDBRANCH  15  20
ENDBRANCH  14  15
ENDBRANCH   1  14
TORSDOF 6
ENDMDL
MODEL 9
REMARK VINA RESULT:    -6.040      3.743      5.667
REMARK INTER + INTRA:          -8.450
REMARK INTER:                  -7.942
REMARK INTRA:                  -0.508
REMARK UNBOUND:                -0.469
REMARK  Name = 
REMARK  6 active torsions:
REMARK  status: ('A' for Active; 'I' for Inactive)
REMARK    1  A    between atoms: N_1  and  C_2
REMARK    2  A    between atoms: C_2  and  C_3
REMARK    3  A    between atoms: C_7  and  C_8
REMARK    4  A    between atoms: C_8  and  C_9
REMARK    5  A    between atoms: C_9  and  N_10
REMARK    6  A    between atoms: C_14  and  C_15
REMARK                            x       y       z     vdW  Elec       q    Type
REMARK                         _______ _______ _______ _____ _____    ______ ____
ROOT
ATOM      1  N   UNL     1      47.214   7.539  13.775  0.00  0.00    +0.000 N 
ATOM      2  C   UNL     1      46.291   6.584  13.355  0.00  0.00    +0.000 A 
ATOM      3  N   UNL     1      46.380   5.332  13.826  0.00  0.00    +0.000 NA
ATOM      4  C   UNL     1      45.531   4.411  13.329  0.00  0.00    +0.000 A 
ATOM      5  C   UNL     1      44.567   4.698  12.396  0.00  0.00    +0.000 A 
ATOM      6  C   UNL     1      44.525   6.011  11.993  0.00  0.00    +0.000 A 
ATOM      7  N   UNL     1      45.376   6.967  12.450  0.00  0.00    +0.000 NA
ATOM      8  H   UNL     1      47.228   8.261  13.062  0.00  0.00    +0.000 HD
ENDROOT
BRANCH   5   9
ATOM      9  C   UNL     1      43.724   3.618  11.866  0.00  0.00    +0.000 C 
ATOM     10  N   UNL     1      43.755   2.404  12.490  0.00  0.00    +0.000 N 
ATOM     11  O   UNL     1      43.021   3.801  10.881  0.00  0.00    +0.000 OA
ATOM     12  H   UNL     1      44.376   2.152  13.244  0.00  0.00    +0.000 HD
ATOM     13  H   UNL     1      43.197   1.667  12.071  0.00  0.00    +0.000 HD
ENDBRANCH   5   9
BRANCH   1  14
ATOM     14  C   UNL     1      48.509   6.952  14.124  0.00  0.00    +0.000 C 
BRANCH  14  15
ATOM     15  C   UNL     1      48.941   7.360  15.537  0.00  0.00    +0.000 C 
BRANCH  15  20
ATOM     16  C   UNL     1      48.956   4.033  17.437  0.00  0.00    +0.000 A 
ATOM     17  C   UNL     1      50.304   3.918  17.768  0.00  0.00    +0.000 A 
ATOM     18  C   UNL     1      51.208   4.926  17.424  0.00  0.00    +0.000 A 
ATOM     19  C   UNL     1      50.772   6.052  16.720  0.00  0.00    +0.000 A 
ATOM     20  C   UNL     1      49.426   6.180  16.355  0.00  0.00    +0.000 A 
ATOM     21  C   UNL     1      48.524   5.172  16.731  0.00  0.00    +0.000 A 
BRANCH  16  22
ATOM     22  C   UNL     1      47.975   2.941  17.790  0.00  0.00    +0.000 C 
BRANCH  22  23
ATOM     23  N   UNL     1      46.603   3.305  17.450  0.00  0.00    +0.000 NA
ATOM     24  H   UNL     1      46.161   2.522  16.972  0.00  0.00    +0.000 HD
ATOM     25  H   UNL     1      46.622   4.075  16.783  0.00  0.00    +0.000 HD
ENDBRANCH  22  23
ENDBRANCH  16  22
ENDBRANCH  15  20
ENDBRANCH  14  15
ENDBRANCH   1  14
TORSDOF 6
ENDMDL
