MODEL 1
REMARK VINA RESULT:    -9.240      0.000      0.000
REMARK INTER + INTRA:         -13.011
REMARK INTER:                 -12.481
REMARK INTRA:                  -0.531
REMARK UNBOUND:                -0.531
REMARK  Name = 
REMARK  6 active torsions:
REMARK  status: ('A' for Active; 'I' for Inactive)
REMARK    1  A    between atoms: C_2  and  C_25
REMARK    2  A    between atoms: N_3  and  C_4
REMARK    3  A    between atoms: C_4  and  C_5
REMARK    4  A    between atoms: C_8  and  C_9
REMARK    5  A    between atoms: C_9  and  N_10
REMARK    6  A    between atoms: C_11  and  C_13
REMARK                            x       y       z     vdW  Elec       q    Type
REMARK                         _______ _______ _______ _____ _____    ______ ____
ROOT
ATOM      1  C   UNL     1      43.426   4.300  11.786  0.00  0.00    +0.000 C 
ATOM      2  C   UNL     1      44.436   3.188  12.112  0.00  0.00    +0.000 C 
ATOM      3  C   UNL     1      45.864   3.728  12.217  0.00  0.00    +0.000 C 
ATOM      4  C   UNL     1      46.008   4.857  13.252  0.00  0.00    +0.000 C 
ATOM      5  C   UNL     1      45.000   5.971  12.925  0.00  0.00    +0.000 C 
ATOM      6  C   UNL     1      43.563   5.457  12.793  0.00  0.00    +0.000 C 
ENDROOT
BRANCH   1   7
ATOM      7  C   UNL     1      43.590   4.803  10.338  0.00  0.00    +0.000 C 
BRANCH   7  10
ATOM      8  O   UNL     1      45.831   5.388   8.752  0.00  0.00    +0.000 OA
ATOM      9  C   UNL     1      45.393   4.240   8.762  0.00  0.00    +0.000 C 
ATOM     10  N   UNL     1      44.295   3.858   9.499  0.00  0.00    +0.000 N 
ATOM     11  H   UNL     1      43.965   2.906   9.384  0.00  0.00    +0.000 HD
BRANCH   9  12
ATOM     12  C   UNL     1      46.039   3.161   7.955  0.00  0.00    +0.000 A 
ATOM     13  C   UNL     1      46.597   3.501   6.731  0.00  0.00    +0.000 A 
ATOM     14  C   UNL     1      47.199   2.500   5.982  0.00  0.00    +0.000 A 
ATOM     15  C   UNL     1      47.215   1.201   6.478  0.00  0.00    +0.000 A 
ATOM     16  C   UNL     1      46.635   0.953   7.717  0.00  0.00    +0.000 A 
ATOM     17  N   UNL     1      46.044   1.901   8.479  0.00  0.00    +0.000 NA
ENDBRANCH   9  12
ENDBRANCH   7  10
ENDBRANCH   1   7
BRANCH   4  18
ATOM     18  C   UNL     1      45.867   4.401  14.718  0.00  0.00    +0.000 C 
BRANCH  18  19
ATOM     19  N   UNL     1      47.072   4.608  15.494  0.00  0.00    +0.000 N 
ATOM     20  C   UNL     1      47.303   4.017  16.711  0.00  0.00    +0.000 C 
ATOM     21  O   UNL     1      46.485   3.288  17.256  0.00  0.00    +0.000 OA
ATOM     22  H   UNL     1      47.706   5.330  15.169  0.00  0.00    +0.000 HD
BRANCH  20  23
ATOM     23  C   UNL     1      48.634   4.252  17.295  0.00  0.00    +0.000 A 
ATOM     24  C   UNL     1      48.909   5.461  17.918  0.00  0.00    +0.000 A 
ATOM     25  S   UNL     1      50.481   5.552  18.574  0.00  0.00    +0.000 S 
ATOM     26  C   UNL     1      50.863   3.990  18.018  0.00  0.00    +0.000 A 
ATOM     27  N   UNL     1      52.093   3.450  18.238  0.00  0.00    +0.000 NA
ATOM     28  C   UNL     1      52.249   2.262  17.755  0.00  0.00    +0.000 A 
ATOM     29  N   UNL     1      51.287   1.565  17.073  0.00  0.00    +0.000 N 
ATOM     30  C   UNL     1      50.024   2.059  16.855  0.00  0.00    +0.000 A 
ATOM     31  O   UNL     1      49.168   1.376  16.304  0.00  0.00    +0.000 OA
ATOM     32  C   UNL     1      49.799   3.399  17.361  0.00  0.00    +0.000 A 
ATOM     33  H   UNL     1      51.462   0.629  16.739  0.00  0.00    +0.000 HD
ENDBRANCH  20  23
ENDBRANCH  18  19
ENDBRANCH   4  18
TORSDOF 6
ENDMDL
MODEL 2
REMARK VINA RESULT:    -8.822      2.107      2.551
REMARK INTER + INTRA:         -12.447
REMARK INTER:                 -11.888
REMARK INTRA:                  -0.560
REMARK UNBOUND:                -0.531
REMARK  Name = 
REMARK  6 active torsions:
REMARK  status: ('A' for Active; 'I' for Inactive)
REMARK    1  A    between atoms: C_2  and  C_25
REMARK    2  A    between atoms: N_3  and  C_4
REMARK    3  A    between atoms: C_4  and  C_5
REMARK    4  A    between atoms: C_8  and  C_9
REMARK    5  A    between atoms: C_9  and  N_10
REMARK    6  A    between atoms: C_11  and  C_13
REMARK                            x       y       z     vdW  Elec       q    Type
REMARK                         _______ _______ _______ _____ _____    ______ ____
ROOT
ATOM      1  C   UNL     1      43.464   5.890  11.859  0.00  0.00    +0.000 C 
ATOM      2  C   UNL     1      44.099   5.417  13.177  0.00  0.00    +0.000 C 
ATOM      3  C   UNL     1      45.466   4.769  12.951  0.00  0.00    +0.000 C 
ATOM      4  C   UNL     1      46.457   5.688  12.217  0.00  0.00    +0.000 C 
ATOM      5  C   UNL     1      45.825   6.158  10.897  0.00  0.00    +0.000 C 
ATOM      6  C   UNL     1      44.444   6.795  11.089  0.00  0.00    +0.000 C 
ENDROOT
BRANCH   1   7
ATOM      7  C   UNL     1      43.014   4.697  10.992  0.00  0.00    +0.000 C 
BRANCH   7  10
ATOM      8  O   UNL     1      43.769   2.063  10.388  0.00  0.00    +0.000 OA
ATOM      9  C   UNL     1      44.307   2.988   9.785  0.00  0.00    +0.000 C 
ATOM     10  N   UNL     1      44.011   4.312  10.017  0.00  0.00    +0.000 N 
ATOM     11  H   UNL     1      44.560   5.005   9.522  0.00  0.00    +0.000 HD
BRANCH   9  12
ATOM     12  C   UNL     1      45.340   2.729   8.738  0.00  0.00    +0.000 A 
ATOM     13  C   UNL     1      45.727   3.783   7.922  0.00  0.00    +0.000 A 
ATOM     14  C   UNL     1      46.688   3.544   6.951  0.00  0.00    +0.000 A 
ATOM     15  C   UNL     1      47.221   2.265   6.825  0.00  0.00    +0.000 A 
ATOM     16  C   UNL     1      46.777   1.271   7.689  0.00  0.00    +0.000 A 
ATOM     17  N   UNL     1      45.847   1.465   8.652  0.00  0.00    +0.000 NA
ENDBRANCH   9  12
ENDBRANCH   7  10
ENDBRANCH   1   7
BRANCH   4  18
ATOM     18  C   UNL     1      46.950   6.888  13.049  0.00  0.00    +0.000 C 
BRANCH  18  19
ATOM     19  N   UNL     1      47.377   6.517  14.382  0.00  0.00    +0.000 N 
ATOM     20  C   UNL     1      48.680   6.584  14.809  0.00  0.00    +0.000 C 
ATOM     21  O   UNL     1      49.597   6.935  14.078  0.00  0.00    +0.000 OA
ATOM     22  H   UNL     1      46.689   6.063  14.973  0.00  0.00    +0.000 HD
BRANCH  20  23
ATOM     23  C   UNL     1      48.905   6.279  16.232  0.00  0.00    +0.000 A 
ATOM     24  C   UNL     1      49.501   7.226  17.053  0.00  0.00    +0.000 A 
ATOM     25  S   UNL     1      49.650   6.727  18.678  0.00  0.00    +0.000 S 
ATOM     26  C   UNL     1      48.954   5.213  18.335  0.00  0.00    +0.000 A 
ATOM     27  N   UNL     1      48.797   4.277  19.311  0.00  0.00    +0.000 NA
ATOM     28  C   UNL     1      48.264   3.171  18.910  0.00  0.00    +0.000 A 
ATOM     29  N   UNL     1      47.871   2.917  17.623  0.00  0.00    +0.000 N 
ATOM     30  C   UNL     1      47.982   3.842  16.614  0.00  0.00    +0.000 A 
ATOM     31  O   UNL     1      47.552   3.604  15.491  0.00  0.00    +0.000 OA
ATOM     32  C   UNL     1      48.593   5.097  17.005  0.00  0.00    +0.000 A 
ATOM     33  H   UNL     1      47.437   2.039  17.376  0.00  0.00    +0.000 HD
ENDBRANCH  20  23
ENDBRANCH  18  19
ENDBRANCH   4  18
TORSDOF 6
ENDMDL
MODEL 3
REMARK VINA RESULT:    -8.508      1.387      2.098
REMARK INTER + INTRA:         -12.022
REMARK INTER:                 -11.548
REMARK INTRA:                  -0.475
REMARK UNBOUND:                -0.531
REMARK  Name = 
REMARK  6 active torsions:
REMARK  status: ('A' for Active; 'I' for Inactive)
REMARK    1  A    between atoms: C_2  and  C_25
REMARK    2  A    between atoms: N_3  and  C_4
REMARK    3  A    between atoms: C_4  and  C_5
REMARK    4  A    between atoms: C_8  and  C_9
REMARK    5  A    between atoms: C_9  and  N_10
REMARK    6  A    between atoms: C_11  and  C_13
REMARK                            x       y       z     vdW  Elec       q    Type
REMARK                         _______ _______ _______ _____ _____    ______ ____
ROOT
ATOM      1  C   UNL     1      43.318   4.591  11.999  0.00  0.00    +0.000 C 
ATOM      2  C   UNL     1      44.052   3.274  12.302  0.00  0.00    +0.000 C 
ATOM      3  C   UNL     1      45.571   3.438  12.230  0.00  0.00    +0.000 C 
ATOM      4  C   UNL     1      46.105   4.537  13.165  0.00  0.00    +0.000 C 
ATOM      5  C   UNL     1      45.375   5.855  12.860  0.00  0.00    +0.000 C 
ATOM      6  C   UNL     1      43.850   5.718  12.905  0.00  0.00    +0.000 C 
ENDROOT
BRANCH   1   7
ATOM      7  C   UNL     1      43.440   4.973  10.510  0.00  0.00    +0.000 C 
BRANCH   7  10
ATOM      8  O   UNL     1      45.730   5.482   8.970  0.00  0.00    +0.000 OA
ATOM      9  C   UNL     1      45.292   4.335   9.023  0.00  0.00    +0.000 C 
ATOM     10  N   UNL     1      44.172   3.988   9.742  0.00  0.00    +0.000 N 
ATOM     11  H   UNL     1      43.847   3.031   9.666  0.00  0.00    +0.000 HD
BRANCH   9  12
ATOM     12  C   UNL     1      45.965   3.218   8.293  0.00  0.00    +0.000 A 
ATOM     13  C   UNL     1      45.675   1.916   8.675  0.00  0.00    +0.000 A 
ATOM     14  C   UNL     1      46.297   0.878   7.997  0.00  0.00    +0.000 A 
ATOM     15  C   UNL     1      47.187   1.177   6.971  0.00  0.00    +0.000 A 
ATOM     16  C   UNL     1      47.414   2.511   6.653  0.00  0.00    +0.000 A 
ATOM     17  N   UNL     1      46.823   3.551   7.286  0.00  0.00    +0.000 NA
ENDBRANCH   9  12
ENDBRANCH   7  10
ENDBRANCH   1   7
BRANCH   4  18
ATOM     18  C   UNL     1      46.020   4.195  14.665  0.00  0.00    +0.000 C 
BRANCH  18  19
ATOM     19  N   UNL     1      47.319   4.056  15.289  0.00  0.00    +0.000 N 
ATOM     20  C   UNL     1      47.510   3.509  16.534  0.00  0.00    +0.000 C 
ATOM     21  O   UNL     1      46.584   3.122  17.233  0.00  0.00    +0.000 OA
ATOM     22  H   UNL     1      48.099   4.511  14.827  0.00  0.00    +0.000 HD
BRANCH  20  23
ATOM     23  C   UNL     1      48.912   3.341  16.952  0.00  0.00    +0.000 A 
ATOM     24  C   UNL     1      49.480   2.075  16.966  0.00  0.00    +0.000 A 
ATOM     25  S   UNL     1      51.120   2.065  17.436  0.00  0.00    +0.000 S 
ATOM     26  C   UNL     1      51.120   3.750  17.672  0.00  0.00    +0.000 A 
ATOM     27  N   UNL     1      52.239   4.397  18.099  0.00  0.00    +0.000 NA
ATOM     28  C   UNL     1      52.096   5.673  18.244  0.00  0.00    +0.000 A 
ATOM     29  N   UNL     1      50.937   6.360  17.998  0.00  0.00    +0.000 N 
ATOM     30  C   UNL     1      49.795   5.753  17.537  0.00  0.00    +0.000 A 
ATOM     31  O   UNL     1      48.799   6.412  17.260  0.00  0.00    +0.000 OA
ATOM     32  C   UNL     1      49.893   4.316  17.375  0.00  0.00    +0.000 A 
ATOM     33  H   UNL     1      50.894   7.363  18.107  0.00  0.00    +0.000 HD
ENDBRANCH  20  23
ENDBRANCH  18  19
ENDBRANCH   4  18
TORSDOF 6
ENDMDL
MODEL 4
REMARK VINA RESULT:    -8.072      4.754      5.354
REMARK INTER + INTRA:         -11.433
REMARK INTER:                 -11.030
REMARK INTRA:                  -0.404
REMARK UNBOUND:                -0.531
REMARK  Name = 
REMARK  6 active torsions:
REMARK  status: ('A' for Active; 'I' for Inactive)
REMARK    1  A    between atoms: C_2  and  C_25
REMARK    2  A    between atoms: N_3  and  C_4
REMARK    3  A    between atoms: C_4  and  C_5
REMARK    4  A    between atoms: C_8  and  C_9
REMARK    5  A    between atoms: C_9  and  N_10
REMARK    6  A    between atoms: C_11  and  C_13
REMARK                            x       y       z     vdW  Elec       q    Type
REMARK                         _______ _______ _______ _____ _____    ______ ____
ROOT
ATOM      1  C   UNL     1      44.219   3.865  12.507  0.00  0.00    +0.000 C 
ATOM      2  C   UNL     1      45.508   4.548  12.022  0.00  0.00    +0.000 C 
ATOM      3  C   UNL     1      45.225   5.605  10.954  0.00  0.00    +0.000 C 
ATOM      4  C   UNL     1      44.230   6.683  11.417  0.00  0.00    +0.000 C 
ATOM      5  C   UNL     1      42.939   6.000  11.899  0.00  0.00    +0.000 C 
ATOM      6  C   UNL     1      43.192   4.921  12.957  0.00  0.00    +0.000 C 
ENDROOT
BRANCH   1   7
ATOM      7  C   UNL     1      43.627   2.944  11.421  0.00  0.00    +0.000 C 
BRANCH   7  10
ATOM      8  O   UNL     1      43.850   3.808   8.760  0.00  0.00    +0.000 OA
ATOM      9  C   UNL     1      44.656   2.985   9.187  0.00  0.00    +0.000 C 
ATOM     10  N   UNL     1      44.623   2.494  10.472  0.00  0.00    +0.000 N 
ATOM     11  H   UNL     1      45.285   1.763  10.709  0.00  0.00    +0.000 HD
BRANCH   9  12
ATOM     12  C   UNL     1      45.748   2.452   8.318  0.00  0.00    +0.000 A 
ATOM     13  C   UNL     1      46.444   3.345   7.515  0.00  0.00    +0.000 A 
ATOM     14  C   UNL     1      47.459   2.852   6.710  0.00  0.00    +0.000 A 
ATOM     15  C   UNL     1      47.737   1.489   6.729  0.00  0.00    +0.000 A 
ATOM     16  C   UNL     1      46.992   0.669   7.568  0.00  0.00    +0.000 A 
ATOM     17  N   UNL     1      45.998   1.111   8.372  0.00  0.00    +0.000 NA
ENDBRANCH   9  12
ENDBRANCH   7  10
ENDBRANCH   1   7
BRANCH   4  18
ATOM     18  C   UNL     1      44.781   7.639  12.492  0.00  0.00    +0.000 C 
BRANCH  18  19
ATOM     19  N   UNL     1      45.930   8.396  12.043  0.00  0.00    +0.000 N 
ATOM     20  C   UNL     1      46.969   8.761  12.863  0.00  0.00    +0.000 C 
ATOM     21  O   UNL     1      46.987   8.502  14.059  0.00  0.00    +0.000 OA
ATOM     22  H   UNL     1      45.887   8.778  11.104  0.00  0.00    +0.000 HD
BRANCH  20  23
ATOM     23  C   UNL     1      48.106   9.423  12.202  0.00  0.00    +0.000 A 
ATOM     24  C   UNL     1      48.012  10.761  11.848  0.00  0.00    +0.000 A 
ATOM     25  S   UNL     1      49.431  11.380  11.130  0.00  0.00    +0.000 S 
ATOM     26  C   UNL     1      50.209   9.871  11.234  0.00  0.00    +0.000 A 
ATOM     27  N   UNL     1      51.478   9.704  10.771  0.00  0.00    +0.000 NA
ATOM     28  C   UNL     1      51.942   8.506  10.905  0.00  0.00    +0.000 A 
ATOM     29  N   UNL     1      51.254   7.461  11.464  0.00  0.00    +0.000 N 
ATOM     30  C   UNL     1      49.985   7.592  11.972  0.00  0.00    +0.000 A 
ATOM     31  O   UNL     1      49.430   6.652  12.529  0.00  0.00    +0.000 OA
ATOM     32  C   UNL     1      49.407   8.914  11.829  0.00  0.00    +0.000 A 
ATOM     33  H   UNL     1      51.681   6.552  11.563  0.00  0.00    +0.000 HD
ENDBRANCH  20  23
ENDBRANCH  18  19
ENDBRANCH   4  18
TORSDOF 6
ENDMDL
MODEL 5
REMARK VINA RESULT:    -7.976      2.434      2.928
REMARK INTER + INTRA:         -11.304
REMARK INTER:                 -11.752
REMARK INTRA:                   0.448
REMARK UNBOUND:                -0.531
REMARK  Name = 
REMARK  6 active torsions:
REMARK  status: ('A' for Active; 'I' for Inactive)
REMARK    1  A    between atoms: C_2  and  C_25
REMARK    2  A    between atoms: N_3  and  C_4
REMARK    3  A    between atoms: C_4  and  C_5
REMARK    4  A    between atoms: C_8  and  C_9
REMARK    5  A    between atoms: C_9  and  N_10
REMARK    6  A    between atoms: C_11  and  C_13
REMARK                            x       y       z     vdW  Elec       q    Type
REMARK                         _______ _______ _______ _____ _____    ______ ____
ROOT
ATOM      1  C   UNL     1      44.040   3.723  12.632  0.00  0.00    +0.000 C 
ATOM      2  C   UNL     1      45.569   3.814  12.499  0.00  0.00    +0.000 C 
ATOM      3  C   UNL     1      45.989   4.836  11.441  0.00  0.00    +0.000 C 
ATOM      4  C   UNL     1      45.422   6.243  11.700  0.00  0.00    +0.000 C 
ATOM      5  C   UNL     1      43.892   6.152  11.829  0.00  0.00    +0.000 C 
ATOM      6  C   UNL     1      43.441   5.122  12.869  0.00  0.00    +0.000 C 
ENDROOT
BRANCH   1   7
ATOM      7  C   UNL     1      43.407   3.050  11.398  0.00  0.00    +0.000 C 
BRANCH   7  10
ATOM      8  O   UNL     1      43.904   4.138   8.860  0.00  0.00    +0.000 OA
ATOM      9  C   UNL     1      44.572   3.179   9.236  0.00  0.00    +0.000 C 
ATOM     10  N   UNL     1      44.397   2.571  10.458  0.00  0.00    +0.000 N 
ATOM     11  H   UNL     1      44.947   1.741  10.648  0.00  0.00    +0.000 HD
BRANCH   9  12
ATOM     12  C   UNL     1      45.643   2.597   8.371  0.00  0.00    +0.000 A 
ATOM     13  C   UNL     1      46.302   3.439   7.487  0.00  0.00    +0.000 A 
ATOM     14  C   UNL     1      47.298   2.901   6.684  0.00  0.00    +0.000 A 
ATOM     15  C   UNL     1      47.592   1.546   6.789  0.00  0.00    +0.000 A 
ATOM     16  C   UNL     1      46.883   0.779   7.706  0.00  0.00    +0.000 A 
ATOM     17  N   UNL     1      45.911   1.266   8.509  0.00  0.00    +0.000 NA
ENDBRANCH   9  12
ENDBRANCH   7  10
ENDBRANCH   1   7
BRANCH   4  18
ATOM     18  C   UNL     1      46.036   6.964  12.915  0.00  0.00    +0.000 C 
BRANCH  18  19
ATOM     19  N   UNL     1      46.388   6.061  13.991  0.00  0.00    +0.000 N 
ATOM     20  C   UNL     1      47.672   5.883  14.445  0.00  0.00    +0.000 C 
ATOM     21  O   UNL     1      48.632   6.454  13.947  0.00  0.00    +0.000 OA
ATOM     22  H   UNL     1      45.658   5.441  14.325  0.00  0.00    +0.000 HD
BRANCH  20  23
ATOM     23  C   UNL     1      47.820   5.014  15.624  0.00  0.00    +0.000 A 
ATOM     24  C   UNL     1      47.545   3.658  15.519  0.00  0.00    +0.000 A 
ATOM     25  S   UNL     1      47.806   2.792  16.967  0.00  0.00    +0.000 S 
ATOM     26  C   UNL     1      48.262   4.207  17.795  0.00  0.00    +0.000 A 
ATOM     27  N   UNL     1      48.604   4.167  19.112  0.00  0.00    +0.000 NA
ATOM     28  C   UNL     1      48.920   5.313  19.617  0.00  0.00    +0.000 A 
ATOM     29  N   UNL     1      48.927   6.495  18.924  0.00  0.00    +0.000 N 
ATOM     30  C   UNL     1      48.618   6.576  17.588  0.00  0.00    +0.000 A 
ATOM     31  O   UNL     1      48.706   7.640  16.986  0.00  0.00    +0.000 OA
ATOM     32  C   UNL     1      48.237   5.320  16.974  0.00  0.00    +0.000 A 
ATOM     33  H   UNL     1      49.207   7.356  19.369  0.00  0.00    +0.000 HD
ENDBRANCH  20  23
ENDBRANCH  18  19
ENDBRANCH   4  18
TORSDOF 6
ENDMDL
MODEL 6
REMARK VINA RESULT:    -7.900      2.199      2.647
REMARK INTER + INTRA:         -11.202
REMARK INTER:                 -11.105
REMARK INTRA:                  -0.097
REMARK UNBOUND:                -0.531
REMARK  Name = 
REMARK  6 active torsions:
REMARK  status: ('A' for Active; 'I' for Inactive)
REMARK    1  A    between atoms: C_2  and  C_25
REMARK    2  A    between atoms: N_3  and  C_4
REMARK    3  A    between atoms: C_4  and  C_5
REMARK    4  A    between atoms: C_8  and  C_9
REMARK    5  A    between atoms: C_9  and  N_10
REMARK    6  A    between atoms: C_11  and  C_13
REMARK                            x       y       z     vdW  Elec       q    Type
REMARK                         _______ _______ _______ _____ _____    ______ ____
ROOT
ATOM      1  C   UNL     1      43.711   6.268  11.869  0.00  0.00    +0.000 C 
ATOM      2  C   UNL     1      44.054   5.600  13.211  0.00  0.00    +0.000 C 
ATOM      3  C   UNL     1      45.256   4.663  13.091  0.00  0.00    +0.000 C 
ATOM      4  C   UNL     1      46.513   5.359  12.542  0.00  0.00    +0.000 C 
ATOM      5  C   UNL     1      46.173   6.024  11.198  0.00  0.00    +0.000 C 
ATOM      6  C   UNL     1      44.959   6.955  11.282  0.00  0.00    +0.000 C 
ENDROOT
BRANCH   1   7
ATOM      7  C   UNL     1      43.116   5.254  10.872  0.00  0.00    +0.000 C 
BRANCH   7  10
ATOM      8  O   UNL     1      43.776   2.570  10.386  0.00  0.00    +0.000 OA
ATOM      9  C   UNL     1      44.337   3.447   9.735  0.00  0.00    +0.000 C 
ATOM     10  N   UNL     1      44.088   4.790   9.906  0.00  0.00    +0.000 N 
ATOM     11  H   UNL     1      44.654   5.440   9.372  0.00  0.00    +0.000 HD
BRANCH   9  12
ATOM     12  C   UNL     1      45.348   3.104   8.690  0.00  0.00    +0.000 A 
ATOM     13  C   UNL     1      45.777   1.788   8.598  0.00  0.00    +0.000 A 
ATOM     14  C   UNL     1      46.715   1.467   7.628  0.00  0.00    +0.000 A 
ATOM     15  C   UNL     1      47.193   2.471   6.791  0.00  0.00    +0.000 A 
ATOM     16  C   UNL     1      46.703   3.761   6.952  0.00  0.00    +0.000 A 
ATOM     17  N   UNL     1      45.785   4.113   7.882  0.00  0.00    +0.000 NA
ENDBRANCH   9  12
ENDBRANCH   7  10
ENDBRANCH   1   7
BRANCH   4  18
ATOM     18  C   UNL     1      47.156   6.372  13.510  0.00  0.00    +0.000 C 
BRANCH  18  19
ATOM     19  N   UNL     1      47.798   5.742  14.644  0.00  0.00    +0.000 N 
ATOM     20  C   UNL     1      48.440   6.439  15.638  0.00  0.00    +0.000 C 
ATOM     21  O   UNL     1      48.549   7.657  15.624  0.00  0.00    +0.000 OA
ATOM     22  H   UNL     1      47.883   4.731  14.619  0.00  0.00    +0.000 HD
BRANCH  20  23
ATOM     23  C   UNL     1      48.930   5.635  16.770  0.00  0.00    +0.000 A 
ATOM     24  C   UNL     1      48.033   4.894  17.526  0.00  0.00    +0.000 A 
ATOM     25  S   UNL     1      48.770   3.991  18.773  0.00  0.00    +0.000 S 
ATOM     26  C   UNL     1      50.311   4.587  18.368  0.00  0.00    +0.000 A 
ATOM     27  N   UNL     1      51.414   4.211  19.072  0.00  0.00    +0.000 NA
ATOM     28  C   UNL     1      52.517   4.746  18.663  0.00  0.00    +0.000 A 
ATOM     29  N   UNL     1      52.617   5.619  17.613  0.00  0.00    +0.000 N 
ATOM     30  C   UNL     1      51.536   6.001  16.856  0.00  0.00    +0.000 A 
ATOM     31  O   UNL     1      51.677   6.727  15.879  0.00  0.00    +0.000 OA
ATOM     32  C   UNL     1      50.268   5.444  17.284  0.00  0.00    +0.000 A 
ATOM     33  H   UNL     1      53.513   5.985  17.325  0.00  0.00    +0.000 HD
ENDBRANCH  20  23
ENDBRANCH  18  19
ENDBRANCH   4  18
TORSDOF 6
ENDMDL
MODEL 7
REMARK VINA RESULT:    -7.766      3.447      4.283
REMARK INTER + INTRA:         -11.021
REMARK INTER:                 -10.290
REMARK INTRA:                  -0.730
REMARK UNBOUND:                -0.531
REMARK  Name = 
REMARK  6 active torsions:
REMARK  status: ('A' for Active; 'I' for Inactive)
REMARK    1  A    between atoms: C_2  and  C_25
REMARK    2  A    between atoms: N_3  and  C_4
REMARK    3  A    between atoms: C_4  and  C_5
REMARK    4  A    between atoms: C_8  and  C_9
REMARK    5  A    between atoms: C_9  and  N_10
REMARK    6  A    between atoms: C_11  and  C_13
REMARK                            x       y       z     vdW  Elec       q    Type
REMARK                         _______ _______ _______ _____ _____    ______ ____
ROOT
ATOM      1  C   UNL     1      43.994   3.185  12.523  0.00  0.00    +0.000 C 
ATOM      2  C   UNL     1      45.529   3.252  12.479  0.00  0.00    +0.000 C 
ATOM      3  C   UNL     1      46.026   4.565  11.872  0.00  0.00    +0.000 C 
ATOM      4  C   UNL     1      45.490   5.809  12.601  0.00  0.00    +0.000 C 
ATOM      5  C   UNL     1      43.954   5.745  12.642  0.00  0.00    +0.000 C 
ATOM      6  C   UNL     1      43.426   4.432  13.228  0.00  0.00    +0.000 C 
ENDROOT
BRANCH   1   7
ATOM      7  C   UNL     1      43.397   3.027  11.110  0.00  0.00    +0.000 C 
BRANCH   7  10
ATOM      8  O   UNL     1      44.154   4.293   8.724  0.00  0.00    +0.000 OA
ATOM      9  C   UNL     1      44.669   3.217   9.014  0.00  0.00    +0.000 C 
ATOM     10  N   UNL     1      44.357   2.516  10.156  0.00  0.00    +0.000 N 
ATOM     11  H   UNL     1      44.781   1.602  10.272  0.00  0.00    +0.000 HD
BRANCH   9  12
ATOM     12  C   UNL     1      45.692   2.586   8.126  0.00  0.00    +0.000 A 
ATOM     13  C   UNL     1      46.221   3.345   7.092  0.00  0.00    +0.000 A 
ATOM     14  C   UNL     1      47.172   2.762   6.267  0.00  0.00    +0.000 A 
ATOM     15  C   UNL     1      47.553   1.444   6.501  0.00  0.00    +0.000 A 
ATOM     16  C   UNL     1      46.973   0.761   7.563  0.00  0.00    +0.000 A 
ATOM     17  N   UNL     1      46.048   1.296   8.392  0.00  0.00    +0.000 NA
ENDBRANCH   9  12
ENDBRANCH   7  10
ENDBRANCH   1   7
BRANCH   4  18
ATOM     18  C   UNL     1      46.070   6.020  14.013  0.00  0.00    +0.000 C 
BRANCH  18  19
ATOM     19  N   UNL     1      47.293   6.794  14.013  0.00  0.00    +0.000 N 
ATOM     20  C   UNL     1      48.421   6.434  14.709  0.00  0.00    +0.000 C 
ATOM     21  O   UNL     1      48.469   5.438  15.417  0.00  0.00    +0.000 OA
ATOM     22  H   UNL     1      47.255   7.711  13.580  0.00  0.00    +0.000 HD
BRANCH  20  23
ATOM     23  C   UNL     1      49.605   7.282  14.493  0.00  0.00    +0.000 A 
ATOM     24  C   UNL     1      50.457   7.557  15.553  0.00  0.00    +0.000 A 
ATOM     25  S   UNL     1      51.799   8.518  15.121  0.00  0.00    +0.000 S 
ATOM     26  C   UNL     1      51.270   8.631  13.508  0.00  0.00    +0.000 A 
ATOM     27  N   UNL     1      51.975   9.344  12.588  0.00  0.00    +0.000 NA
ATOM     28  C   UNL     1      51.455   9.353  11.405  0.00  0.00    +0.000 A 
ATOM     29  N   UNL     1      50.296   8.710  11.059  0.00  0.00    +0.000 N 
ATOM     30  C   UNL     1      49.569   7.955  11.947  0.00  0.00    +0.000 A 
ATOM     31  O   UNL     1      48.577   7.336  11.581  0.00  0.00    +0.000 OA
ATOM     32  C   UNL     1      50.099   7.927  13.296  0.00  0.00    +0.000 A 
ATOM     33  H   UNL     1      49.952   8.735  10.110  0.00  0.00    +0.000 HD
ENDBRANCH  20  23
ENDBRANCH  18  19
ENDBRANCH   4  18
TORSDOF 6
ENDMDL
MODEL 8
REMARK VINA RESULT:    -7.595      3.974      4.524
REMARK INTER + INTRA:         -10.790
REMARK INTER:                 -10.412
REMARK INTRA:                  -0.378
REMARK UNBOUND:                -0.531
REMARK  Name = 
REMARK  6 active torsions:
REMARK  status: ('A' for Active; 'I' for Inactive)
REMARK    1  A    between atoms: C_2  and  C_25
REMARK    2  A    between atoms: N_3  and  C_4
REMARK    3  A    between atoms: C_4  and  C_5
REMARK    4  A    between atoms: C_8  and  C_9
REMARK    5  A    between atoms: C_9  and  N_10
REMARK    6  A    between atoms: C_11  and  C_13
REMARK                            x       y       z     vdW  Elec       q    Type
REMARK                         _______ _______ _______ _____ _____    ______ ____
ROOT
ATOM      1  C   UNL     1      44.037   3.770  12.531  0.00  0.00    +0.000 C 
ATOM      2  C   UNL     1      45.508   4.138  12.275  0.00  0.00    +0.000 C 
ATOM      3  C   UNL     1      45.642   5.290  11.278  0.00  0.00    +0.000 C 
ATOM      4  C   UNL     1      44.875   6.553  11.706  0.00  0.00    +0.000 C 
ATOM      5  C   UNL     1      43.403   6.186  11.958  0.00  0.00    +0.000 C 
ATOM      6  C   UNL     1      43.237   5.021  12.939  0.00  0.00    +0.000 C 
ENDROOT
BRANCH   1   7
ATOM      7  C   UNL     1      43.407   3.085  11.302  0.00  0.00    +0.000 C 
BRANCH   7  10
ATOM      8  O   UNL     1      43.742   4.265   8.778  0.00  0.00    +0.000 OA
ATOM      9  C   UNL     1      44.484   3.344   9.106  0.00  0.00    +0.000 C 
ATOM     10  N   UNL     1      44.393   2.696  10.317  0.00  0.00    +0.000 N 
ATOM     11  H   UNL     1      45.002   1.900  10.467  0.00  0.00    +0.000 HD
BRANCH   9  12
ATOM     12  C   UNL     1      45.560   2.856   8.191  0.00  0.00    +0.000 A 
ATOM     13  C   UNL     1      46.026   1.560   8.357  0.00  0.00    +0.000 A 
ATOM     14  C   UNL     1      47.022   1.105   7.506  0.00  0.00    +0.000 A 
ATOM     15  C   UNL     1      47.520   1.960   6.529  0.00  0.00    +0.000 A 
ATOM     16  C   UNL     1      46.991   3.241   6.432  0.00  0.00    +0.000 A 
ATOM     17  N   UNL     1      46.015   3.720   7.238  0.00  0.00    +0.000 NA
ENDBRANCH   9  12
ENDBRANCH   7  10
ENDBRANCH   1   7
BRANCH   4  18
ATOM     18  C   UNL     1      45.476   7.283  12.922  0.00  0.00    +0.000 C 
BRANCH  18  19
ATOM     19  N   UNL     1      46.845   7.705  12.710  0.00  0.00    +0.000 N 
ATOM     20  C   UNL     1      47.930   7.079  13.274  0.00  0.00    +0.000 C 
ATOM     21  O   UNL     1      47.820   6.127  14.034  0.00  0.00    +0.000 OA
ATOM     22  H   UNL     1      46.982   8.585  12.226  0.00  0.00    +0.000 HD
BRANCH  20  23
ATOM     23  C   UNL     1      49.249   7.575  12.848  0.00  0.00    +0.000 A 
ATOM     24  C   UNL     1      49.602   7.528  11.507  0.00  0.00    +0.000 A 
ATOM     25  S   UNL     1      51.145   8.179  11.182  0.00  0.00    +0.000 S 
ATOM     26  C   UNL     1      51.411   8.515  12.828  0.00  0.00    +0.000 A 
ATOM     27  N   UNL     1      52.577   9.079  13.248  0.00  0.00    +0.000 NA
ATOM     28  C   UNL     1      52.649   9.271  14.523  0.00  0.00    +0.000 A 
ATOM     29  N   UNL     1      51.659   8.954  15.416  0.00  0.00    +0.000 N 
ATOM     30  C   UNL     1      50.457   8.412  15.034  0.00  0.00    +0.000 A 
ATOM     31  O   UNL     1      49.569   8.209  15.853  0.00  0.00    +0.000 OA
ATOM     32  C   UNL     1      50.330   8.157  13.612  0.00  0.00    +0.000 A 
ATOM     33  H   UNL     1      51.766   9.151  16.400  0.00  0.00    +0.000 HD
ENDBRANCH  20  23
ENDBRANCH  18  19
ENDBRANCH   4  18
TORSDOF 6
ENDMDL
MODEL 9
REMARK VINA RESULT:    -7.329      2.748      3.314
REMARK INTER + INTRA:         -10.430
REMARK INTER:                 -10.083
REMARK INTRA:                  -0.347
REMARK UNBOUND:                -0.531
REMARK  Name = 
REMARK  6 active torsions:
REMARK  status: ('A' for Active; 'I' for Inactive)
REMARK    1  A    between atoms: C_2  and  C_25
REMARK    2  A    between atoms: N_3  and  C_4
REMARK    3  A    between atoms: C_4  and  C_5
REMARK    4  A    between atoms: C_8  and  C_9
REMARK    5  A    between atoms: C_9  and  N_10
REMARK    6  A    between atoms: C_11  and  C_13
REMARK                            x       y       z     vdW  Elec       q    Type
REMARK                         _______ _______ _______ _____ _____    ______ ____
ROOT
ATOM      1  C   UNL     1      45.661   6.923  12.575  0.00  0.00    +0.000 C 
ATOM      2  C   UNL     1      47.064   6.300  12.499  0.00  0.00    +0.000 C 
ATOM      3  C   UNL     1      48.031   7.168  11.692  0.00  0.00    +0.000 C 
ATOM      4  C   UNL     1      48.147   8.605  12.230  0.00  0.00    +0.000 C 
ATOM      5  C   UNL     1      46.744   9.230  12.302  0.00  0.00    +0.000 C 
ATOM      6  C   UNL     1      45.747   8.372  13.089  0.00  0.00    +0.000 C 
ENDROOT
BRANCH   1   7
ATOM      7  C   UNL     1      44.943   6.861  11.211  0.00  0.00    +0.000 C 
BRANCH   7  10
ATOM      8  O   UNL     1      43.570   4.632  10.203  0.00  0.00    +0.000 OA
ATOM      9  C   UNL     1      44.744   4.799   9.885  0.00  0.00    +0.000 C 
ATOM     10  N   UNL     1      45.504   5.855  10.335  0.00  0.00    +0.000 N 
ATOM     11  H   UNL     1      46.484   5.867  10.076  0.00  0.00    +0.000 HD
BRANCH   9  12
ATOM     12  C   UNL     1      45.440   3.844   8.970  0.00  0.00    +0.000 A 
ATOM     13  C   UNL     1      45.325   2.486   9.228  0.00  0.00    +0.000 A 
ATOM     14  C   UNL     1      45.969   1.599   8.377  0.00  0.00    +0.000 A 
ATOM     15  C   UNL     1      46.706   2.099   7.309  0.00  0.00    +0.000 A 
ATOM     16  C   UNL     1      46.761   3.475   7.125  0.00  0.00    +0.000 A 
ATOM     17  N   UNL     1      46.144   4.372   7.927  0.00  0.00    +0.000 NA
ENDBRANCH   9  12
ENDBRANCH   7  10
ENDBRANCH   1   7
BRANCH   4  18
ATOM     18  C   UNL     1      48.872   8.721  13.585  0.00  0.00    +0.000 C 
BRANCH  18  19
ATOM     19  N   UNL     1      48.961   7.460  14.290  0.00  0.00    +0.000 N 
ATOM     20  C   UNL     1      48.807   7.336  15.649  0.00  0.00    +0.000 C 
ATOM     21  O   UNL     1      48.615   8.297  16.382  0.00  0.00    +0.000 OA
ATOM     22  H   UNL     1      49.283   6.660  13.757  0.00  0.00    +0.000 HD
BRANCH  20  23
ATOM     23  C   UNL     1      48.812   5.959  16.171  0.00  0.00    +0.000 A 
ATOM     24  C   UNL     1      47.659   5.192  16.100  0.00  0.00    +0.000 A 
ATOM     25  S   UNL     1      47.849   3.610  16.712  0.00  0.00    +0.000 S 
ATOM     26  C   UNL     1      49.472   3.907  17.128  0.00  0.00    +0.000 A 
ATOM     27  N   UNL     1      50.229   2.944  17.722  0.00  0.00    +0.000 NA
ATOM     28  C   UNL     1      51.439   3.307  17.990  0.00  0.00    +0.000 A 
ATOM     29  N   UNL     1      51.961   4.544  17.716  0.00  0.00    +0.000 N 
ATOM     30  C   UNL     1      51.243   5.533  17.092  0.00  0.00    +0.000 A 
ATOM     31  O   UNL     1      51.767   6.602  16.799  0.00  0.00    +0.000 OA
ATOM     32  C   UNL     1      49.870   5.186  16.784  0.00  0.00    +0.000 A 
ATOM     33  H   UNL     1      52.924   4.760  17.930  0.00  0.00    +0.000 HD
ENDBRANCH  20  23
ENDBRANCH  18  19
ENDBRANCH   4  18
TORSDOF 6
ENDMDL
