MODEL 1
REMARK VINA RESULT:    -8.333      0.000      0.000
REMARK INTER + INTRA:         -11.386
REMARK INTER:                 -10.769
REMARK INTRA:                  -0.618
REMARK UNBOUND:                -0.618
REMARK  Name = 
REMARK  5 active torsions:
REMARK  status: ('A' for Active; 'I' for Inactive)
REMARK    1  A    between atoms: C_2  and  C_18
REMARK    2  A    between atoms: N_3  and  C_4
REMARK    3  A    between atoms: C_4  and  C_5
REMARK    4  A    between atoms: C_8  and  C_9
REMARK    5  A    between atoms: C_9  and  C_10
REMARK                            x       y       z     vdW  Elec       q    Type
REMARK                         _______ _______ _______ _____ _____    ______ ____
ROOT
ATOM      1  O   UNL     1      47.014   3.310  14.087  0.00  0.00    +0.000 OA
ATOM      2  C   UNL     1      46.859   4.497  14.332  0.00  0.00    +0.000 C 
ATOM      3  N   UNL     1      45.745   5.226  13.978  0.00  0.00    +0.000 N 
ATOM      4  H   UNL     1      45.641   6.138  14.399  0.00  0.00    +0.000 HD
ENDROOT
BRANCH   2   5
ATOM      5  C   UNL     1      47.703   5.257  15.247  0.00  0.00    +0.000 A 
ATOM      6  C   UNL     1      48.310   6.447  14.887  0.00  0.00    +0.000 A 
ATOM      7  S   UNL     1      49.698   6.755  15.854  0.00  0.00    +0.000 S 
ATOM      8  C   UNL     1      49.385   5.397  16.838  0.00  0.00    +0.000 A 
ATOM      9  N   UNL     1      50.260   4.949  17.774  0.00  0.00    +0.000 NA
ATOM     10  C   UNL     1      49.825   3.946  18.471  0.00  0.00    +0.000 A 
ATOM     11  N   UNL     1      48.581   3.385  18.350  0.00  0.00    +0.000 N 
ATOM     12  C   UNL     1      47.658   3.803  17.415  0.00  0.00    +0.000 A 
ATOM     13  O   UNL     1      46.534   3.331  17.347  0.00  0.00    +0.000 OA
ATOM     14  C   UNL     1      48.167   4.834  16.536  0.00  0.00    +0.000 A 
ATOM     15  H   UNL     1      48.268   2.665  18.985  0.00  0.00    +0.000 HD
ENDBRANCH   2   5
BRANCH   3  16
ATOM     16  C   UNL     1      44.518   4.597  13.549  0.00  0.00    +0.000 C 
BRANCH  16  17
ATOM     17  C   UNL     1      44.575   4.349  12.079  0.00  0.00    +0.000 A 
ATOM     18  C   UNL     1      45.266   5.170  11.214  0.00  0.00    +0.000 A 
ATOM     19  N   UNL     1      45.288   5.004   9.875  0.00  0.00    +0.000 NA
ATOM     20  C   UNL     1      44.575   3.972   9.383  0.00  0.00    +0.000 A 
ATOM     21  N   UNL     1      43.841   3.127  10.135  0.00  0.00    +0.000 NA
ATOM     22  C   UNL     1      43.862   3.338  11.468  0.00  0.00    +0.000 A 
BRANCH  20  23
ATOM     23  C   UNL     1      44.619   3.730   7.895  0.00  0.00    +0.000 C 
BRANCH  23  24
ATOM     24  C   UNL     1      45.822   2.948   7.466  0.00  0.00    +0.000 A 
ATOM     25  C   UNL     1      46.118   1.701   7.979  0.00  0.00    +0.000 A 
ATOM     26  N   UNL     1      47.209   0.988   7.636  0.00  0.00    +0.000 NA
ATOM     27  C   UNL     1      48.031   1.573   6.752  0.00  0.00    +0.000 A 
ATOM     28  N   UNL     1      47.855   2.778   6.188  0.00  0.00    +0.000 NA
ATOM     29  C   UNL     1      46.748   3.445   6.569  0.00  0.00    +0.000 A 
ENDBRANCH  23  24
ENDBRANCH  20  23
ENDBRANCH  16  17
ENDBRANCH   3  16
TORSDOF 5
ENDMDL
MODEL 2
REMARK VINA RESULT:    -7.800      1.751      2.726
REMARK INTER + INTRA:         -10.698
REMARK INTER:                  -9.992
REMARK INTRA:                  -0.707
REMARK UNBOUND:                -0.618
REMARK  Name = 
REMARK  5 active torsions:
REMARK  status: ('A' for Active; 'I' for Inactive)
REMARK    1  A    between atoms: C_2  and  C_18
REMARK    2  A    between atoms: N_3  and  C_4
REMARK    3  A    between atoms: C_4  and  C_5
REMARK    4  A    between atoms: C_8  and  C_9
REMARK    5  A    between atoms: C_9  and  C_10
REMARK                            x       y       z     vdW  Elec       q    Type
REMARK                         _______ _______ _______ _____ _____    ______ ____
ROOT
ATOM      1  O   UNL     1      47.207   3.380  15.348  0.00  0.00    +0.000 OA
ATOM      2  C   UNL     1      47.269   4.571  15.084  0.00  0.00    +0.000 C 
ATOM      3  N   UNL     1      46.357   5.243  14.300  0.00  0.00    +0.000 N 
ATOM      4  H   UNL     1      46.400   6.251  14.310  0.00  0.00    +0.000 HD
ENDROOT
BRANCH   2   5
ATOM      5  C   UNL     1      48.163   5.509  15.753  0.00  0.00    +0.000 A 
ATOM      6  C   UNL     1      48.444   5.435  17.106  0.00  0.00    +0.000 A 
ATOM      7  S   UNL     1      48.945   6.960  17.722  0.00  0.00    +0.000 S 
ATOM      8  C   UNL     1      48.939   7.656  16.164  0.00  0.00    +0.000 A 
ATOM      9  N   UNL     1      49.106   8.986  15.951  0.00  0.00    +0.000 NA
ATOM     10  C   UNL     1      49.138   9.324  14.699  0.00  0.00    +0.000 A 
ATOM     11  N   UNL     1      49.068   8.449  13.647  0.00  0.00    +0.000 N 
ATOM     12  C   UNL     1      48.897   7.092  13.811  0.00  0.00    +0.000 A 
ATOM     13  O   UNL     1      48.885   6.314  12.869  0.00  0.00    +0.000 OA
ATOM     14  C   UNL     1      48.725   6.704  15.194  0.00  0.00    +0.000 A 
ATOM     15  H   UNL     1      49.190   8.766  12.696  0.00  0.00    +0.000 HD
ENDBRANCH   2   5
BRANCH   3  16
ATOM     16  C   UNL     1      45.073   4.678  13.958  0.00  0.00    +0.000 C 
BRANCH  16  17
ATOM     17  C   UNL     1      44.998   4.471  12.483  0.00  0.00    +0.000 A 
ATOM     18  C   UNL     1      45.642   5.294  11.584  0.00  0.00    +0.000 A 
ATOM     19  N   UNL     1      45.545   5.165  10.244  0.00  0.00    +0.000 NA
ATOM     20  C   UNL     1      44.760   4.170   9.788  0.00  0.00    +0.000 A 
ATOM     21  N   UNL     1      44.064   3.326  10.577  0.00  0.00    +0.000 NA
ATOM     22  C   UNL     1      44.204   3.499  11.908  0.00  0.00    +0.000 A 
BRANCH  20  23
ATOM     23  C   UNL     1      44.671   3.969   8.296  0.00  0.00    +0.000 C 
BRANCH  23  24
ATOM     24  C   UNL     1      45.706   3.021   7.772  0.00  0.00    +0.000 A 
ATOM     25  C   UNL     1      45.892   1.759   8.299  0.00  0.00    +0.000 A 
ATOM     26  N   UNL     1      46.836   0.898   7.870  0.00  0.00    +0.000 NA
ATOM     27  C   UNL     1      47.623   1.345   6.880  0.00  0.00    +0.000 A 
ATOM     28  N   UNL     1      47.544   2.548   6.291  0.00  0.00    +0.000 NA
ATOM     29  C   UNL     1      46.583   3.367   6.761  0.00  0.00    +0.000 A 
ENDBRANCH  23  24
ENDBRANCH  20  23
ENDBRANCH  16  17
ENDBRANCH   3  16
TORSDOF 5
ENDMDL
MODEL 3
REMARK VINA RESULT:    -7.703      3.020      8.412
REMARK INTER + INTRA:         -10.573
REMARK INTER:                  -9.756
REMARK INTRA:                  -0.817
REMARK UNBOUND:                -0.618
REMARK  Name = 
REMARK  5 active torsions:
REMARK  status: ('A' for Active; 'I' for Inactive)
REMARK    1  A    between atoms: C_2  and  C_18
REMARK    2  A    between atoms: N_3  and  C_4
REMARK    3  A    between atoms: C_4  and  C_5
REMARK    4  A    between atoms: C_8  and  C_9
REMARK    5  A    between atoms: C_9  and  C_10
REMARK                            x       y       z     vdW  Elec       q    Type
REMARK                         _______ _______ _______ _____ _____    ______ ____
ROOT
ATOM      1  O   UNL     1      45.042   7.735  11.536  0.00  0.00    +0.000 OA
ATOM      2  C   UNL     1      45.431   6.589  11.375  0.00  0.00    +0.000 C 
ATOM      3  N   UNL     1      46.696   6.144  11.689  0.00  0.00    +0.000 N 
ATOM      4  H   UNL     1      46.842   5.145  11.696  0.00  0.00    +0.000 HD
ENDROOT
BRANCH   2   5
ATOM      5  C   UNL     1      44.552   5.466  11.065  0.00  0.00    +0.000 A 
ATOM      6  C   UNL     1      43.457   5.139  11.845  0.00  0.00    +0.000 A 
ATOM      7  S   UNL     1      43.030   3.485  11.656  0.00  0.00    +0.000 S 
ATOM      8  C   UNL     1      44.195   3.265  10.429  0.00  0.00    +0.000 A 
ATOM      9  N   UNL     1      44.504   2.046   9.917  0.00  0.00    +0.000 NA
ATOM     10  C   UNL     1      45.363   2.079   8.947  0.00  0.00    +0.000 A 
ATOM     11  N   UNL     1      45.902   3.220   8.412  0.00  0.00    +0.000 N 
ATOM     12  C   UNL     1      45.621   4.479   8.897  0.00  0.00    +0.000 A 
ATOM     13  O   UNL     1      46.065   5.493   8.382  0.00  0.00    +0.000 OA
ATOM     14  C   UNL     1      44.766   4.462  10.065  0.00  0.00    +0.000 A 
ATOM     15  H   UNL     1      46.496   3.185   7.598  0.00  0.00    +0.000 HD
ENDBRANCH   2   5
BRANCH   3  16
ATOM     16  C   UNL     1      47.596   6.909  12.519  0.00  0.00    +0.000 C 
BRANCH  16  17
ATOM     17  C   UNL     1      47.834   6.179  13.798  0.00  0.00    +0.000 A 
ATOM     18  C   UNL     1      47.165   5.020  14.127  0.00  0.00    +0.000 A 
ATOM     19  N   UNL     1      47.318   4.370  15.300  0.00  0.00    +0.000 NA
ATOM     20  C   UNL     1      48.176   4.916  16.185  0.00  0.00    +0.000 A 
ATOM     21  N   UNL     1      48.859   6.060  15.977  0.00  0.00    +0.000 NA
ATOM     22  C   UNL     1      48.671   6.662  14.784  0.00  0.00    +0.000 A 
BRANCH  20  23
ATOM     23  C   UNL     1      48.406   4.186  17.484  0.00  0.00    +0.000 C 
BRANCH  23  24
ATOM     24  C   UNL     1      49.679   3.397  17.493  0.00  0.00    +0.000 A 
ATOM     25  C   UNL     1      49.760   2.114  16.991  0.00  0.00    +0.000 A 
ATOM     26  N   UNL     1      50.882   1.367  17.014  0.00  0.00    +0.000 NA
ATOM     27  C   UNL     1      51.951   1.945  17.582  0.00  0.00    +0.000 A 
ATOM     28  N   UNL     1      51.996   3.179  18.108  0.00  0.00    +0.000 NA
ATOM     29  C   UNL     1      50.845   3.878  18.056  0.00  0.00    +0.000 A 
ENDBRANCH  23  24
ENDBRANCH  20  23
ENDBRANCH  16  17
ENDBRANCH   3  16
TORSDOF 5
ENDMDL
MODEL 4
REMARK VINA RESULT:    -7.357      2.090      3.002
REMARK INTER + INTRA:         -10.125
REMARK INTER:                  -9.340
REMARK INTRA:                  -0.785
REMARK UNBOUND:                -0.618
REMARK  Name = 
REMARK  5 active torsions:
REMARK  status: ('A' for Active; 'I' for Inactive)
REMARK    1  A    between atoms: C_2  and  C_18
REMARK    2  A    between atoms: N_3  and  C_4
REMARK    3  A    between atoms: C_4  and  C_5
REMARK    4  A    between atoms: C_8  and  C_9
REMARK    5  A    between atoms: C_9  and  C_10
REMARK                            x       y       z     vdW  Elec       q    Type
REMARK                         _______ _______ _______ _____ _____    ______ ____
ROOT
ATOM      1  O   UNL     1      48.618   8.092  16.889  0.00  0.00    +0.000 OA
ATOM      2  C   UNL     1      48.707   6.926  16.539  0.00  0.00    +0.000 C 
ATOM      3  N   UNL     1      48.295   6.446  15.315  0.00  0.00    +0.000 N 
ATOM      4  H   UNL     1      48.593   5.515  15.064  0.00  0.00    +0.000 HD
ENDROOT
BRANCH   2   5
ATOM      5  C   UNL     1      49.482   5.917  17.254  0.00  0.00    +0.000 A 
ATOM      6  C   UNL     1      50.665   6.212  17.909  0.00  0.00    +0.000 A 
ATOM      7  S   UNL     1      51.652   4.813  18.070  0.00  0.00    +0.000 S 
ATOM      8  C   UNL     1      50.436   3.809  17.418  0.00  0.00    +0.000 A 
ATOM      9  N   UNL     1      50.648   2.506  17.104  0.00  0.00    +0.000 NA
ATOM     10  C   UNL     1      49.593   1.883  16.681  0.00  0.00    +0.000 A 
ATOM     11  N   UNL     1      48.340   2.430  16.591  0.00  0.00    +0.000 N 
ATOM     12  C   UNL     1      48.074   3.748  16.896  0.00  0.00    +0.000 A 
ATOM     13  O   UNL     1      46.946   4.214  16.861  0.00  0.00    +0.000 OA
ATOM     14  C   UNL     1      49.260   4.501  17.244  0.00  0.00    +0.000 A 
ATOM     15  H   UNL     1      47.540   1.867  16.341  0.00  0.00    +0.000 HD
ENDBRANCH   2   5
BRANCH   3  16
ATOM     16  C   UNL     1      47.996   7.322  14.208  0.00  0.00    +0.000 C 
BRANCH  16  17
ATOM     17  C   UNL     1      47.043   6.645  13.282  0.00  0.00    +0.000 A 
ATOM     18  C   UNL     1      46.283   7.336  12.362  0.00  0.00    +0.000 A 
ATOM     19  N   UNL     1      45.371   6.757  11.552  0.00  0.00    +0.000 NA
ATOM     20  C   UNL     1      45.211   5.425  11.679  0.00  0.00    +0.000 A 
ATOM     21  N   UNL     1      45.880   4.658  12.565  0.00  0.00    +0.000 NA
ATOM     22  C   UNL     1      46.782   5.291  13.343  0.00  0.00    +0.000 A 
BRANCH  20  23
ATOM     23  C   UNL     1      44.236   4.741  10.754  0.00  0.00    +0.000 C 
BRANCH  23  24
ATOM     24  C   UNL     1      44.910   3.976   9.657  0.00  0.00    +0.000 A 
ATOM     25  C   UNL     1      44.948   2.597   9.629  0.00  0.00    +0.000 A 
ATOM     26  N   UNL     1      45.574   1.882   8.673  0.00  0.00    +0.000 NA
ATOM     27  C   UNL     1      46.193   2.599   7.724  0.00  0.00    +0.000 A 
ATOM     28  N   UNL     1      46.232   3.938   7.646  0.00  0.00    +0.000 NA
ATOM     29  C   UNL     1      45.590   4.600   8.628  0.00  0.00    +0.000 A 
ENDBRANCH  23  24
ENDBRANCH  20  23
ENDBRANCH  16  17
ENDBRANCH   3  16
TORSDOF 5
ENDMDL
MODEL 5
REMARK VINA RESULT:    -7.022      4.034      4.883
REMARK INTER + INTRA:          -9.692
REMARK INTER:                  -9.625
REMARK INTRA:                  -0.066
REMARK UNBOUND:                -0.618
REMARK  Name = 
REMARK  5 active torsions:
REMARK  status: ('A' for Active; 'I' for Inactive)
REMARK    1  A    between atoms: C_2  and  C_18
REMARK    2  A    between atoms: N_3  and  C_4
REMARK    3  A    between atoms: C_4  and  C_5
REMARK    4  A    between atoms: C_8  and  C_9
REMARK    5  A    between atoms: C_9  and  C_10
REMARK                            x       y       z     vdW  Elec       q    Type
REMARK                         _______ _______ _______ _____ _____    ______ ____
ROOT
ATOM      1  O   UNL     1      46.145   6.672  11.334  0.00  0.00    +0.000 OA
ATOM      2  C   UNL     1      45.352   7.421  11.883  0.00  0.00    +0.000 C 
ATOM      3  N   UNL     1      44.308   7.004  12.678  0.00  0.00    +0.000 N 
ATOM      4  H   UNL     1      43.842   7.709  13.231  0.00  0.00    +0.000 HD
ENDROOT
BRANCH   2   5
ATOM      5  C   UNL     1      45.535   8.865  11.989  0.00  0.00    +0.000 A 
ATOM      6  C   UNL     1      44.597   9.771  11.530  0.00  0.00    +0.000 A 
ATOM      7  S   UNL     1      45.319  11.293  11.182  0.00  0.00    +0.000 S 
ATOM      8  C   UNL     1      46.827  10.781  11.793  0.00  0.00    +0.000 A 
ATOM      9  N   UNL     1      47.961  11.516  11.664  0.00  0.00    +0.000 NA
ATOM     10  C   UNL     1      48.998  11.001  12.247  0.00  0.00    +0.000 A 
ATOM     11  N   UNL     1      48.991   9.847  12.987  0.00  0.00    +0.000 N 
ATOM     12  C   UNL     1      47.867   9.066  13.147  0.00  0.00    +0.000 A 
ATOM     13  O   UNL     1      47.858   8.067  13.848  0.00  0.00    +0.000 OA
ATOM     14  C   UNL     1      46.728   9.549  12.396  0.00  0.00    +0.000 A 
ATOM     15  H   UNL     1      49.812   9.546  13.493  0.00  0.00    +0.000 HD
ENDBRANCH   2   5
BRANCH   3  16
ATOM     16  C   UNL     1      44.222   5.656  13.189  0.00  0.00    +0.000 C 
BRANCH  16  17
ATOM     17  C   UNL     1      44.328   4.689  12.059  0.00  0.00    +0.000 A 
ATOM     18  C   UNL     1      43.458   4.697  10.990  0.00  0.00    +0.000 A 
ATOM     19  N   UNL     1      43.494   3.799   9.983  0.00  0.00    +0.000 NA
ATOM     20  C   UNL     1      44.444   2.845  10.059  0.00  0.00    +0.000 A 
ATOM     21  N   UNL     1      45.326   2.728  11.072  0.00  0.00    +0.000 NA
ATOM     22  C   UNL     1      45.245   3.657  12.047  0.00  0.00    +0.000 A 
BRANCH  20  23
ATOM     23  C   UNL     1      44.542   1.858   8.923  0.00  0.00    +0.000 C 
BRANCH  23  24
ATOM     24  C   UNL     1      45.756   2.066   8.072  0.00  0.00    +0.000 A 
ATOM     25  C   UNL     1      45.991   3.243   7.389  0.00  0.00    +0.000 A 
ATOM     26  N   UNL     1      47.057   3.448   6.590  0.00  0.00    +0.000 NA
ATOM     27  C   UNL     1      47.902   2.414   6.474  0.00  0.00    +0.000 A 
ATOM     28  N   UNL     1      47.781   1.222   7.080  0.00  0.00    +0.000 NA
ATOM     29  C   UNL     1      46.697   1.075   7.866  0.00  0.00    +0.000 A 
ENDBRANCH  23  24
ENDBRANCH  20  23
ENDBRANCH  16  17
ENDBRANCH   3  16
TORSDOF 5
ENDMDL
MODEL 6
REMARK VINA RESULT:    -6.998      3.126      9.067
REMARK INTER + INTRA:          -9.661
REMARK INTER:                  -8.909
REMARK INTRA:                  -0.752
REMARK UNBOUND:                -0.618
REMARK  Name = 
REMARK  5 active torsions:
REMARK  status: ('A' for Active; 'I' for Inactive)
REMARK    1  A    between atoms: C_2  and  C_18
REMARK    2  A    between atoms: N_3  and  C_4
REMARK    3  A    between atoms: C_4  and  C_5
REMARK    4  A    between atoms: C_8  and  C_9
REMARK    5  A    between atoms: C_9  and  C_10
REMARK                            x       y       z     vdW  Elec       q    Type
REMARK                         _______ _______ _______ _____ _____    ______ ____
ROOT
ATOM      1  O   UNL     1      45.482   8.051  11.661  0.00  0.00    +0.000 OA
ATOM      2  C   UNL     1      45.651   6.856  11.476  0.00  0.00    +0.000 C 
ATOM      3  N   UNL     1      46.819   6.182  11.760  0.00  0.00    +0.000 N 
ATOM      4  H   UNL     1      46.779   5.173  11.750  0.00  0.00    +0.000 HD
ENDROOT
BRANCH   2   5
ATOM      5  C   UNL     1      44.577   5.919  11.167  0.00  0.00    +0.000 A 
ATOM      6  C   UNL     1      43.399   5.869  11.892  0.00  0.00    +0.000 A 
ATOM      7  S   UNL     1      42.650   4.327  11.758  0.00  0.00    +0.000 S 
ATOM      8  C   UNL     1      43.806   3.801  10.618  0.00  0.00    +0.000 A 
ATOM      9  N   UNL     1      43.883   2.517  10.187  0.00  0.00    +0.000 NA
ATOM     10  C   UNL     1      44.780   2.315   9.273  0.00  0.00    +0.000 A 
ATOM     11  N   UNL     1      45.569   3.289   8.717  0.00  0.00    +0.000 N 
ATOM     12  C   UNL     1      45.529   4.606   9.121  0.00  0.00    +0.000 A 
ATOM     13  O   UNL     1      46.199   5.475   8.587  0.00  0.00    +0.000 OA
ATOM     14  C   UNL     1      44.631   4.833  10.233  0.00  0.00    +0.000 A 
ATOM     15  H   UNL     1      46.184   3.084   7.944  0.00  0.00    +0.000 HD
ENDBRANCH   2   5
BRANCH   3  16
ATOM     16  C   UNL     1      47.857   6.755  12.584  0.00  0.00    +0.000 C 
BRANCH  16  17
ATOM     17  C   UNL     1      47.865   6.080  13.914  0.00  0.00    +0.000 A 
ATOM     18  C   UNL     1      48.672   6.495  14.952  0.00  0.00    +0.000 A 
ATOM     19  N   UNL     1      48.742   5.869  16.146  0.00  0.00    +0.000 NA
ATOM     20  C   UNL     1      47.974   4.773  16.299  0.00  0.00    +0.000 A 
ATOM     21  N   UNL     1      47.171   4.265  15.341  0.00  0.00    +0.000 NA
ATOM     22  C   UNL     1      47.137   4.936  14.171  0.00  0.00    +0.000 A 
BRANCH  20  23
ATOM     23  C   UNL     1      47.993   4.081  17.639  0.00  0.00    +0.000 C 
BRANCH  23  24
ATOM     24  C   UNL     1      48.261   5.017  18.776  0.00  0.00    +0.000 A 
ATOM     25  C   UNL     1      49.467   5.045  19.446  0.00  0.00    +0.000 A 
ATOM     26  N   UNL     1      49.726   5.854  20.493  0.00  0.00    +0.000 NA
ATOM     27  C   UNL     1      48.716   6.649  20.876  0.00  0.00    +0.000 A 
ATOM     28  N   UNL     1      47.501   6.709  20.311  0.00  0.00    +0.000 NA
ATOM     29  C   UNL     1      47.299   5.879  19.270  0.00  0.00    +0.000 A 
ENDBRANCH  23  24
ENDBRANCH  20  23
ENDBRANCH  16  17
ENDBRANCH   3  16
TORSDOF 5
ENDMDL
MODEL 7
REMARK VINA RESULT:    -6.998      3.101      4.656
REMARK INTER + INTRA:          -9.661
REMARK INTER:                  -8.429
REMARK INTRA:                  -1.232
REMARK UNBOUND:                -0.618
REMARK  Name = 
REMARK  5 active torsions:
REMARK  status: ('A' for Active; 'I' for Inactive)
REMARK    1  A    between atoms: C_2  and  C_18
REMARK    2  A    between atoms: N_3  and  C_4
REMARK    3  A    between atoms: C_4  and  C_5
REMARK    4  A    between atoms: C_8  and  C_9
REMARK    5  A    between atoms: C_9  and  C_10
REMARK                            x       y       z     vdW  Elec       q    Type
REMARK                         _______ _______ _______ _____ _____    ______ ____
ROOT
ATOM      1  O   UNL     1      51.282   6.905  15.726  0.00  0.00    +0.000 OA
ATOM      2  C   UNL     1      50.179   7.245  16.127  0.00  0.00    +0.000 C 
ATOM      3  N   UNL     1      49.289   8.010  15.406  0.00  0.00    +0.000 N 
ATOM      4  H   UNL     1      48.343   8.063  15.754  0.00  0.00    +0.000 HD
ENDROOT
BRANCH   2   5
ATOM      5  C   UNL     1      49.538   6.690  17.314  0.00  0.00    +0.000 A 
ATOM      6  C   UNL     1      49.746   7.201  18.582  0.00  0.00    +0.000 A 
ATOM      7  S   UNL     1      49.433   6.018  19.790  0.00  0.00    +0.000 S 
ATOM      8  C   UNL     1      48.873   4.899  18.629  0.00  0.00    +0.000 A 
ATOM      9  N   UNL     1      48.593   3.605  18.930  0.00  0.00    +0.000 NA
ATOM     10  C   UNL     1      48.117   2.920  17.937  0.00  0.00    +0.000 A 
ATOM     11  N   UNL     1      47.851   3.423  16.691  0.00  0.00    +0.000 N 
ATOM     12  C   UNL     1      48.119   4.728  16.336  0.00  0.00    +0.000 A 
ATOM     13  O   UNL     1      47.832   5.181  15.240  0.00  0.00    +0.000 OA
ATOM     14  C   UNL     1      48.773   5.479  17.386  0.00  0.00    +0.000 A 
ATOM     15  H   UNL     1      47.395   2.861  15.987  0.00  0.00    +0.000 HD
ENDBRANCH   2   5
BRANCH   3  16
ATOM     16  C   UNL     1      49.443   8.236  13.988  0.00  0.00    +0.000 C 
BRANCH  16  17
ATOM     17  C   UNL     1      48.163   7.918  13.292  0.00  0.00    +0.000 A 
ATOM     18  C   UNL     1      46.965   8.508  13.634  0.00  0.00    +0.000 A 
ATOM     19  N   UNL     1      45.783   8.197  13.061  0.00  0.00    +0.000 NA
ATOM     20  C   UNL     1      45.806   7.244  12.108  0.00  0.00    +0.000 A 
ATOM     21  N   UNL     1      46.915   6.583  11.718  0.00  0.00    +0.000 NA
ATOM     22  C   UNL     1      48.068   6.941  12.322  0.00  0.00    +0.000 A 
BRANCH  20  23
ATOM     23  C   UNL     1      44.510   6.910  11.414  0.00  0.00    +0.000 C 
BRANCH  23  24
ATOM     24  C   UNL     1      44.085   5.489  11.622  0.00  0.00    +0.000 A 
ATOM     25  C   UNL     1      44.016   4.911  12.874  0.00  0.00    +0.000 A 
ATOM     26  N   UNL     1      43.668   3.626  13.089  0.00  0.00    +0.000 NA
ATOM     27  C   UNL     1      43.396   2.907  11.990  0.00  0.00    +0.000 A 
ATOM     28  N   UNL     1      43.432   3.353  10.725  0.00  0.00    +0.000 NA
ATOM     29  C   UNL     1      43.786   4.644  10.571  0.00  0.00    +0.000 A 
ENDBRANCH  23  24
ENDBRANCH  20  23
ENDBRANCH  16  17
ENDBRANCH   3  16
TORSDOF 5
ENDMDL
MODEL 8
REMARK VINA RESULT:    -6.851      3.248      8.586
REMARK INTER + INTRA:          -9.471
REMARK INTER:                  -8.461
REMARK INTRA:                  -1.010
REMARK UNBOUND:                -0.618
REMARK  Name = 
REMARK  5 active torsions:
REMARK  status: ('A' for Active; 'I' for Inactive)
REMARK    1  A    between atoms: C_2  and  C_18
REMARK    2  A    between atoms: N_3  and  C_4
REMARK    3  A    between atoms: C_4  and  C_5
REMARK    4  A    between atoms: C_8  and  C_9
REMARK    5  A    between atoms: C_9  and  C_10
REMARK                            x       y       z     vdW  Elec       q    Type
REMARK                         _______ _______ _______ _____ _____    ______ ____
ROOT
ATOM      1  O   UNL     1      44.323   7.780  11.389  0.00  0.00    +0.000 OA
ATOM      2  C   UNL     1      45.342   7.120  11.262  0.00  0.00    +0.000 C 
ATOM      3  N   UNL     1      46.556   7.442  11.828  0.00  0.00    +0.000 N 
ATOM      4  H   UNL     1      47.270   6.729  11.817  0.00  0.00    +0.000 HD
ENDROOT
BRANCH   2   5
ATOM      5  C   UNL     1      45.375   5.770  10.708  0.00  0.00    +0.000 A 
ATOM      6  C   UNL     1      45.720   5.512   9.393  0.00  0.00    +0.000 A 
ATOM      7  S   UNL     1      45.059   4.018   8.858  0.00  0.00    +0.000 S 
ATOM      8  C   UNL     1      44.462   3.658  10.415  0.00  0.00    +0.000 A 
ATOM      9  N   UNL     1      43.641   2.606  10.664  0.00  0.00    +0.000 NA
ATOM     10  C   UNL     1      43.341   2.450  11.916  0.00  0.00    +0.000 A 
ATOM     11  N   UNL     1      43.827   3.218  12.942  0.00  0.00    +0.000 N 
ATOM     12  C   UNL     1      44.661   4.296  12.741  0.00  0.00    +0.000 A 
ATOM     13  O   UNL     1      45.129   4.943  13.665  0.00  0.00    +0.000 OA
ATOM     14  C   UNL     1      44.905   4.573  11.342  0.00  0.00    +0.000 A 
ATOM     15  H   UNL     1      43.628   2.988  13.905  0.00  0.00    +0.000 HD
ENDBRANCH   2   5
BRANCH   3  16
ATOM     16  C   UNL     1      46.677   8.429  12.875  0.00  0.00    +0.000 C 
BRANCH  16  17
ATOM     17  C   UNL     1      47.634   7.940  13.910  0.00  0.00    +0.000 A 
ATOM     18  C   UNL     1      48.157   8.762  14.885  0.00  0.00    +0.000 A 
ATOM     19  N   UNL     1      49.067   8.362  15.797  0.00  0.00    +0.000 NA
ATOM     20  C   UNL     1      49.477   7.080  15.720  0.00  0.00    +0.000 A 
ATOM     21  N   UNL     1      49.053   6.200  14.790  0.00  0.00    +0.000 NA
ATOM     22  C   UNL     1      48.138   6.655  13.908  0.00  0.00    +0.000 A 
BRANCH  20  23
ATOM     23  C   UNL     1      50.456   6.589  16.756  0.00  0.00    +0.000 C 
BRANCH  23  24
ATOM     24  C   UNL     1      49.792   5.894  17.904  0.00  0.00    +0.000 A 
ATOM     25  C   UNL     1      49.400   6.559  19.049  0.00  0.00    +0.000 A 
ATOM     26  N   UNL     1      48.830   5.955  20.111  0.00  0.00    +0.000 NA
ATOM     27  C   UNL     1      48.668   4.628  20.005  0.00  0.00    +0.000 A 
ATOM     28  N   UNL     1      49.011   3.872  18.951  0.00  0.00    +0.000 NA
ATOM     29  C   UNL     1      49.576   4.529  17.919  0.00  0.00    +0.000 A 
ENDBRANCH  23  24
ENDBRANCH  20  23
ENDBRANCH  16  17
ENDBRANCH   3  16
TORSDOF 5
ENDMDL
MODEL 9
REMARK VINA RESULT:    -6.832      2.747      3.555
REMARK INTER + INTRA:          -9.446
REMARK INTER:                  -8.856
REMARK INTRA:                  -0.590
REMARK UNBOUND:                -0.618
REMARK  Name = 
REMARK  5 active torsions:
REMARK  status: ('A' for Active; 'I' for Inactive)
REMARK    1  A    between atoms: C_2  and  C_18
REMARK    2  A    between atoms: N_3  and  C_4
REMARK    3  A    between atoms: C_4  and  C_5
REMARK    4  A    between atoms: C_8  and  C_9
REMARK    5  A    between atoms: C_9  and  C_10
REMARK                            x       y       z     vdW  Elec       q    Type
REMARK                         _______ _______ _______ _____ _____    ______ ____
ROOT
ATOM      1  O   UNL     1      48.185   6.030  16.271  0.00  0.00    +0.000 OA
ATOM      2  C   UNL     1      48.272   6.528  15.159  0.00  0.00    +0.000 C 
ATOM      3  N   UNL     1      47.582   6.086  14.052  0.00  0.00    +0.000 N 
ATOM      4  H   UNL     1      47.583   6.688  13.241  0.00  0.00    +0.000 HD
ENDROOT
BRANCH   2   5
ATOM      5  C   UNL     1      48.916   7.808  14.888  0.00  0.00    +0.000 A 
ATOM      6  C   UNL     1      48.215   8.920  14.458  0.00  0.00    +0.000 A 
ATOM      7  S   UNL     1      49.238  10.016  13.617  0.00  0.00    +0.000 S 
ATOM      8  C   UNL     1      50.623   9.084  13.972  0.00  0.00    +0.000 A 
ATOM      9  N   UNL     1      51.840   9.336  13.425  0.00  0.00    +0.000 NA
ATOM     10  C   UNL     1      52.788   8.566  13.860  0.00  0.00    +0.000 A 
ATOM     11  N   UNL     1      52.639   7.605  14.826  0.00  0.00    +0.000 N 
ATOM     12  C   UNL     1      51.426   7.312  15.410  0.00  0.00    +0.000 A 
ATOM     13  O   UNL     1      51.312   6.489  16.305  0.00  0.00    +0.000 OA
ATOM     14  C   UNL     1      50.326   8.065  14.847  0.00  0.00    +0.000 A 
ATOM     15  H   UNL     1      53.435   7.101  15.188  0.00  0.00    +0.000 HD
ENDBRANCH   2   5
BRANCH   3  16
ATOM     16  C   UNL     1      46.460   5.183  14.155  0.00  0.00    +0.000 C 
BRANCH  16  17
ATOM     17  C   UNL     1      45.992   4.814  12.788  0.00  0.00    +0.000 A 
ATOM     18  C   UNL     1      46.068   5.680  11.718  0.00  0.00    +0.000 A 
ATOM     19  N   UNL     1      45.601   5.394  10.484  0.00  0.00    +0.000 NA
ATOM     20  C   UNL     1      45.023   4.187  10.322  0.00  0.00    +0.000 A 
ATOM     21  N   UNL     1      44.871   3.277  11.306  0.00  0.00    +0.000 NA
ATOM     22  C   UNL     1      45.363   3.616  12.516  0.00  0.00    +0.000 A 
BRANCH  20  23
ATOM     23  C   UNL     1      44.536   3.819   8.943  0.00  0.00    +0.000 C 
BRANCH  23  24
ATOM     24  C   UNL     1      45.543   3.036   8.158  0.00  0.00    +0.000 A 
ATOM     25  C   UNL     1      46.212   3.566   7.073  0.00  0.00    +0.000 A 
ATOM     26  N   UNL     1      47.099   2.876   6.328  0.00  0.00    +0.000 NA
ATOM     27  C   UNL     1      47.298   1.601   6.695  0.00  0.00    +0.000 A 
ATOM     28  N   UNL     1      46.706   0.974   7.723  0.00  0.00    +0.000 NA
ATOM     29  C   UNL     1      45.829   1.712   8.431  0.00  0.00    +0.000 A 
ENDBRANCH  23  24
ENDBRANCH  20  23
ENDBRANCH  16  17
ENDBRANCH   3  16
TORSDOF 5
ENDMDL
