MODEL 1
REMARK VINA RESULT:    -8.453      0.000      0.000
REMARK INTER + INTRA:         -13.844
REMARK INTER:                 -12.407
REMARK INTRA:                  -1.438
REMARK UNBOUND:                -1.438
REMARK  Name = 
REMARK  10 active torsions:
REMARK  status: ('A' for Active; 'I' for Inactive)
REMARK    1  A    between atoms: C_1  and  O_2
REMARK    2  A    between atoms: O_2  and  C_3
REMARK    3  A    between atoms: C_10  and  C_11
REMARK    4  A    between atoms: N_13  and  C_14
REMARK    5  A    between atoms: C_14  and  C_15
REMARK    6  A    between atoms: C_18  and  C_19
REMARK    7  A    between atoms: C_19  and  N_20
REMARK    8  A    between atoms: N_20  and  C_21
REMARK    9  A    between atoms: C_21  and  C_22
REMARK   10  A    between atoms: C_21  and  C_23
REMARK                            x       y       z     vdW  Elec       q    Type
REMARK                         _______ _______ _______ _____ _____    ______ ____
ROOT
ATOM      1  C   UNL     1      46.213   7.243  12.524  0.00  0.00    +0.000 A 
ATOM      2  C   UNL     1      46.709   6.670  11.345  0.00  0.00    +0.000 A 
ATOM      3  C   UNL     1      45.895   5.849  10.552  0.00  0.00    +0.000 A 
ATOM      4  C   UNL     1      44.566   5.585  10.918  0.00  0.00    +0.000 A 
ATOM      5  C   UNL     1      44.067   6.180  12.084  0.00  0.00    +0.000 A 
ATOM      6  C   UNL     1      44.877   7.005  12.872  0.00  0.00    +0.000 A 
ENDROOT
BRANCH   1   7
ATOM      7  C   UNL     1      47.080   8.133  13.379  0.00  0.00    +0.000 C 
BRANCH   7  10
ATOM      8  C   UNL     1      48.751   6.850  14.656  0.00  0.00    +0.000 C 
ATOM      9  O   UNL     1      49.540   6.867  13.713  0.00  0.00    +0.000 OA
ATOM     10  N   UNL     1      47.523   7.444  14.566  0.00  0.00    +0.000 N 
ATOM     11  H   UNL     1      46.865   7.366  15.327  0.00  0.00    +0.000 HD
BRANCH   8  19
ATOM     12  C   UNL     1      47.344   4.248  16.416  0.00  0.00    +0.000 A 
ATOM     13  N   UNL     1      47.009   3.275  17.287  0.00  0.00    +0.000 NA
ATOM     14  C   UNL     1      47.756   3.130  18.382  0.00  0.00    +0.000 A 
ATOM     15  N   UNL     1      48.822   3.849  18.725  0.00  0.00    +0.000 NA
ATOM     16  C   UNL     1      49.128   4.799  17.826  0.00  0.00    +0.000 A 
ATOM     17  S   UNL     1      50.460   5.813  18.101  0.00  0.00    +0.000 S 
ATOM     18  C   UNL     1      50.185   6.651  16.648  0.00  0.00    +0.000 A 
ATOM     19  C   UNL     1      49.091   6.186  15.928  0.00  0.00    +0.000 A 
ATOM     20  C   UNL     1      48.457   5.075  16.640  0.00  0.00    +0.000 A 
BRANCH  12  22
ATOM     21  C   UNL     1      47.125   3.645  14.170  0.00  0.00    +0.000 C 
ATOM     22  O   UNL     1      46.587   4.375  15.269  0.00  0.00    +0.000 OA
ENDBRANCH  12  22
ENDBRANCH   8  19
ENDBRANCH   7  10
ENDBRANCH   1   7
BRANCH   4  23
ATOM     23  C   UNL     1      43.672   4.719  10.050  0.00  0.00    +0.000 C 
BRANCH  23  24
ATOM     24  N   UNL     1      44.377   4.214   8.873  0.00  0.00    +0.000 NA
ATOM     25  H   UNL     1      45.045   4.924   8.571  0.00  0.00    +0.000 HD
BRANCH  24  26
ATOM     26  C   UNL     1      45.123   2.966   9.111  0.00  0.00    +0.000 C 
ATOM     27  C   UNL     1      44.209   1.755   9.358  0.00  0.00    +0.000 C 
BRANCH  26  28
ATOM     28  C   UNL     1      46.032   2.675   7.919  0.00  0.00    +0.000 A 
ATOM     29  C   UNL     1      46.719   1.455   7.813  0.00  0.00    +0.000 A 
ATOM     30  C   UNL     1      47.519   1.182   6.698  0.00  0.00    +0.000 A 
ATOM     31  C   UNL     1      47.648   2.124   5.679  0.00  0.00    +0.000 A 
ATOM     32  C   UNL     1      46.987   3.343   5.777  0.00  0.00    +0.000 A 
ATOM     33  C   UNL     1      46.186   3.619   6.890  0.00  0.00    +0.000 A 
ENDBRANCH  26  28
ENDBRANCH  24  26
ENDBRANCH  23  24
ENDBRANCH   4  23
TORSDOF 8
ENDMDL
MODEL 2
REMARK VINA RESULT:    -7.897      1.906      2.521
REMARK INTER + INTRA:         -13.028
REMARK INTER:                 -12.031
REMARK INTRA:                  -0.997
REMARK UNBOUND:                -1.438
REMARK  Name = 
REMARK  10 active torsions:
REMARK  status: ('A' for Active; 'I' for Inactive)
REMARK    1  A    between atoms: C_1  and  O_2
REMARK    2  A    between atoms: O_2  and  C_3
REMARK    3  A    between atoms: C_10  and  C_11
REMARK    4  A    between atoms: N_13  and  C_14
REMARK    5  A    between atoms: C_14  and  C_15
REMARK    6  A    between atoms: C_18  and  C_19
REMARK    7  A    between atoms: C_19  and  N_20
REMARK    8  A    between atoms: N_20  and  C_21
REMARK    9  A    between atoms: C_21  and  C_22
REMARK   10  A    between atoms: C_21  and  C_23
REMARK                            x       y       z     vdW  Elec       q    Type
REMARK                         _______ _______ _______ _____ _____    ______ ____
ROOT
ATOM      1  C   UNL     1      47.321   6.061  13.231  0.00  0.00    +0.000 A 
ATOM      2  C   UNL     1      47.016   4.834  13.836  0.00  0.00    +0.000 A 
ATOM      3  C   UNL     1      46.035   3.994  13.293  0.00  0.00    +0.000 A 
ATOM      4  C   UNL     1      45.337   4.359  12.132  0.00  0.00    +0.000 A 
ATOM      5  C   UNL     1      45.662   5.575  11.517  0.00  0.00    +0.000 A 
ATOM      6  C   UNL     1      46.647   6.411  12.055  0.00  0.00    +0.000 A 
ENDROOT
BRANCH   1   7
ATOM      7  C   UNL     1      48.381   6.968  13.805  0.00  0.00    +0.000 C 
BRANCH   7  10
ATOM      8  C   UNL     1      49.148   6.799  16.140  0.00  0.00    +0.000 C 
ATOM      9  O   UNL     1      50.214   6.293  15.794  0.00  0.00    +0.000 OA
ATOM     10  N   UNL     1      48.197   7.152  15.223  0.00  0.00    +0.000 N 
ATOM     11  H   UNL     1      47.304   7.509  15.531  0.00  0.00    +0.000 HD
BRANCH   8  19
ATOM     12  C   UNL     1      48.892   4.758  18.899  0.00  0.00    +0.000 A 
ATOM     13  N   UNL     1      48.738   4.202  20.118  0.00  0.00    +0.000 NA
ATOM     14  C   UNL     1      48.427   5.004  21.138  0.00  0.00    +0.000 A 
ATOM     15  N   UNL     1      48.246   6.322  21.093  0.00  0.00    +0.000 NA
ATOM     16  C   UNL     1      48.417   6.836  19.863  0.00  0.00    +0.000 A 
ATOM     17  S   UNL     1      48.226   8.503  19.619  0.00  0.00    +0.000 S 
ATOM     18  C   UNL     1      48.575   8.352  17.963  0.00  0.00    +0.000 A 
ATOM     19  C   UNL     1      48.844   7.049  17.561  0.00  0.00    +0.000 A 
ATOM     20  C   UNL     1      48.747   6.141  18.705  0.00  0.00    +0.000 A 
BRANCH  12  22
ATOM     21  C   UNL     1      48.115   3.382  17.178  0.00  0.00    +0.000 C 
ATOM     22  O   UNL     1      49.244   3.929  17.854  0.00  0.00    +0.000 OA
ENDBRANCH  12  22
ENDBRANCH   8  19
ENDBRANCH   7  10
ENDBRANCH   1   7
BRANCH   4  23
ATOM     23  C   UNL     1      44.292   3.442  11.523  0.00  0.00    +0.000 C 
BRANCH  23  24
ATOM     24  N   UNL     1      44.872   2.538  10.531  0.00  0.00    +0.000 NA
ATOM     25  H   UNL     1      44.561   1.589  10.741  0.00  0.00    +0.000 HD
BRANCH  24  26
ATOM     26  C   UNL     1      44.482   2.842   9.143  0.00  0.00    +0.000 C 
ATOM     27  C   UNL     1      44.095   4.314   8.933  0.00  0.00    +0.000 C 
BRANCH  26  28
ATOM     28  C   UNL     1      45.627   2.483   8.197  0.00  0.00    +0.000 A 
ATOM     29  C   UNL     1      46.171   3.439   7.325  0.00  0.00    +0.000 A 
ATOM     30  C   UNL     1      47.245   3.111   6.489  0.00  0.00    +0.000 A 
ATOM     31  C   UNL     1      47.784   1.826   6.510  0.00  0.00    +0.000 A 
ATOM     32  C   UNL     1      47.246   0.865   7.358  0.00  0.00    +0.000 A 
ATOM     33  C   UNL     1      46.173   1.189   8.194  0.00  0.00    +0.000 A 
ENDBRANCH  26  28
ENDBRANCH  24  26
ENDBRANCH  23  24
ENDBRANCH   4  23
TORSDOF 8
ENDMDL
MODEL 3
REMARK VINA RESULT:    -7.830      2.039      2.737
REMARK INTER + INTRA:         -12.929
REMARK INTER:                 -11.623
REMARK INTRA:                  -1.306
REMARK UNBOUND:                -1.438
REMARK  Name = 
REMARK  10 active torsions:
REMARK  status: ('A' for Active; 'I' for Inactive)
REMARK    1  A    between atoms: C_1  and  O_2
REMARK    2  A    between atoms: O_2  and  C_3
REMARK    3  A    between atoms: C_10  and  C_11
REMARK    4  A    between atoms: N_13  and  C_14
REMARK    5  A    between atoms: C_14  and  C_15
REMARK    6  A    between atoms: C_18  and  C_19
REMARK    7  A    between atoms: C_19  and  N_20
REMARK    8  A    between atoms: N_20  and  C_21
REMARK    9  A    between atoms: C_21  and  C_22
REMARK   10  A    between atoms: C_21  and  C_23
REMARK                            x       y       z     vdW  Elec       q    Type
REMARK                         _______ _______ _______ _____ _____    ______ ____
ROOT
ATOM      1  C   UNL     1      46.952   6.270  12.836  0.00  0.00    +0.000 A 
ATOM      2  C   UNL     1      46.821   6.681  11.502  0.00  0.00    +0.000 A 
ATOM      3  C   UNL     1      45.766   6.210  10.709  0.00  0.00    +0.000 A 
ATOM      4  C   UNL     1      44.814   5.321  11.233  0.00  0.00    +0.000 A 
ATOM      5  C   UNL     1      44.934   4.933  12.574  0.00  0.00    +0.000 A 
ATOM      6  C   UNL     1      45.985   5.408  13.367  0.00  0.00    +0.000 A 
ENDROOT
BRANCH   1   7
ATOM      7  C   UNL     1      48.081   6.778  13.697  0.00  0.00    +0.000 C 
BRANCH   7  10
ATOM      8  C   UNL     1      49.010   6.264  15.921  0.00  0.00    +0.000 C 
ATOM      9  O   UNL     1      50.135   6.619  15.575  0.00  0.00    +0.000 OA
ATOM     10  N   UNL     1      47.953   6.308  15.054  0.00  0.00    +0.000 N 
ATOM     11  H   UNL     1      47.050   5.955  15.337  0.00  0.00    +0.000 HD
BRANCH   8  19
ATOM     12  C   UNL     1      47.905   7.781  18.806  0.00  0.00    +0.000 A 
ATOM     13  N   UNL     1      47.492   8.112  20.046  0.00  0.00    +0.000 NA
ATOM     14  C   UNL     1      47.460   7.153  20.973  0.00  0.00    +0.000 A 
ATOM     15  N   UNL     1      47.793   5.875  20.813  0.00  0.00    +0.000 NA
ATOM     16  C   UNL     1      48.189   5.585  19.563  0.00  0.00    +0.000 A 
ATOM     17  S   UNL     1      48.652   3.999  19.177  0.00  0.00    +0.000 S 
ATOM     18  C   UNL     1      48.980   4.433  17.567  0.00  0.00    +0.000 A 
ATOM     19  C   UNL     1      48.746   5.774  17.286  0.00  0.00    +0.000 A 
ATOM     20  C   UNL     1      48.273   6.463  18.488  0.00  0.00    +0.000 A 
BRANCH  12  22
ATOM     21  C   UNL     1      49.125   9.510  17.816  0.00  0.00    +0.000 C 
ATOM     22  O   UNL     1      47.907   8.769  17.843  0.00  0.00    +0.000 OA
ENDBRANCH  12  22
ENDBRANCH   8  19
ENDBRANCH   7  10
ENDBRANCH   1   7
BRANCH   4  23
ATOM     23  C   UNL     1      43.653   4.828  10.389  0.00  0.00    +0.000 C 
BRANCH  23  24
ATOM     24  N   UNL     1      44.108   4.168   9.167  0.00  0.00    +0.000 NA
ATOM     25  H   UNL     1      44.682   4.829   8.640  0.00  0.00    +0.000 HD
BRANCH  24  26
ATOM     26  C   UNL     1      44.917   2.959   9.403  0.00  0.00    +0.000 C 
ATOM     27  C   UNL     1      44.067   1.715   9.707  0.00  0.00    +0.000 C 
BRANCH  26  28
ATOM     28  C   UNL     1      45.797   2.683   8.186  0.00  0.00    +0.000 A 
ATOM     29  C   UNL     1      46.025   3.674   7.217  0.00  0.00    +0.000 A 
ATOM     30  C   UNL     1      46.864   3.423   6.126  0.00  0.00    +0.000 A 
ATOM     31  C   UNL     1      47.482   2.182   5.985  0.00  0.00    +0.000 A 
ATOM     32  C   UNL     1      47.254   1.186   6.929  0.00  0.00    +0.000 A 
ATOM     33  C   UNL     1      46.416   1.433   8.020  0.00  0.00    +0.000 A 
ENDBRANCH  26  28
ENDBRANCH  24  26
ENDBRANCH  23  24
ENDBRANCH   4  23
TORSDOF 8
ENDMDL
MODEL 4
REMARK VINA RESULT:    -7.512      2.018      2.740
REMARK INTER + INTRA:         -12.463
REMARK INTER:                 -11.072
REMARK INTRA:                  -1.391
REMARK UNBOUND:                -1.438
REMARK  Name = 
REMARK  10 active torsions:
REMARK  status: ('A' for Active; 'I' for Inactive)
REMARK    1  A    between atoms: C_1  and  O_2
REMARK    2  A    between atoms: O_2  and  C_3
REMARK    3  A    between atoms: C_10  and  C_11
REMARK    4  A    between atoms: N_13  and  C_14
REMARK    5  A    between atoms: C_14  and  C_15
REMARK    6  A    between atoms: C_18  and  C_19
REMARK    7  A    between atoms: C_19  and  N_20
REMARK    8  A    between atoms: N_20  and  C_21
REMARK    9  A    between atoms: C_21  and  C_22
REMARK   10  A    between atoms: C_21  and  C_23
REMARK                            x       y       z     vdW  Elec       q    Type
REMARK                         _______ _______ _______ _____ _____    ______ ____
ROOT
ATOM      1  C   UNL     1      47.400   6.558  13.575  0.00  0.00    +0.000 A 
ATOM      2  C   UNL     1      46.677   6.835  12.406  0.00  0.00    +0.000 A 
ATOM      3  C   UNL     1      45.795   5.887  11.870  0.00  0.00    +0.000 A 
ATOM      4  C   UNL     1      45.615   4.641  12.489  0.00  0.00    +0.000 A 
ATOM      5  C   UNL     1      46.321   4.377  13.670  0.00  0.00    +0.000 A 
ATOM      6  C   UNL     1      47.196   5.327  14.210  0.00  0.00    +0.000 A 
ENDROOT
BRANCH   1   7
ATOM      7  C   UNL     1      48.345   7.575  14.163  0.00  0.00    +0.000 C 
BRANCH   7  10
ATOM      8  C   UNL     1      50.208   7.540  15.776  0.00  0.00    +0.000 C 
ATOM      9  O   UNL     1      49.941   8.675  16.166  0.00  0.00    +0.000 OA
ATOM     10  N   UNL     1      49.474   6.936  14.792  0.00  0.00    +0.000 N 
ATOM     11  H   UNL     1      49.746   6.029  14.442  0.00  0.00    +0.000 HD
BRANCH   8  19
ATOM     12  C   UNL     1      50.456   4.431  17.230  0.00  0.00    +0.000 A 
ATOM     13  N   UNL     1      50.831   3.278  17.820  0.00  0.00    +0.000 NA
ATOM     14  C   UNL     1      52.115   3.135  18.157  0.00  0.00    +0.000 A 
ATOM     15  N   UNL     1      53.093   4.017  17.973  0.00  0.00    +0.000 NA
ATOM     16  C   UNL     1      52.679   5.146  17.374  0.00  0.00    +0.000 A 
ATOM     17  S   UNL     1      53.796   6.385  17.060  0.00  0.00    +0.000 S 
ATOM     18  C   UNL     1      52.593   7.360  16.362  0.00  0.00    +0.000 A 
ATOM     19  C   UNL     1      51.331   6.777  16.348  0.00  0.00    +0.000 A 
ATOM     20  C   UNL     1      51.387   5.447  16.958  0.00  0.00    +0.000 A 
BRANCH  12  22
ATOM     21  C   UNL     1      48.316   5.089  17.897  0.00  0.00    +0.000 C 
ATOM     22  O   UNL     1      49.135   4.563  16.856  0.00  0.00    +0.000 OA
ENDBRANCH  12  22
ENDBRANCH   8  19
ENDBRANCH   7  10
ENDBRANCH   1   7
BRANCH   4  23
ATOM     23  C   UNL     1      44.641   3.620  11.929  0.00  0.00    +0.000 C 
BRANCH  23  24
ATOM     24  N   UNL     1      45.251   2.804  10.880  0.00  0.00    +0.000 NA
ATOM     25  H   UNL     1      45.245   1.830  11.187  0.00  0.00    +0.000 HD
BRANCH  24  26
ATOM     26  C   UNL     1      44.551   2.871   9.585  0.00  0.00    +0.000 C 
ATOM     27  C   UNL     1      43.895   4.236   9.324  0.00  0.00    +0.000 C 
BRANCH  26  28
ATOM     28  C   UNL     1      45.530   2.559   8.455  0.00  0.00    +0.000 A 
ATOM     29  C   UNL     1      45.919   3.550   7.540  0.00  0.00    +0.000 A 
ATOM     30  C   UNL     1      46.845   3.264   6.531  0.00  0.00    +0.000 A 
ATOM     31  C   UNL     1      47.391   1.986   6.420  0.00  0.00    +0.000 A 
ATOM     32  C   UNL     1      47.004   0.990   7.310  0.00  0.00    +0.000 A 
ATOM     33  C   UNL     1      46.078   1.273   8.319  0.00  0.00    +0.000 A 
ENDBRANCH  26  28
ENDBRANCH  24  26
ENDBRANCH  23  24
ENDBRANCH   4  23
TORSDOF 8
ENDMDL
MODEL 5
REMARK VINA RESULT:    -7.237      1.832      2.910
REMARK INTER + INTRA:         -12.059
REMARK INTER:                 -10.886
REMARK INTRA:                  -1.173
REMARK UNBOUND:                -1.438
REMARK  Name = 
REMARK  10 active torsions:
REMARK  status: ('A' for Active; 'I' for Inactive)
REMARK    1  A    between atoms: C_1  and  O_2
REMARK    2  A    between atoms: O_2  and  C_3
REMARK    3  A    between atoms: C_10  and  C_11
REMARK    4  A    between atoms: N_13  and  C_14
REMARK    5  A    between atoms: C_14  and  C_15
REMARK    6  A    between atoms: C_18  and  C_19
REMARK    7  A    between atoms: C_19  and  N_20
REMARK    8  A    between atoms: N_20  and  C_21
REMARK    9  A    between atoms: C_21  and  C_22
REMARK   10  A    between atoms: C_21  and  C_23
REMARK                            x       y       z     vdW  Elec       q    Type
REMARK                         _______ _______ _______ _____ _____    ______ ____
ROOT
ATOM      1  C   UNL     1      46.594   6.676  12.926  0.00  0.00    +0.000 A 
ATOM      2  C   UNL     1      46.150   7.312  11.758  0.00  0.00    +0.000 A 
ATOM      3  C   UNL     1      45.183   6.710  10.941  0.00  0.00    +0.000 A 
ATOM      4  C   UNL     1      44.636   5.461  11.274  0.00  0.00    +0.000 A 
ATOM      5  C   UNL     1      45.064   4.842  12.455  0.00  0.00    +0.000 A 
ATOM      6  C   UNL     1      46.025   5.445  13.275  0.00  0.00    +0.000 A 
ENDROOT
BRANCH   1   7
ATOM      7  C   UNL     1      47.629   7.320  13.815  0.00  0.00    +0.000 C 
BRANCH   7  10
ATOM      8  C   UNL     1      48.747   6.734  15.931  0.00  0.00    +0.000 C 
ATOM      9  O   UNL     1      48.804   7.914  16.272  0.00  0.00    +0.000 OA
ATOM     10  N   UNL     1      48.191   6.365  14.737  0.00  0.00    +0.000 N 
ATOM     11  H   UNL     1      48.210   5.398  14.447  0.00  0.00    +0.000 HD
BRANCH   8  19
ATOM     12  C   UNL     1      51.928   5.789  16.844  0.00  0.00    +0.000 A 
ATOM     13  N   UNL     1      53.039   5.220  17.355  0.00  0.00    +0.000 NA
ATOM     14  C   UNL     1      52.890   4.160  18.152  0.00  0.00    +0.000 A 
ATOM     15  N   UNL     1      51.745   3.585  18.512  0.00  0.00    +0.000 NA
ATOM     16  C   UNL     1      50.665   4.188  17.990  0.00  0.00    +0.000 A 
ATOM     17  S   UNL     1      49.118   3.587  18.343  0.00  0.00    +0.000 S 
ATOM     18  C   UNL     1      48.380   4.786  17.391  0.00  0.00    +0.000 A 
ATOM     19  C   UNL     1      49.278   5.661  16.791  0.00  0.00    +0.000 A 
ATOM     20  C   UNL     1      50.649   5.298  17.152  0.00  0.00    +0.000 A 
BRANCH  12  22
ATOM     21  C   UNL     1      52.492   8.055  16.780  0.00  0.00    +0.000 C 
ATOM     22  O   UNL     1      52.085   6.903  16.046  0.00  0.00    +0.000 OA
ENDBRANCH  12  22
ENDBRANCH   8  19
ENDBRANCH   7  10
ENDBRANCH   1   7
BRANCH   4  23
ATOM     23  C   UNL     1      43.569   4.817  10.409  0.00  0.00    +0.000 C 
BRANCH  23  24
ATOM     24  N   UNL     1      44.134   4.220   9.200  0.00  0.00    +0.000 NA
ATOM     25  H   UNL     1      44.740   4.911   8.754  0.00  0.00    +0.000 HD
BRANCH  24  26
ATOM     26  C   UNL     1      44.939   3.011   9.447  0.00  0.00    +0.000 C 
ATOM     27  C   UNL     1      44.086   1.777   9.782  0.00  0.00    +0.000 C 
BRANCH  26  28
ATOM     28  C   UNL     1      45.803   2.709   8.225  0.00  0.00    +0.000 A 
ATOM     29  C   UNL     1      46.043   3.689   7.248  0.00  0.00    +0.000 A 
ATOM     30  C   UNL     1      46.868   3.414   6.151  0.00  0.00    +0.000 A 
ATOM     31  C   UNL     1      47.459   2.159   6.014  0.00  0.00    +0.000 A 
ATOM     32  C   UNL     1      47.218   1.174   6.965  0.00  0.00    +0.000 A 
ATOM     33  C   UNL     1      46.394   1.446   8.062  0.00  0.00    +0.000 A 
ENDBRANCH  26  28
ENDBRANCH  24  26
ENDBRANCH  23  24
ENDBRANCH   4  23
TORSDOF 8
ENDMDL
MODEL 6
REMARK VINA RESULT:    -7.046      3.322      8.036
REMARK INTER + INTRA:         -11.778
REMARK INTER:                  -9.862
REMARK INTRA:                  -1.916
REMARK UNBOUND:                -1.438
REMARK  Name = 
REMARK  10 active torsions:
REMARK  status: ('A' for Active; 'I' for Inactive)
REMARK    1  A    between atoms: C_1  and  O_2
REMARK    2  A    between atoms: O_2  and  C_3
REMARK    3  A    between atoms: C_10  and  C_11
REMARK    4  A    between atoms: N_13  and  C_14
REMARK    5  A    between atoms: C_14  and  C_15
REMARK    6  A    between atoms: C_18  and  C_19
REMARK    7  A    between atoms: C_19  and  N_20
REMARK    8  A    between atoms: N_20  and  C_21
REMARK    9  A    between atoms: C_21  and  C_22
REMARK   10  A    between atoms: C_21  and  C_23
REMARK                            x       y       z     vdW  Elec       q    Type
REMARK                         _______ _______ _______ _____ _____    ______ ____
ROOT
ATOM      1  C   UNL     1      48.563   7.991  13.236  0.00  0.00    +0.000 A 
ATOM      2  C   UNL     1      48.093   9.072  13.994  0.00  0.00    +0.000 A 
ATOM      3  C   UNL     1      48.190   9.062  15.392  0.00  0.00    +0.000 A 
ATOM      4  C   UNL     1      48.762   7.971  16.065  0.00  0.00    +0.000 A 
ATOM      5  C   UNL     1      49.254   6.904  15.303  0.00  0.00    +0.000 A 
ATOM      6  C   UNL     1      49.163   6.917  13.906  0.00  0.00    +0.000 A 
ENDROOT
BRANCH   1   7
ATOM      7  C   UNL     1      48.469   7.998  11.731  0.00  0.00    +0.000 C 
BRANCH   7  10
ATOM      8  C   UNL     1      46.326   6.900  11.207  0.00  0.00    +0.000 C 
ATOM      9  O   UNL     1      45.688   7.880  11.586  0.00  0.00    +0.000 OA
ATOM     10  N   UNL     1      47.693   6.881  11.253  0.00  0.00    +0.000 N 
ATOM     11  H   UNL     1      48.197   6.044  10.996  0.00  0.00    +0.000 HD
BRANCH   8  19
ATOM     12  C   UNL     1      44.496   4.389  12.686  0.00  0.00    +0.000 A 
ATOM     13  N   UNL     1      43.753   3.308  12.998  0.00  0.00    +0.000 NA
ATOM     14  C   UNL     1      43.402   2.482  12.010  0.00  0.00    +0.000 A 
ATOM     15  N   UNL     1      43.706   2.603  10.721  0.00  0.00    +0.000 NA
ATOM     16  C   UNL     1      44.437   3.697  10.452  0.00  0.00    +0.000 A 
ATOM     17  S   UNL     1      44.916   4.012   8.855  0.00  0.00    +0.000 S 
ATOM     18  C   UNL     1      45.724   5.432   9.324  0.00  0.00    +0.000 A 
ATOM     19  C   UNL     1      45.649   5.699  10.686  0.00  0.00    +0.000 A 
ATOM     20  C   UNL     1      44.877   4.654  11.360  0.00  0.00    +0.000 A 
BRANCH  12  22
ATOM     21  C   UNL     1      46.131   5.013  14.233  0.00  0.00    +0.000 C 
ATOM     22  O   UNL     1      44.829   5.256  13.705  0.00  0.00    +0.000 OA
ENDBRANCH  12  22
ENDBRANCH   8  19
ENDBRANCH   7  10
ENDBRANCH   1   7
BRANCH   4  23
ATOM     23  C   UNL     1      48.896   7.965  17.577  0.00  0.00    +0.000 C 
BRANCH  23  24
ATOM     24  N   UNL     1      47.824   7.203  18.216  0.00  0.00    +0.000 NA
ATOM     25  H   UNL     1      47.263   6.764  17.484  0.00  0.00    +0.000 HD
BRANCH  24  26
ATOM     26  C   UNL     1      48.299   6.138  19.116  0.00  0.00    +0.000 C 
ATOM     27  C   UNL     1      47.361   5.893  20.309  0.00  0.00    +0.000 C 
BRANCH  26  28
ATOM     28  C   UNL     1      48.468   4.838  18.333  0.00  0.00    +0.000 A 
ATOM     29  C   UNL     1      47.384   4.254  17.657  0.00  0.00    +0.000 A 
ATOM     30  C   UNL     1      47.557   3.084  16.911  0.00  0.00    +0.000 A 
ATOM     31  C   UNL     1      48.811   2.480  16.832  0.00  0.00    +0.000 A 
ATOM     32  C   UNL     1      49.890   3.038  17.507  0.00  0.00    +0.000 A 
ATOM     33  C   UNL     1      49.720   4.208  18.255  0.00  0.00    +0.000 A 
ENDBRANCH  26  28
ENDBRANCH  24  26
ENDBRANCH  23  24
ENDBRANCH   4  23
TORSDOF 8
ENDMDL
MODEL 7
REMARK VINA RESULT:    -7.025      2.955      3.755
REMARK INTER + INTRA:         -11.747
REMARK INTER:                 -10.742
REMARK INTRA:                  -1.005
REMARK UNBOUND:                -1.438
REMARK  Name = 
REMARK  10 active torsions:
REMARK  status: ('A' for Active; 'I' for Inactive)
REMARK    1  A    between atoms: C_1  and  O_2
REMARK    2  A    between atoms: O_2  and  C_3
REMARK    3  A    between atoms: C_10  and  C_11
REMARK    4  A    between atoms: N_13  and  C_14
REMARK    5  A    between atoms: C_14  and  C_15
REMARK    6  A    between atoms: C_18  and  C_19
REMARK    7  A    between atoms: C_19  and  N_20
REMARK    8  A    between atoms: N_20  and  C_21
REMARK    9  A    between atoms: C_21  and  C_22
REMARK   10  A    between atoms: C_21  and  C_23
REMARK                            x       y       z     vdW  Elec       q    Type
REMARK                         _______ _______ _______ _____ _____    ______ ____
ROOT
ATOM      1  C   UNL     1      46.827   5.474  13.343  0.00  0.00    +0.000 A 
ATOM      2  C   UNL     1      46.776   6.311  12.219  0.00  0.00    +0.000 A 
ATOM      3  C   UNL     1      45.767   6.155  11.258  0.00  0.00    +0.000 A 
ATOM      4  C   UNL     1      44.786   5.163  11.399  0.00  0.00    +0.000 A 
ATOM      5  C   UNL     1      44.826   4.345  12.536  0.00  0.00    +0.000 A 
ATOM      6  C   UNL     1      45.829   4.504  13.499  0.00  0.00    +0.000 A 
ENDROOT
BRANCH   1   7
ATOM      7  C   UNL     1      47.904   5.639  14.385  0.00  0.00    +0.000 C 
BRANCH   7  10
ATOM      8  C   UNL     1      48.660   7.323  16.018  0.00  0.00    +0.000 C 
ATOM      9  O   UNL     1      49.412   6.515  16.560  0.00  0.00    +0.000 OA
ATOM     10  N   UNL     1      47.885   6.966  14.949  0.00  0.00    +0.000 N 
ATOM     11  H   UNL     1      47.228   7.625  14.557  0.00  0.00    +0.000 HD
BRANCH   8  19
ATOM     12  C   UNL     1      47.345   8.760  18.854  0.00  0.00    +0.000 A 
ATOM     13  N   UNL     1      46.922   9.567  19.848  0.00  0.00    +0.000 NA
ATOM     14  C   UNL     1      47.114  10.881  19.714  0.00  0.00    +0.000 A 
ATOM     15  N   UNL     1      47.689  11.504  18.689  0.00  0.00    +0.000 NA
ATOM     16  C   UNL     1      48.105  10.664  17.727  0.00  0.00    +0.000 A 
ATOM     17  S   UNL     1      48.863  11.286  16.343  0.00  0.00    +0.000 S 
ATOM     18  C   UNL     1      49.056   9.731  15.688  0.00  0.00    +0.000 A 
ATOM     19  C   UNL     1      48.558   8.714  16.494  0.00  0.00    +0.000 A 
ATOM     20  C   UNL     1      47.986   9.279  17.717  0.00  0.00    +0.000 A 
BRANCH  12  22
ATOM     21  C   UNL     1      47.635   6.928  20.274  0.00  0.00    +0.000 C 
ATOM     22  O   UNL     1      47.172   7.400  19.012  0.00  0.00    +0.000 OA
ENDBRANCH  12  22
ENDBRANCH   8  19
ENDBRANCH   7  10
ENDBRANCH   1   7
BRANCH   4  23
ATOM     23  C   UNL     1      43.675   5.007  10.377  0.00  0.00    +0.000 C 
BRANCH  23  24
ATOM     24  N   UNL     1      44.130   4.297   9.182  0.00  0.00    +0.000 NA
ATOM     25  H   UNL     1      44.716   4.930   8.637  0.00  0.00    +0.000 HD
BRANCH  24  26
ATOM     26  C   UNL     1      44.920   3.087   9.467  0.00  0.00    +0.000 C 
ATOM     27  C   UNL     1      44.055   1.885   9.879  0.00  0.00    +0.000 C 
BRANCH  26  28
ATOM     28  C   UNL     1      45.749   2.713   8.241  0.00  0.00    +0.000 A 
ATOM     29  C   UNL     1      45.980   3.641   7.213  0.00  0.00    +0.000 A 
ATOM     30  C   UNL     1      46.774   3.302   6.111  0.00  0.00    +0.000 A 
ATOM     31  C   UNL     1      47.342   2.032   6.020  0.00  0.00    +0.000 A 
ATOM     32  C   UNL     1      47.110   1.098   7.023  0.00  0.00    +0.000 A 
ATOM     33  C   UNL     1      46.318   1.434   8.125  0.00  0.00    +0.000 A 
ENDBRANCH  26  28
ENDBRANCH  24  26
ENDBRANCH  23  24
ENDBRANCH   4  23
TORSDOF 8
ENDMDL
MODEL 8
REMARK VINA RESULT:    -6.895      2.424      3.339
REMARK INTER + INTRA:         -11.558
REMARK INTER:                 -10.425
REMARK INTRA:                  -1.133
REMARK UNBOUND:                -1.438
REMARK  Name = 
REMARK  10 active torsions:
REMARK  status: ('A' for Active; 'I' for Inactive)
REMARK    1  A    between atoms: C_1  and  O_2
REMARK    2  A    between atoms: O_2  and  C_3
REMARK    3  A    between atoms: C_10  and  C_11
REMARK    4  A    between atoms: N_13  and  C_14
REMARK    5  A    between atoms: C_14  and  C_15
REMARK    6  A    between atoms: C_18  and  C_19
REMARK    7  A    between atoms: C_19  and  N_20
REMARK    8  A    between atoms: N_20  and  C_21
REMARK    9  A    between atoms: C_21  and  C_22
REMARK   10  A    between atoms: C_21  and  C_23
REMARK                            x       y       z     vdW  Elec       q    Type
REMARK                         _______ _______ _______ _____ _____    ______ ____
ROOT
ATOM      1  C   UNL     1      48.488   7.339  14.888  0.00  0.00    +0.000 A 
ATOM      2  C   UNL     1      47.880   8.249  14.012  0.00  0.00    +0.000 A 
ATOM      3  C   UNL     1      46.983   7.806  13.031  0.00  0.00    +0.000 A 
ATOM      4  C   UNL     1      46.669   6.444  12.905  0.00  0.00    +0.000 A 
ATOM      5  C   UNL     1      47.260   5.541  13.799  0.00  0.00    +0.000 A 
ATOM      6  C   UNL     1      48.151   5.984  14.783  0.00  0.00    +0.000 A 
ENDROOT
BRANCH   1   7
ATOM      7  C   UNL     1      49.450   7.808  15.951  0.00  0.00    +0.000 C 
BRANCH   7  10
ATOM      8  C   UNL     1      50.392   6.235  17.597  0.00  0.00    +0.000 C 
ATOM      9  O   UNL     1      49.645   6.652  18.480  0.00  0.00    +0.000 OA
ATOM     10  N   UNL     1      50.359   6.756  16.333  0.00  0.00    +0.000 N 
ATOM     11  H   UNL     1      51.022   6.445  15.639  0.00  0.00    +0.000 HD
BRANCH   8  19
ATOM     12  C   UNL     1      50.294   2.821  17.176  0.00  0.00    +0.000 A 
ATOM     13  N   UNL     1      50.523   1.494  17.112  0.00  0.00    +0.000 NA
ATOM     14  C   UNL     1      51.703   1.040  17.539  0.00  0.00    +0.000 A 
ATOM     15  N   UNL     1      52.706   1.761  18.032  0.00  0.00    +0.000 NA
ATOM     16  C   UNL     1      52.441   3.077  18.070  0.00  0.00    +0.000 A 
ATOM     17  S   UNL     1      53.610   4.150  18.670  0.00  0.00    +0.000 S 
ATOM     18  C   UNL     1      52.594   5.485  18.404  0.00  0.00    +0.000 A 
ATOM     19  C   UNL     1      51.360   5.154  17.858  0.00  0.00    +0.000 A 
ATOM     20  C   UNL     1      51.271   3.707  17.660  0.00  0.00    +0.000 A 
BRANCH  12  22
ATOM     21  C   UNL     1      48.063   3.274  17.698  0.00  0.00    +0.000 C 
ATOM     22  O   UNL     1      49.085   3.289  16.705  0.00  0.00    +0.000 OA
ENDBRANCH  12  22
ENDBRANCH   8  19
ENDBRANCH   7  10
ENDBRANCH   1   7
BRANCH   4  23
ATOM     23  C   UNL     1      45.677   5.961  11.864  0.00  0.00    +0.000 C 
BRANCH  23  24
ATOM     24  N   UNL     1      45.459   4.518  11.947  0.00  0.00    +0.000 NA
ATOM     25  H   UNL     1      45.153   4.294  12.895  0.00  0.00    +0.000 HD
BRANCH  24  26
ATOM     26  C   UNL     1      44.438   4.010  11.014  0.00  0.00    +0.000 C 
ATOM     27  C   UNL     1      43.356   5.049  10.680  0.00  0.00    +0.000 C 
BRANCH  26  28
ATOM     28  C   UNL     1      45.107   3.548   9.721  0.00  0.00    +0.000 A 
ATOM     29  C   UNL     1      45.271   2.182   9.439  0.00  0.00    +0.000 A 
ATOM     30  C   UNL     1      45.851   1.768   8.234  0.00  0.00    +0.000 A 
ATOM     31  C   UNL     1      46.277   2.711   7.299  0.00  0.00    +0.000 A 
ATOM     32  C   UNL     1      46.135   4.067   7.571  0.00  0.00    +0.000 A 
ATOM     33  C   UNL     1      45.556   4.484   8.775  0.00  0.00    +0.000 A 
ENDBRANCH  26  28
ENDBRANCH  24  26
ENDBRANCH  23  24
ENDBRANCH   4  23
TORSDOF 8
ENDMDL
MODEL 9
REMARK VINA RESULT:    -6.757      2.387      3.703
REMARK INTER + INTRA:         -11.355
REMARK INTER:                 -10.297
REMARK INTRA:                  -1.058
REMARK UNBOUND:                -1.438
REMARK  Name = 
REMARK  10 active torsions:
REMARK  status: ('A' for Active; 'I' for Inactive)
REMARK    1  A    between atoms: C_1  and  O_2
REMARK    2  A    between atoms: O_2  and  C_3
REMARK    3  A    between atoms: C_10  and  C_11
REMARK    4  A    between atoms: N_13  and  C_14
REMARK    5  A    between atoms: C_14  and  C_15
REMARK    6  A    between atoms: C_18  and  C_19
REMARK    7  A    between atoms: C_19  and  N_20
REMARK    8  A    between atoms: N_20  and  C_21
REMARK    9  A    between atoms: C_21  and  C_22
REMARK   10  A    between atoms: C_21  and  C_23
REMARK                            x       y       z     vdW  Elec       q    Type
REMARK                         _______ _______ _______ _____ _____    ______ ____
ROOT
ATOM      1  C   UNL     1      46.904   4.678  14.175  0.00  0.00    +0.000 A 
ATOM      2  C   UNL     1      45.823   4.064  13.526  0.00  0.00    +0.000 A 
ATOM      3  C   UNL     1      45.350   4.558  12.303  0.00  0.00    +0.000 A 
ATOM      4  C   UNL     1      45.948   5.674  11.698  0.00  0.00    +0.000 A 
ATOM      5  C   UNL     1      47.043   6.269  12.337  0.00  0.00    +0.000 A 
ATOM      6  C   UNL     1      47.520   5.772  13.556  0.00  0.00    +0.000 A 
ENDROOT
BRANCH   1   7
ATOM      7  C   UNL     1      47.424   4.149  15.488  0.00  0.00    +0.000 C 
BRANCH   7  10
ATOM      8  C   UNL     1      47.875   4.955  17.773  0.00  0.00    +0.000 C 
ATOM      9  O   UNL     1      48.197   3.829  18.147  0.00  0.00    +0.000 OA
ATOM     10  N   UNL     1      47.478   5.189  16.484  0.00  0.00    +0.000 N 
ATOM     11  H   UNL     1      47.158   6.107  16.212  0.00  0.00    +0.000 HD
BRANCH   8  19
ATOM     12  C   UNL     1      48.707   8.272  17.391  0.00  0.00    +0.000 A 
ATOM     13  N   UNL     1      48.962   9.590  17.517  0.00  0.00    +0.000 NA
ATOM     14  C   UNL     1      48.796  10.148  18.718  0.00  0.00    +0.000 A 
ATOM     15  N   UNL     1      48.397   9.542  19.833  0.00  0.00    +0.000 NA
ATOM     16  C   UNL     1      48.145   8.234  19.661  0.00  0.00    +0.000 A 
ATOM     17  S   UNL     1      47.625   7.302  20.980  0.00  0.00    +0.000 S 
ATOM     18  C   UNL     1      47.541   5.902  20.021  0.00  0.00    +0.000 A 
ATOM     19  C   UNL     1      47.899   6.105  18.693  0.00  0.00    +0.000 A 
ATOM     20  C   UNL     1      48.262   7.508  18.482  0.00  0.00    +0.000 A 
BRANCH  12  22
ATOM     21  C   UNL     1      50.215   7.500  15.782  0.00  0.00    +0.000 C 
ATOM     22  O   UNL     1      48.851   7.706  16.141  0.00  0.00    +0.000 OA
ENDBRANCH  12  22
ENDBRANCH   8  19
ENDBRANCH   7  10
ENDBRANCH   1   7
BRANCH   4  23
ATOM     23  C   UNL     1      45.458   6.197  10.360  0.00  0.00    +0.000 C 
BRANCH  23  24
ATOM     24  N   UNL     1      45.907   5.359   9.250  0.00  0.00    +0.000 NA
ATOM     25  H   UNL     1      46.919   5.249   9.320  0.00  0.00    +0.000 HD
BRANCH  24  26
ATOM     26  C   UNL     1      45.309   4.013   9.235  0.00  0.00    +0.000 C 
ATOM     27  C   UNL     1      43.810   4.022   8.894  0.00  0.00    +0.000 C 
BRANCH  26  28
ATOM     28  C   UNL     1      46.048   3.132   8.230  0.00  0.00    +0.000 A 
ATOM     29  C   UNL     1      46.706   3.693   7.123  0.00  0.00    +0.000 A 
ATOM     30  C   UNL     1      47.413   2.881   6.229  0.00  0.00    +0.000 A 
ATOM     31  C   UNL     1      47.469   1.502   6.425  0.00  0.00    +0.000 A 
ATOM     32  C   UNL     1      46.809   0.931   7.508  0.00  0.00    +0.000 A 
ATOM     33  C   UNL     1      46.101   1.740   8.403  0.00  0.00    +0.000 A 
ENDBRANCH  26  28
ENDBRANCH  24  26
ENDBRANCH  23  24
ENDBRANCH   4  23
TORSDOF 8
ENDMDL
