MODEL 1
REMARK VINA RESULT:    -8.159      0.000      0.000
REMARK INTER + INTRA:         -11.105
REMARK INTER:                 -10.544
REMARK INTRA:                  -0.561
REMARK UNBOUND:                -0.561
REMARK  Name = 
REMARK  5 active torsions:
REMARK  status: ('A' for Active; 'I' for Inactive)
REMARK    1  A    between atoms: C_2  and  C_4
REMARK    2  A    between atoms: C_7  and  N_8
REMARK    3  A    between atoms: N_8  and  C_9
REMARK    4  A    between atoms: C_9  and  C_10
REMARK    5  A    between atoms: C_10  and  C_13
REMARK                            x       y       z     vdW  Elec       q    Type
REMARK                         _______ _______ _______ _____ _____    ______ ____
ROOT
ATOM      1  C   UNL     1      46.249   2.190   7.945  0.00  0.00    +0.000 A 
ATOM      2  C   UNL     1      46.256   3.528   7.582  0.00  0.00    +0.000 A 
ATOM      3  N   UNL     1      45.421   4.442   8.144  0.00  0.00    +0.000 NA
ATOM      4  C   UNL     1      44.578   3.980   9.090  0.00  0.00    +0.000 A 
ATOM      5  C   UNL     1      44.541   2.613   9.396  0.00  0.00    +0.000 A 
ATOM      6  N   UNL     1      45.367   1.682   8.846  0.00  0.00    +0.000 NA
ENDROOT
BRANCH   1   8
ATOM      7  N   UNL     1      47.191  -0.027   7.658  0.00  0.00    +0.000 NA
ATOM      8  C   UNL     1      47.261   1.239   7.391  0.00  0.00    +0.000 C 
ATOM      9  N   UNL     1      48.261   1.718   6.590  0.00  0.00    +0.000 N 
ATOM     10  H   UNL     1      47.931  -0.512   7.146  0.00  0.00    +0.000 HD
ATOM     11  H   UNL     1      49.135   1.211   6.582  0.00  0.00    +0.000 HD
ATOM     12  H   UNL     1      48.374   2.730   6.633  0.00  0.00    +0.000 HD
ENDBRANCH   1   8
BRANCH   4  13
ATOM     13  N   UNL     1      43.691   4.863   9.723  0.00  0.00    +0.000 N 
ATOM     14  H   UNL     1      44.119   5.781   9.776  0.00  0.00    +0.000 HD
BRANCH  13  15
ATOM     15  C   UNL     1      43.194   4.372  11.034  0.00  0.00    +0.000 C 
BRANCH  15  16
ATOM     16  C   UNL     1      43.162   5.504  12.105  0.00  0.00    +0.000 C 
ATOM     17  F   UNL     1      42.378   6.516  11.615  0.00  0.00    +0.000 F 
ATOM     18  F   UNL     1      42.500   5.058  13.217  0.00  0.00    +0.000 F 
BRANCH  16  19
ATOM     19  C   UNL     1      44.545   6.012  12.467  0.00  0.00    +0.000 A 
ATOM     20  C   UNL     1      45.457   5.183  13.147  0.00  0.00    +0.000 A 
ATOM     21  C   UNL     1      46.757   5.620  13.405  0.00  0.00    +0.000 A 
ATOM     22  C   UNL     1      47.157   6.894  12.995  0.00  0.00    +0.000 A 
ATOM     23  C   UNL     1      46.257   7.727  12.339  0.00  0.00    +0.000 A 
ATOM     24  C   UNL     1      44.958   7.293  12.079  0.00  0.00    +0.000 A 
ENDBRANCH  16  19
ENDBRANCH  15  16
ENDBRANCH  13  15
ENDBRANCH   4  13
TORSDOF 5
ENDMDL
MODEL 2
REMARK VINA RESULT:    -7.857      3.305      6.483
REMARK INTER + INTRA:         -10.715
REMARK INTER:                 -10.265
REMARK INTRA:                  -0.450
REMARK UNBOUND:                -0.561
REMARK  Name = 
REMARK  5 active torsions:
REMARK  status: ('A' for Active; 'I' for Inactive)
REMARK    1  A    between atoms: C_2  and  C_4
REMARK    2  A    between atoms: C_7  and  N_8
REMARK    3  A    between atoms: N_8  and  C_9
REMARK    4  A    between atoms: C_9  and  C_10
REMARK    5  A    between atoms: C_10  and  C_13
REMARK                            x       y       z     vdW  Elec       q    Type
REMARK                         _______ _______ _______ _____ _____    ______ ____
ROOT
ATOM      1  C   UNL     1      46.881   4.853  14.257  0.00  0.00    +0.000 A 
ATOM      2  C   UNL     1      47.318   5.886  13.443  0.00  0.00    +0.000 A 
ATOM      3  N   UNL     1      46.720   6.187  12.260  0.00  0.00    +0.000 NA
ATOM      4  C   UNL     1      45.661   5.427  11.914  0.00  0.00    +0.000 A 
ATOM      5  C   UNL     1      45.275   4.346  12.719  0.00  0.00    +0.000 A 
ATOM      6  N   UNL     1      45.860   4.027  13.906  0.00  0.00    +0.000 NA
ENDROOT
BRANCH   1   8
ATOM      7  N   UNL     1      48.490   5.348  16.004  0.00  0.00    +0.000 NA
ATOM      8  C   UNL     1      47.489   4.628  15.605  0.00  0.00    +0.000 C 
ATOM      9  N   UNL     1      46.972   3.659  16.418  0.00  0.00    +0.000 N 
ATOM     10  H   UNL     1      48.723   5.083  16.964  0.00  0.00    +0.000 HD
ATOM     11  H   UNL     1      47.599   3.223  17.080  0.00  0.00    +0.000 HD
ATOM     12  H   UNL     1      46.361   2.999  15.936  0.00  0.00    +0.000 HD
ENDBRANCH   1   8
BRANCH   4  13
ATOM     13  N   UNL     1      44.984   5.680  10.713  0.00  0.00    +0.000 N 
ATOM     14  H   UNL     1      44.018   5.384  10.807  0.00  0.00    +0.000 HD
BRANCH  13  15
ATOM     15  C   UNL     1      45.656   5.108   9.517  0.00  0.00    +0.000 C 
BRANCH  15  16
ATOM     16  C   UNL     1      44.849   3.925   8.905  0.00  0.00    +0.000 C 
ATOM     17  F   UNL     1      44.255   3.249   9.941  0.00  0.00    +0.000 F 
ATOM     18  F   UNL     1      43.806   4.419   8.169  0.00  0.00    +0.000 F 
BRANCH  16  19
ATOM     19  C   UNL     1      45.707   2.995   8.070  0.00  0.00    +0.000 A 
ATOM     20  C   UNL     1      46.391   3.477   6.938  0.00  0.00    +0.000 A 
ATOM     21  C   UNL     1      47.248   2.641   6.217  0.00  0.00    +0.000 A 
ATOM     22  C   UNL     1      47.424   1.315   6.616  0.00  0.00    +0.000 A 
ATOM     23  C   UNL     1      46.737   0.825   7.723  0.00  0.00    +0.000 A 
ATOM     24  C   UNL     1      45.882   1.656   8.444  0.00  0.00    +0.000 A 
ENDBRANCH  16  19
ENDBRANCH  15  16
ENDBRANCH  13  15
ENDBRANCH   4  13
TORSDOF 5
ENDMDL
MODEL 3
REMARK VINA RESULT:    -7.543      3.058      6.321
REMARK INTER + INTRA:         -10.309
REMARK INTER:                 -10.041
REMARK INTRA:                  -0.268
REMARK UNBOUND:                -0.561
REMARK  Name = 
REMARK  5 active torsions:
REMARK  status: ('A' for Active; 'I' for Inactive)
REMARK    1  A    between atoms: C_2  and  C_4
REMARK    2  A    between atoms: C_7  and  N_8
REMARK    3  A    between atoms: N_8  and  C_9
REMARK    4  A    between atoms: C_9  and  C_10
REMARK    5  A    between atoms: C_10  and  C_13
REMARK                            x       y       z     vdW  Elec       q    Type
REMARK                         _______ _______ _______ _____ _____    ______ ____
ROOT
ATOM      1  C   UNL     1      46.942   6.175  12.878  0.00  0.00    +0.000 A 
ATOM      2  C   UNL     1      46.137   5.239  13.506  0.00  0.00    +0.000 A 
ATOM      3  N   UNL     1      45.081   4.648  12.886  0.00  0.00    +0.000 NA
ATOM      4  C   UNL     1      44.855   5.018  11.608  0.00  0.00    +0.000 A 
ATOM      5  C   UNL     1      45.639   6.015  11.013  0.00  0.00    +0.000 A 
ATOM      6  N   UNL     1      46.700   6.618  11.615  0.00  0.00    +0.000 NA
ENDROOT
BRANCH   1   8
ATOM      7  N   UNL     1      49.323   6.627  12.980  0.00  0.00    +0.000 NA
ATOM      8  C   UNL     1      48.164   6.714  13.552  0.00  0.00    +0.000 C 
ATOM      9  N   UNL     1      48.044   7.309  14.777  0.00  0.00    +0.000 N 
ATOM     10  H   UNL     1      50.015   7.099  13.567  0.00  0.00    +0.000 HD
ATOM     11  H   UNL     1      48.844   7.269  15.394  0.00  0.00    +0.000 HD
ATOM     12  H   UNL     1      47.157   7.118  15.242  0.00  0.00    +0.000 HD
ENDBRANCH   1   8
BRANCH   4  13
ATOM     13  N   UNL     1      43.789   4.449  10.897  0.00  0.00    +0.000 N 
ATOM     14  H   UNL     1      43.393   3.691  11.444  0.00  0.00    +0.000 HD
BRANCH  13  15
ATOM     15  C   UNL     1      44.143   4.047   9.511  0.00  0.00    +0.000 C 
BRANCH  15  16
ATOM     16  C   UNL     1      44.853   2.661   9.470  0.00  0.00    +0.000 C 
ATOM     17  F   UNL     1      45.567   2.527  10.634  0.00  0.00    +0.000 F 
ATOM     18  F   UNL     1      43.913   1.667   9.522  0.00  0.00    +0.000 F 
BRANCH  16  19
ATOM     19  C   UNL     1      45.750   2.494   8.259  0.00  0.00    +0.000 A 
ATOM     20  C   UNL     1      45.970   3.569   7.377  0.00  0.00    +0.000 A 
ATOM     21  C   UNL     1      46.861   3.441   6.310  0.00  0.00    +0.000 A 
ATOM     22  C   UNL     1      47.537   2.236   6.108  0.00  0.00    +0.000 A 
ATOM     23  C   UNL     1      47.312   1.162   6.964  0.00  0.00    +0.000 A 
ATOM     24  C   UNL     1      46.423   1.287   8.030  0.00  0.00    +0.000 A 
ENDBRANCH  16  19
ENDBRANCH  15  16
ENDBRANCH  13  15
ENDBRANCH   4  13
TORSDOF 5
ENDMDL
MODEL 4
REMARK VINA RESULT:    -7.319      3.000      6.557
REMARK INTER + INTRA:         -10.019
REMARK INTER:                  -9.506
REMARK INTRA:                  -0.513
REMARK UNBOUND:                -0.561
REMARK  Name = 
REMARK  5 active torsions:
REMARK  status: ('A' for Active; 'I' for Inactive)
REMARK    1  A    between atoms: C_2  and  C_4
REMARK    2  A    between atoms: C_7  and  N_8
REMARK    3  A    between atoms: N_8  and  C_9
REMARK    4  A    between atoms: C_9  and  C_10
REMARK    5  A    between atoms: C_10  and  C_13
REMARK                            x       y       z     vdW  Elec       q    Type
REMARK                         _______ _______ _______ _____ _____    ______ ____
ROOT
ATOM      1  C   UNL     1      45.747   7.602  12.517  0.00  0.00    +0.000 A 
ATOM      2  C   UNL     1      44.688   7.782  11.641  0.00  0.00    +0.000 A 
ATOM      3  N   UNL     1      44.000   6.740  11.102  0.00  0.00    +0.000 NA
ATOM      4  C   UNL     1      44.399   5.505  11.472  0.00  0.00    +0.000 A 
ATOM      5  C   UNL     1      45.512   5.344  12.307  0.00  0.00    +0.000 A 
ATOM      6  N   UNL     1      46.214   6.372  12.856  0.00  0.00    +0.000 NA
ENDROOT
BRANCH   1   8
ATOM      7  N   UNL     1      47.039   8.623  14.298  0.00  0.00    +0.000 NA
ATOM      8  C   UNL     1      46.401   8.772  13.180  0.00  0.00    +0.000 C 
ATOM      9  N   UNL     1      46.328  10.003  12.589  0.00  0.00    +0.000 N 
ATOM     10  H   UNL     1      47.460   9.518  14.558  0.00  0.00    +0.000 HD
ATOM     11  H   UNL     1      46.365  10.812  13.194  0.00  0.00    +0.000 HD
ATOM     12  H   UNL     1      45.619  10.068  11.859  0.00  0.00    +0.000 HD
ENDBRANCH   1   8
BRANCH   4  13
ATOM     13  N   UNL     1      43.734   4.379  10.966  0.00  0.00    +0.000 N 
ATOM     14  H   UNL     1      43.837   3.611  11.622  0.00  0.00    +0.000 HD
BRANCH  13  15
ATOM     15  C   UNL     1      44.134   4.022   9.580  0.00  0.00    +0.000 C 
BRANCH  15  16
ATOM     16  C   UNL     1      44.852   2.640   9.519  0.00  0.00    +0.000 C 
ATOM     17  F   UNL     1      45.539   2.478  10.696  0.00  0.00    +0.000 F 
ATOM     18  F   UNL     1      43.916   1.642   9.522  0.00  0.00    +0.000 F 
BRANCH  16  19
ATOM     19  C   UNL     1      45.779   2.509   8.326  0.00  0.00    +0.000 A 
ATOM     20  C   UNL     1      46.431   1.291   8.057  0.00  0.00    +0.000 A 
ATOM     21  C   UNL     1      47.217   1.144   6.912  0.00  0.00    +0.000 A 
ATOM     22  C   UNL     1      47.366   2.216   6.028  0.00  0.00    +0.000 A 
ATOM     23  C   UNL     1      46.740   3.429   6.296  0.00  0.00    +0.000 A 
ATOM     24  C   UNL     1      45.954   3.578   7.438  0.00  0.00    +0.000 A 
ENDBRANCH  16  19
ENDBRANCH  15  16
ENDBRANCH  13  15
ENDBRANCH   4  13
TORSDOF 5
ENDMDL
MODEL 5
REMARK VINA RESULT:    -7.010      1.246      1.634
REMARK INTER + INTRA:          -9.620
REMARK INTER:                  -9.063
REMARK INTRA:                  -0.558
REMARK UNBOUND:                -0.561
REMARK  Name = 
REMARK  5 active torsions:
REMARK  status: ('A' for Active; 'I' for Inactive)
REMARK    1  A    between atoms: C_2  and  C_4
REMARK    2  A    between atoms: C_7  and  N_8
REMARK    3  A    between atoms: N_8  and  C_9
REMARK    4  A    between atoms: C_9  and  C_10
REMARK    5  A    between atoms: C_10  and  C_13
REMARK                            x       y       z     vdW  Elec       q    Type
REMARK                         _______ _______ _______ _____ _____    ______ ____
ROOT
ATOM      1  C   UNL     1      46.549   2.847   7.470  0.00  0.00    +0.000 A 
ATOM      2  C   UNL     1      46.404   4.213   7.656  0.00  0.00    +0.000 A 
ATOM      3  N   UNL     1      45.650   4.738   8.659  0.00  0.00    +0.000 NA
ATOM      4  C   UNL     1      45.046   3.853   9.479  0.00  0.00    +0.000 A 
ATOM      5  C   UNL     1      45.152   2.478   9.234  0.00  0.00    +0.000 A 
ATOM      6  N   UNL     1      45.901   1.932   8.238  0.00  0.00    +0.000 NA
ENDROOT
BRANCH   1   8
ATOM      7  N   UNL     1      48.023   1.140   6.576  0.00  0.00    +0.000 NA
ATOM      8  C   UNL     1      47.481   2.308   6.432  0.00  0.00    +0.000 C 
ATOM      9  N   UNL     1      47.749   3.058   5.320  0.00  0.00    +0.000 N 
ATOM     10  H   UNL     1      48.577   0.930   5.742  0.00  0.00    +0.000 HD
ATOM     11  H   UNL     1      48.646   2.924   4.873  0.00  0.00    +0.000 HD
ATOM     12  H   UNL     1      47.476   4.037   5.408  0.00  0.00    +0.000 HD
ENDBRANCH   1   8
BRANCH   4  13
ATOM     13  N   UNL     1      44.257   4.316  10.541  0.00  0.00    +0.000 N 
ATOM     14  H   UNL     1      43.622   5.029  10.197  0.00  0.00    +0.000 HD
BRANCH  13  15
ATOM     15  C   UNL     1      45.044   4.755  11.723  0.00  0.00    +0.000 C 
BRANCH  15  16
ATOM     16  C   UNL     1      44.653   6.192  12.181  0.00  0.00    +0.000 C 
ATOM     17  F   UNL     1      43.721   6.670  11.296  0.00  0.00    +0.000 F 
ATOM     18  F   UNL     1      43.992   6.122  13.378  0.00  0.00    +0.000 F 
BRANCH  16  19
ATOM     19  C   UNL     1      45.844   7.126  12.275  0.00  0.00    +0.000 A 
ATOM     20  C   UNL     1      47.135   6.673  11.943  0.00  0.00    +0.000 A 
ATOM     21  C   UNL     1      48.219   7.554  11.948  0.00  0.00    +0.000 A 
ATOM     22  C   UNL     1      48.025   8.894  12.292  0.00  0.00    +0.000 A 
ATOM     23  C   UNL     1      46.756   9.345  12.640  0.00  0.00    +0.000 A 
ATOM     24  C   UNL     1      45.672   8.468  12.635  0.00  0.00    +0.000 A 
ENDBRANCH  16  19
ENDBRANCH  15  16
ENDBRANCH  13  15
ENDBRANCH   4  13
TORSDOF 5
ENDMDL
MODEL 6
REMARK VINA RESULT:    -6.644      4.680      6.442
REMARK INTER + INTRA:          -9.147
REMARK INTER:                  -8.750
REMARK INTRA:                  -0.397
REMARK UNBOUND:                -0.561
REMARK  Name = 
REMARK  5 active torsions:
REMARK  status: ('A' for Active; 'I' for Inactive)
REMARK    1  A    between atoms: C_2  and  C_4
REMARK    2  A    between atoms: C_7  and  N_8
REMARK    3  A    between atoms: N_8  and  C_9
REMARK    4  A    between atoms: C_9  and  C_10
REMARK    5  A    between atoms: C_10  and  C_13
REMARK                            x       y       z     vdW  Elec       q    Type
REMARK                         _______ _______ _______ _____ _____    ______ ____
ROOT
ATOM      1  C   UNL     1      45.533   4.777  11.129  0.00  0.00    +0.000 A 
ATOM      2  C   UNL     1      45.286   3.652  11.899  0.00  0.00    +0.000 A 
ATOM      3  N   UNL     1      45.631   3.573  13.212  0.00  0.00    +0.000 NA
ATOM      4  C   UNL     1      46.229   4.661  13.739  0.00  0.00    +0.000 A 
ATOM      5  C   UNL     1      46.530   5.763  12.928  0.00  0.00    +0.000 A 
ATOM      6  N   UNL     1      46.193   5.863  11.613  0.00  0.00    +0.000 NA
ENDROOT
BRANCH   1   8
ATOM      7  N   UNL     1      45.817   5.265   8.770  0.00  0.00    +0.000 NA
ATOM      8  C   UNL     1      45.033   4.871   9.723  0.00  0.00    +0.000 C 
ATOM      9  N   UNL     1      43.738   4.528   9.450  0.00  0.00    +0.000 N 
ATOM     10  H   UNL     1      45.311   5.208   7.883  0.00  0.00    +0.000 HD
ATOM     11  H   UNL     1      43.292   4.980   8.663  0.00  0.00    +0.000 HD
ATOM     12  H   UNL     1      43.145   4.466  10.277  0.00  0.00    +0.000 HD
ENDBRANCH   1   8
BRANCH   4  13
ATOM     13  N   UNL     1      46.609   4.661  15.089  0.00  0.00    +0.000 N 
ATOM     14  H   UNL     1      47.072   5.539  15.302  0.00  0.00    +0.000 HD
BRANCH  13  15
ATOM     15  C   UNL     1      47.402   3.470  15.487  0.00  0.00    +0.000 C 
BRANCH  15  16
ATOM     16  C   UNL     1      47.770   3.494  17.000  0.00  0.00    +0.000 C 
ATOM     17  F   UNL     1      47.351   4.697  17.509  0.00  0.00    +0.000 F 
ATOM     18  F   UNL     1      47.024   2.557  17.663  0.00  0.00    +0.000 F 
BRANCH  16  19
ATOM     19  C   UNL     1      49.250   3.282  17.251  0.00  0.00    +0.000 A 
ATOM     20  C   UNL     1      50.030   4.299  17.834  0.00  0.00    +0.000 A 
ATOM     21  C   UNL     1      51.373   4.075  18.143  0.00  0.00    +0.000 A 
ATOM     22  C   UNL     1      51.953   2.835  17.865  0.00  0.00    +0.000 A 
ATOM     23  C   UNL     1      51.195   1.831  17.271  0.00  0.00    +0.000 A 
ATOM     24  C   UNL     1      49.854   2.052  16.963  0.00  0.00    +0.000 A 
ENDBRANCH  16  19
ENDBRANCH  15  16
ENDBRANCH  13  15
ENDBRANCH   4  13
TORSDOF 5
ENDMDL
MODEL 7
REMARK VINA RESULT:    -6.615      4.116      6.543
REMARK INTER + INTRA:          -9.110
REMARK INTER:                  -8.670
REMARK INTRA:                  -0.441
REMARK UNBOUND:                -0.561
REMARK  Name = 
REMARK  5 active torsions:
REMARK  status: ('A' for Active; 'I' for Inactive)
REMARK    1  A    between atoms: C_2  and  C_4
REMARK    2  A    between atoms: C_7  and  N_8
REMARK    3  A    between atoms: N_8  and  C_9
REMARK    4  A    between atoms: C_9  and  C_10
REMARK    5  A    between atoms: C_10  and  C_13
REMARK                            x       y       z     vdW  Elec       q    Type
REMARK                         _______ _______ _______ _____ _____    ______ ____
ROOT
ATOM      1  C   UNL     1      47.871   3.765  15.876  0.00  0.00    +0.000 A 
ATOM      2  C   UNL     1      47.766   5.138  15.718  0.00  0.00    +0.000 A 
ATOM      3  N   UNL     1      47.229   5.706  14.605  0.00  0.00    +0.000 NA
ATOM      4  C   UNL     1      46.791   4.858  13.652  0.00  0.00    +0.000 A 
ATOM      5  C   UNL     1      46.966   3.476  13.803  0.00  0.00    +0.000 A 
ATOM      6  N   UNL     1      47.500   2.887  14.907  0.00  0.00    +0.000 NA
ENDROOT
BRANCH   1   8
ATOM      7  N   UNL     1      47.581   3.125  18.198  0.00  0.00    +0.000 NA
ATOM      8  C   UNL     1      48.357   3.176  17.162  0.00  0.00    +0.000 C 
ATOM      9  N   UNL     1      49.629   2.681  17.232  0.00  0.00    +0.000 N 
ATOM     10  H   UNL     1      48.072   2.640  18.953  0.00  0.00    +0.000 HD
ATOM     11  H   UNL     1      50.087   2.697  18.133  0.00  0.00    +0.000 HD
ATOM     12  H   UNL     1      50.229   2.977  16.462  0.00  0.00    +0.000 HD
ENDBRANCH   1   8
BRANCH   4  13
ATOM     13  N   UNL     1      46.217   5.366  12.478  0.00  0.00    +0.000 N 
ATOM     14  H   UNL     1      46.114   6.372  12.568  0.00  0.00    +0.000 HD
BRANCH  13  15
ATOM     15  C   UNL     1      44.958   4.683  12.084  0.00  0.00    +0.000 C 
BRANCH  15  16
ATOM     16  C   UNL     1      44.509   5.075  10.644  0.00  0.00    +0.000 C 
ATOM     17  F   UNL     1      43.138   5.116  10.634  0.00  0.00    +0.000 F 
ATOM     18  F   UNL     1      44.897   6.361  10.383  0.00  0.00    +0.000 F 
BRANCH  16  19
ATOM     19  C   UNL     1      45.033   4.126   9.584  0.00  0.00    +0.000 A 
ATOM     20  C   UNL     1      45.746   4.617   8.474  0.00  0.00    +0.000 A 
ATOM     21  C   UNL     1      46.301   3.738   7.541  0.00  0.00    +0.000 A 
ATOM     22  C   UNL     1      46.144   2.360   7.705  0.00  0.00    +0.000 A 
ATOM     23  C   UNL     1      45.425   1.866   8.789  0.00  0.00    +0.000 A 
ATOM     24  C   UNL     1      44.870   2.742   9.721  0.00  0.00    +0.000 A 
ENDBRANCH  16  19
ENDBRANCH  15  16
ENDBRANCH  13  15
ENDBRANCH   4  13
TORSDOF 5
ENDMDL
MODEL 8
REMARK VINA RESULT:    -6.448      4.916      7.157
REMARK INTER + INTRA:          -8.895
REMARK INTER:                  -8.482
REMARK INTRA:                  -0.412
REMARK UNBOUND:                -0.561
REMARK  Name = 
REMARK  5 active torsions:
REMARK  status: ('A' for Active; 'I' for Inactive)
REMARK    1  A    between atoms: C_2  and  C_4
REMARK    2  A    between atoms: C_7  and  N_8
REMARK    3  A    between atoms: N_8  and  C_9
REMARK    4  A    between atoms: C_9  and  C_10
REMARK    5  A    between atoms: C_10  and  C_13
REMARK                            x       y       z     vdW  Elec       q    Type
REMARK                         _______ _______ _______ _____ _____    ______ ____
ROOT
ATOM      1  C   UNL     1      48.474   4.187  17.149  0.00  0.00    +0.000 A 
ATOM      2  C   UNL     1      47.403   3.513  16.585  0.00  0.00    +0.000 A 
ATOM      3  N   UNL     1      46.778   3.947  15.458  0.00  0.00    +0.000 NA
ATOM      4  C   UNL     1      47.262   5.078  14.904  0.00  0.00    +0.000 A 
ATOM      5  C   UNL     1      48.303   5.779  15.526  0.00  0.00    +0.000 A 
ATOM      6  N   UNL     1      48.942   5.363  16.653  0.00  0.00    +0.000 NA
ENDROOT
BRANCH   1   8
ATOM      7  N   UNL     1      48.579   3.310  19.409  0.00  0.00    +0.000 NA
ATOM      8  C   UNL     1      49.210   3.615  18.319  0.00  0.00    +0.000 C 
ATOM      9  N   UNL     1      50.558   3.408  18.225  0.00  0.00    +0.000 N 
ATOM     10  H   UNL     1      49.240   2.885  20.063  0.00  0.00    +0.000 HD
ATOM     11  H   UNL     1      51.097   3.450  19.079  0.00  0.00    +0.000 HD
ATOM     12  H   UNL     1      50.995   3.890  17.440  0.00  0.00    +0.000 HD
ENDBRANCH   1   8
BRANCH   4  13
ATOM     13  N   UNL     1      46.677   5.586  13.735  0.00  0.00    +0.000 N 
ATOM     14  H   UNL     1      46.478   6.573  13.867  0.00  0.00    +0.000 HD
BRANCH  13  15
ATOM     15  C   UNL     1      45.499   4.809  13.270  0.00  0.00    +0.000 C 
BRANCH  15  16
ATOM     16  C   UNL     1      44.832   5.456  12.019  0.00  0.00    +0.000 C 
ATOM     17  F   UNL     1      43.519   5.704  12.331  0.00  0.00    +0.000 F 
ATOM     18  F   UNL     1      45.378   6.692  11.803  0.00  0.00    +0.000 F 
BRANCH  16  19
ATOM     19  C   UNL     1      44.942   4.591  10.778  0.00  0.00    +0.000 A 
ATOM     20  C   UNL     1      44.384   3.299  10.755  0.00  0.00    +0.000 A 
ATOM     21  C   UNL     1      44.412   2.535   9.586  0.00  0.00    +0.000 A 
ATOM     22  C   UNL     1      45.004   3.052   8.431  0.00  0.00    +0.000 A 
ATOM     23  C   UNL     1      45.575   4.320   8.451  0.00  0.00    +0.000 A 
ATOM     24  C   UNL     1      45.548   5.085   9.616  0.00  0.00    +0.000 A 
ENDBRANCH  16  19
ENDBRANCH  15  16
ENDBRANCH  13  15
ENDBRANCH   4  13
TORSDOF 5
ENDMDL
MODEL 9
REMARK VINA RESULT:    -6.068      4.694      6.929
REMARK INTER + INTRA:          -8.403
REMARK INTER:                  -7.986
REMARK INTRA:                  -0.417
REMARK UNBOUND:                -0.561
REMARK  Name = 
REMARK  5 active torsions:
REMARK  status: ('A' for Active; 'I' for Inactive)
REMARK    1  A    between atoms: C_2  and  C_4
REMARK    2  A    between atoms: C_7  and  N_8
REMARK    3  A    between atoms: N_8  and  C_9
REMARK    4  A    between atoms: C_9  and  C_10
REMARK    5  A    between atoms: C_10  and  C_13
REMARK                            x       y       z     vdW  Elec       q    Type
REMARK                         _______ _______ _______ _____ _____    ______ ____
ROOT
ATOM      1  C   UNL     1      44.724   5.911  12.233  0.00  0.00    +0.000 A 
ATOM      2  C   UNL     1      44.394   4.593  12.500  0.00  0.00    +0.000 A 
ATOM      3  N   UNL     1      45.178   3.782  13.259  0.00  0.00    +0.000 NA
ATOM      4  C   UNL     1      46.307   4.332  13.751  0.00  0.00    +0.000 A 
ATOM      5  C   UNL     1      46.656   5.646  13.415  0.00  0.00    +0.000 A 
ATOM      6  N   UNL     1      45.886   6.474  12.658  0.00  0.00    +0.000 NA
ENDROOT
BRANCH   1   8
ATOM      7  N   UNL     1      42.628   6.363  11.098  0.00  0.00    +0.000 NA
ATOM      8  C   UNL     1      43.780   6.805  11.495  0.00  0.00    +0.000 C 
ATOM      9  N   UNL     1      44.139   8.102  11.249  0.00  0.00    +0.000 N 
ATOM     10  H   UNL     1      42.110   7.133  10.668  0.00  0.00    +0.000 HD
ATOM     11  H   UNL     1      43.748   8.546  10.430  0.00  0.00    +0.000 HD
ATOM     12  H   UNL     1      45.134   8.285  11.380  0.00  0.00    +0.000 HD
ENDBRANCH   1   8
BRANCH   4  13
ATOM     13  N   UNL     1      47.166   3.563  14.549  0.00  0.00    +0.000 N 
ATOM     14  H   UNL     1      46.945   2.580  14.422  0.00  0.00    +0.000 HD
BRANCH  13  15
ATOM     15  C   UNL     1      47.186   3.977  15.976  0.00  0.00    +0.000 C 
BRANCH  15  16
ATOM     16  C   UNL     1      48.105   3.058  16.836  0.00  0.00    +0.000 C 
ATOM     17  F   UNL     1      47.396   2.689  17.951  0.00  0.00    +0.000 F 
ATOM     18  F   UNL     1      48.331   1.887  16.164  0.00  0.00    +0.000 F 
BRANCH  16  19
ATOM     19  C   UNL     1      49.413   3.723  17.218  0.00  0.00    +0.000 A 
ATOM     20  C   UNL     1      50.541   2.948  17.548  0.00  0.00    +0.000 A 
ATOM     21  C   UNL     1      51.768   3.558  17.817  0.00  0.00    +0.000 A 
ATOM     22  C   UNL     1      51.878   4.949  17.768  0.00  0.00    +0.000 A 
ATOM     23  C   UNL     1      50.764   5.725  17.461  0.00  0.00    +0.000 A 
ATOM     24  C   UNL     1      49.539   5.118  17.191  0.00  0.00    +0.000 A 
ENDBRANCH  16  19
ENDBRANCH  15  16
ENDBRANCH  13  15
ENDBRANCH   4  13
TORSDOF 5
ENDMDL
