MODEL 1
REMARK VINA RESULT:    -7.767      0.000      0.000
REMARK INTER + INTRA:         -10.312
REMARK INTER:                  -9.810
REMARK INTRA:                  -0.502
REMARK UNBOUND:                -0.502
REMARK  Name = 
REMARK  5 active torsions:
REMARK  status: ('A' for Active; 'I' for Inactive)
REMARK    1  A    between atoms: N_1  and  C_2
REMARK    2  A    between atoms: C_2  and  C_3
REMARK    3  A    between atoms: C_3  and  C_4
REMARK    4  A    between atoms: C_7  and  C_8
REMARK    5  A    between atoms: C_8  and  N_9
REMARK                            x       y       z     vdW  Elec       q    Type
REMARK                         _______ _______ _______ _____ _____    ______ ____
ROOT
ATOM      1  C   UNL     1      46.130   2.207   7.773  0.00  0.00    +0.000 A 
ATOM      2  C   UNL     1      45.334   1.623   8.760  0.00  0.00    +0.000 A 
ATOM      3  C   UNL     1      44.517   2.425   9.558  0.00  0.00    +0.000 A 
ATOM      4  C   UNL     1      44.526   3.803   9.368  0.00  0.00    +0.000 A 
ATOM      5  N   UNL     1      45.266   4.389   8.389  0.00  0.00    +0.000 NA
ATOM      6  C   UNL     1      46.032   3.585   7.615  0.00  0.00    +0.000 A 
ENDROOT
BRANCH   1   7
ATOM      7  C   UNL     1      47.052   1.387   6.915  0.00  0.00    +0.000 C 
BRANCH   7   8
ATOM      8  C   UNL     1      48.293   2.172   6.483  0.00  0.00    +0.000 C 
BRANCH   8   9
ATOM      9  N   UNL     1      48.307   2.369   5.036  0.00  0.00    +0.000 NA
ATOM     10  H   UNL     1      48.701   3.287   4.825  0.00  0.00    +0.000 HD
ATOM     11  H   UNL     1      47.353   2.386   4.677  0.00  0.00    +0.000 HD
ENDBRANCH   8   9
ENDBRANCH   7   8
ENDBRANCH   1   7
BRANCH   4  12
ATOM     12  C   UNL     1      43.758   4.729  10.277  0.00  0.00    +0.000 C 
BRANCH  12  13
ATOM     13  N   UNL     1      44.323   4.785  11.612  0.00  0.00    +0.000 N 
ATOM     14  C   UNL     1      43.814   4.158  12.717  0.00  0.00    +0.000 A 
ATOM     15  N   UNL     1      44.579   4.333  13.771  0.00  0.00    +0.000 NA
ATOM     16  C   UNL     1      45.621   5.113  13.336  0.00  0.00    +0.000 A 
ATOM     17  C   UNL     1      46.753   5.551  14.036  0.00  0.00    +0.000 A 
ATOM     18  C   UNL     1      47.681   6.332  13.352  0.00  0.00    +0.000 A 
ATOM     19  F   UNL     1      48.798   6.724  13.982  0.00  0.00    +0.000 F 
ATOM     20  C   UNL     1      47.490   6.709  12.025  0.00  0.00    +0.000 A 
ATOM     21  C   UNL     1      46.361   6.291  11.316  0.00  0.00    +0.000 A 
ATOM     22  C   UNL     1      45.461   5.460  11.995  0.00  0.00    +0.000 A 
ENDBRANCH  12  13
ENDBRANCH   4  12
TORSDOF 5
ENDMDL
MODEL 2
REMARK VINA RESULT:    -7.504      1.186      1.714
REMARK INTER + INTRA:          -9.980
REMARK INTER:                  -9.522
REMARK INTRA:                  -0.458
REMARK UNBOUND:                -0.502
REMARK  Name = 
REMARK  5 active torsions:
REMARK  status: ('A' for Active; 'I' for Inactive)
REMARK    1  A    between atoms: N_1  and  C_2
REMARK    2  A    between atoms: C_2  and  C_3
REMARK    3  A    between atoms: C_3  and  C_4
REMARK    4  A    between atoms: C_7  and  C_8
REMARK    5  A    between atoms: C_8  and  N_9
REMARK                            x       y       z     vdW  Elec       q    Type
REMARK                         _______ _______ _______ _____ _____    ______ ____
ROOT
ATOM      1  C   UNL     1      46.157   2.235   7.839  0.00  0.00    +0.000 A 
ATOM      2  C   UNL     1      45.314   1.649   8.786  0.00  0.00    +0.000 A 
ATOM      3  C   UNL     1      44.495   2.453   9.579  0.00  0.00    +0.000 A 
ATOM      4  C   UNL     1      44.548   3.835   9.425  0.00  0.00    +0.000 A 
ATOM      5  N   UNL     1      45.334   4.424   8.485  0.00  0.00    +0.000 NA
ATOM      6  C   UNL     1      46.102   3.619   7.714  0.00  0.00    +0.000 A 
ENDROOT
BRANCH   1   7
ATOM      7  C   UNL     1      47.082   1.412   6.988  0.00  0.00    +0.000 C 
BRANCH   7   8
ATOM      8  C   UNL     1      48.290   2.216   6.501  0.00  0.00    +0.000 C 
BRANCH   8   9
ATOM      9  N   UNL     1      48.315   2.285   5.041  0.00  0.00    +0.000 NA
ATOM     10  H   UNL     1      49.232   1.987   4.706  0.00  0.00    +0.000 HD
ATOM     11  H   UNL     1      48.206   3.252   4.736  0.00  0.00    +0.000 HD
ENDBRANCH   8   9
ENDBRANCH   7   8
ENDBRANCH   1   7
BRANCH   4  12
ATOM     12  C   UNL     1      43.778   4.758  10.335  0.00  0.00    +0.000 C 
BRANCH  12  13
ATOM     13  N   UNL     1      44.648   5.549  11.184  0.00  0.00    +0.000 N 
ATOM     14  C   UNL     1      44.770   6.912  11.146  0.00  0.00    +0.000 A 
ATOM     15  N   UNL     1      45.580   7.354  12.081  0.00  0.00    +0.000 NA
ATOM     16  C   UNL     1      46.008   6.233  12.748  0.00  0.00    +0.000 A 
ATOM     17  C   UNL     1      46.840   6.133  13.871  0.00  0.00    +0.000 A 
ATOM     18  C   UNL     1      47.115   4.861  14.367  0.00  0.00    +0.000 A 
ATOM     19  F   UNL     1      47.868   4.738  15.470  0.00  0.00    +0.000 F 
ATOM     20  C   UNL     1      46.620   3.710  13.759  0.00  0.00    +0.000 A 
ATOM     21  C   UNL     1      45.798   3.792  12.632  0.00  0.00    +0.000 A 
ATOM     22  C   UNL     1      45.482   5.077  12.172  0.00  0.00    +0.000 A 
ENDBRANCH  12  13
ENDBRANCH   4  12
TORSDOF 5
ENDMDL
MODEL 3
REMARK VINA RESULT:    -7.400      1.447      1.653
REMARK INTER + INTRA:          -9.849
REMARK INTER:                  -9.410
REMARK INTRA:                  -0.439
REMARK UNBOUND:                -0.502
REMARK  Name = 
REMARK  5 active torsions:
REMARK  status: ('A' for Active; 'I' for Inactive)
REMARK    1  A    between atoms: N_1  and  C_2
REMARK    2  A    between atoms: C_2  and  C_3
REMARK    3  A    between atoms: C_3  and  C_4
REMARK    4  A    between atoms: C_7  and  C_8
REMARK    5  A    between atoms: C_8  and  N_9
REMARK                            x       y       z     vdW  Elec       q    Type
REMARK                         _______ _______ _______ _____ _____    ______ ____
ROOT
ATOM      1  C   UNL     1      45.848   3.103   7.953  0.00  0.00    +0.000 A 
ATOM      2  C   UNL     1      45.315   2.137   8.809  0.00  0.00    +0.000 A 
ATOM      3  C   UNL     1      44.802   2.517  10.050  0.00  0.00    +0.000 A 
ATOM      4  C   UNL     1      44.849   3.857  10.422  0.00  0.00    +0.000 A 
ATOM      5  N   UNL     1      45.330   4.818   9.589  0.00  0.00    +0.000 NA
ATOM      6  C   UNL     1      45.801   4.424   8.383  0.00  0.00    +0.000 A 
ENDROOT
BRANCH   1   7
ATOM      7  C   UNL     1      46.444   2.736   6.623  0.00  0.00    +0.000 C 
BRANCH   7   8
ATOM      8  C   UNL     1      47.656   1.813   6.766  0.00  0.00    +0.000 C 
BRANCH   8   9
ATOM      9  N   UNL     1      48.515   1.895   5.587  0.00  0.00    +0.000 NA
ATOM     10  H   UNL     1      47.936   2.039   4.759  0.00  0.00    +0.000 HD
ATOM     11  H   UNL     1      48.994   1.006   5.442  0.00  0.00    +0.000 HD
ENDBRANCH   8   9
ENDBRANCH   7   8
ENDBRANCH   1   7
BRANCH   4  12
ATOM     12  C   UNL     1      44.422   4.308  11.796  0.00  0.00    +0.000 C 
BRANCH  12  13
ATOM     13  N   UNL     1      45.549   4.669  12.635  0.00  0.00    +0.000 N 
ATOM     14  C   UNL     1      46.387   3.786  13.260  0.00  0.00    +0.000 A 
ATOM     15  N   UNL     1      47.359   4.404  13.893  0.00  0.00    +0.000 NA
ATOM     16  C   UNL     1      47.139   5.741  13.677  0.00  0.00    +0.000 A 
ATOM     17  C   UNL     1      47.907   6.842  14.077  0.00  0.00    +0.000 A 
ATOM     18  C   UNL     1      47.465   8.112  13.714  0.00  0.00    +0.000 A 
ATOM     19  F   UNL     1      48.205   9.181  14.040  0.00  0.00    +0.000 F 
ATOM     20  C   UNL     1      46.279   8.306  13.009  0.00  0.00    +0.000 A 
ATOM     21  C   UNL     1      45.495   7.219  12.613  0.00  0.00    +0.000 A 
ATOM     22  C   UNL     1      45.975   5.943  12.934  0.00  0.00    +0.000 A 
ENDBRANCH  12  13
ENDBRANCH   4  12
TORSDOF 5
ENDMDL
MODEL 4
REMARK VINA RESULT:    -7.105      1.935      2.269
REMARK INTER + INTRA:          -9.476
REMARK INTER:                  -8.984
REMARK INTRA:                  -0.492
REMARK UNBOUND:                -0.502
REMARK  Name = 
REMARK  5 active torsions:
REMARK  status: ('A' for Active; 'I' for Inactive)
REMARK    1  A    between atoms: N_1  and  C_2
REMARK    2  A    between atoms: C_2  and  C_3
REMARK    3  A    between atoms: C_3  and  C_4
REMARK    4  A    between atoms: C_7  and  C_8
REMARK    5  A    between atoms: C_8  and  N_9
REMARK                            x       y       z     vdW  Elec       q    Type
REMARK                         _______ _______ _______ _____ _____    ______ ____
ROOT
ATOM      1  C   UNL     1      46.068   2.381   7.808  0.00  0.00    +0.000 A 
ATOM      2  C   UNL     1      46.063   3.777   7.770  0.00  0.00    +0.000 A 
ATOM      3  C   UNL     1      45.324   4.494   8.711  0.00  0.00    +0.000 A 
ATOM      4  C   UNL     1      44.584   3.801   9.664  0.00  0.00    +0.000 A 
ATOM      5  N   UNL     1      44.604   2.444   9.742  0.00  0.00    +0.000 NA
ATOM      6  C   UNL     1      45.346   1.774   8.830  0.00  0.00    +0.000 A 
ENDROOT
BRANCH   1   7
ATOM      7  C   UNL     1      46.819   1.566   6.794  0.00  0.00    +0.000 C 
BRANCH   7   8
ATOM      8  C   UNL     1      48.186   2.170   6.462  0.00  0.00    +0.000 C 
BRANCH   8   9
ATOM      9  N   UNL     1      48.269   2.525   5.048  0.00  0.00    +0.000 NA
ATOM     10  H   UNL     1      49.237   2.438   4.735  0.00  0.00    +0.000 HD
ATOM     11  H   UNL     1      48.021   3.506   4.919  0.00  0.00    +0.000 HD
ENDBRANCH   8   9
ENDBRANCH   7   8
ENDBRANCH   1   7
BRANCH   4  12
ATOM     12  C   UNL     1      43.673   4.518  10.628  0.00  0.00    +0.000 C 
BRANCH  12  13
ATOM     13  N   UNL     1      44.408   5.263  11.632  0.00  0.00    +0.000 N 
ATOM     14  C   UNL     1      45.091   4.715  12.684  0.00  0.00    +0.000 A 
ATOM     15  N   UNL     1      45.718   5.632  13.387  0.00  0.00    +0.000 NA
ATOM     16  C   UNL     1      45.423   6.823  12.772  0.00  0.00    +0.000 A 
ATOM     17  C   UNL     1      45.878   8.114  13.074  0.00  0.00    +0.000 A 
ATOM     18  C   UNL     1      45.432   9.165  12.277  0.00  0.00    +0.000 A 
ATOM     19  F   UNL     1      45.890  10.403  12.512  0.00  0.00    +0.000 F 
ATOM     20  C   UNL     1      44.532   8.968  11.233  0.00  0.00    +0.000 A 
ATOM     21  C   UNL     1      44.059   7.689  10.926  0.00  0.00    +0.000 A 
ATOM     22  C   UNL     1      44.555   6.630  11.697  0.00  0.00    +0.000 A 
ENDBRANCH  12  13
ENDBRANCH   4  12
TORSDOF 5
ENDMDL
MODEL 5
REMARK VINA RESULT:    -6.673      3.010      6.429
REMARK INTER + INTRA:          -8.930
REMARK INTER:                  -8.536
REMARK INTRA:                  -0.395
REMARK UNBOUND:                -0.502
REMARK  Name = 
REMARK  5 active torsions:
REMARK  status: ('A' for Active; 'I' for Inactive)
REMARK    1  A    between atoms: N_1  and  C_2
REMARK    2  A    between atoms: C_2  and  C_3
REMARK    3  A    between atoms: C_3  and  C_4
REMARK    4  A    between atoms: C_7  and  C_8
REMARK    5  A    between atoms: C_8  and  N_9
REMARK                            x       y       z     vdW  Elec       q    Type
REMARK                         _______ _______ _______ _____ _____    ______ ____
ROOT
ATOM      1  C   UNL     1      46.963   7.842  12.898  0.00  0.00    +0.000 A 
ATOM      2  C   UNL     1      46.113   8.604  12.093  0.00  0.00    +0.000 A 
ATOM      3  C   UNL     1      44.929   8.046  11.609  0.00  0.00    +0.000 A 
ATOM      4  C   UNL     1      44.625   6.725  11.922  0.00  0.00    +0.000 A 
ATOM      5  N   UNL     1      45.420   5.977  12.733  0.00  0.00    +0.000 NA
ATOM      6  C   UNL     1      46.551   6.550  13.206  0.00  0.00    +0.000 A 
ENDROOT
BRANCH   1   7
ATOM      7  C   UNL     1      48.264   8.388  13.412  0.00  0.00    +0.000 C 
BRANCH   7   8
ATOM      8  C   UNL     1      48.413   8.205  14.924  0.00  0.00    +0.000 C 
BRANCH   8   9
ATOM      9  N   UNL     1      47.556   9.142  15.648  0.00  0.00    +0.000 NA
ATOM     10  H   UNL     1      46.645   9.188  15.189  0.00  0.00    +0.000 HD
ATOM     11  H   UNL     1      47.944  10.083  15.594  0.00  0.00    +0.000 HD
ENDBRANCH   8   9
ENDBRANCH   7   8
ENDBRANCH   1   7
BRANCH   4  12
ATOM     12  C   UNL     1      43.424   6.032  11.329  0.00  0.00    +0.000 C 
BRANCH  12  13
ATOM     13  N   UNL     1      43.700   4.652  10.977  0.00  0.00    +0.000 N 
ATOM     14  C   UNL     1      43.149   3.554  11.580  0.00  0.00    +0.000 A 
ATOM     15  N   UNL     1      43.533   2.438  11.001  0.00  0.00    +0.000 NA
ATOM     16  C   UNL     1      44.374   2.827   9.988  0.00  0.00    +0.000 A 
ATOM     17  C   UNL     1      45.019   2.044   9.021  0.00  0.00    +0.000 A 
ATOM     18  C   UNL     1      45.818   2.694   8.084  0.00  0.00    +0.000 A 
ATOM     19  F   UNL     1      46.408   1.976   7.117  0.00  0.00    +0.000 F 
ATOM     20  C   UNL     1      46.015   4.072   8.112  0.00  0.00    +0.000 A 
ATOM     21  C   UNL     1      45.388   4.866   9.077  0.00  0.00    +0.000 A 
ATOM     22  C   UNL     1      44.543   4.212   9.981  0.00  0.00    +0.000 A 
ENDBRANCH  12  13
ENDBRANCH   4  12
TORSDOF 5
ENDMDL
MODEL 6
REMARK VINA RESULT:    -5.604      2.841      6.215
REMARK INTER + INTRA:          -7.580
REMARK INTER:                  -7.384
REMARK INTRA:                  -0.196
REMARK UNBOUND:                -0.502
REMARK  Name = 
REMARK  5 active torsions:
REMARK  status: ('A' for Active; 'I' for Inactive)
REMARK    1  A    between atoms: N_1  and  C_2
REMARK    2  A    between atoms: C_2  and  C_3
REMARK    3  A    between atoms: C_3  and  C_4
REMARK    4  A    between atoms: C_7  and  C_8
REMARK    5  A    between atoms: C_8  and  N_9
REMARK                            x       y       z     vdW  Elec       q    Type
REMARK                         _______ _______ _______ _____ _____    ______ ____
ROOT
ATOM      1  C   UNL     1      46.886   5.749  13.489  0.00  0.00    +0.000 A 
ATOM      2  C   UNL     1      46.479   4.414  13.437  0.00  0.00    +0.000 A 
ATOM      3  C   UNL     1      45.660   3.977  12.395  0.00  0.00    +0.000 A 
ATOM      4  C   UNL     1      45.244   4.891  11.432  0.00  0.00    +0.000 A 
ATOM      5  N   UNL     1      45.658   6.186  11.442  0.00  0.00    +0.000 NA
ATOM      6  C   UNL     1      46.470   6.577  12.452  0.00  0.00    +0.000 A 
ENDROOT
BRANCH   1   7
ATOM      7  C   UNL     1      47.738   6.271  14.610  0.00  0.00    +0.000 C 
BRANCH   7   8
ATOM      8  C   UNL     1      48.798   7.261  14.120  0.00  0.00    +0.000 C 
BRANCH   8   9
ATOM      9  N   UNL     1      49.571   6.691  13.018  0.00  0.00    +0.000 NA
ATOM     10  H   UNL     1      50.326   7.332  12.770  0.00  0.00    +0.000 HD
ATOM     11  H   UNL     1      48.986   6.614  12.186  0.00  0.00    +0.000 HD
ENDBRANCH   8   9
ENDBRANCH   7   8
ENDBRANCH   1   7
BRANCH   4  12
ATOM     12  C   UNL     1      44.263   4.506  10.353  0.00  0.00    +0.000 C 
BRANCH  12  13
ATOM     13  N   UNL     1      44.720   3.374   9.569  0.00  0.00    +0.000 N 
ATOM     14  C   UNL     1      44.319   2.077   9.741  0.00  0.00    +0.000 A 
ATOM     15  N   UNL     1      44.848   1.282   8.837  0.00  0.00    +0.000 NA
ATOM     16  C   UNL     1      45.630   2.093   8.055  0.00  0.00    +0.000 A 
ATOM     17  C   UNL     1      46.374   1.773   6.912  0.00  0.00    +0.000 A 
ATOM     18  C   UNL     1      47.082   2.797   6.286  0.00  0.00    +0.000 A 
ATOM     19  F   UNL     1      47.762   2.530   5.162  0.00  0.00    +0.000 F 
ATOM     20  C   UNL     1      47.094   4.097   6.787  0.00  0.00    +0.000 A 
ATOM     21  C   UNL     1      46.367   4.430   7.932  0.00  0.00    +0.000 A 
ATOM     22  C   UNL     1      45.614   3.407   8.523  0.00  0.00    +0.000 A 
ENDBRANCH  12  13
ENDBRANCH   4  12
TORSDOF 5
ENDMDL
MODEL 7
REMARK VINA RESULT:    -5.476      2.128      3.249
REMARK INTER + INTRA:          -7.419
REMARK INTER:                  -6.928
REMARK INTRA:                  -0.491
REMARK UNBOUND:                -0.502
REMARK  Name = 
REMARK  5 active torsions:
REMARK  status: ('A' for Active; 'I' for Inactive)
REMARK    1  A    between atoms: N_1  and  C_2
REMARK    2  A    between atoms: C_2  and  C_3
REMARK    3  A    between atoms: C_3  and  C_4
REMARK    4  A    between atoms: C_7  and  C_8
REMARK    5  A    between atoms: C_8  and  N_9
REMARK                            x       y       z     vdW  Elec       q    Type
REMARK                         _______ _______ _______ _____ _____    ______ ____
ROOT
ATOM      1  C   UNL     1      44.731   3.089  10.085  0.00  0.00    +0.000 A 
ATOM      2  C   UNL     1      45.043   2.834  11.422  0.00  0.00    +0.000 A 
ATOM      3  C   UNL     1      44.918   3.850  12.370  0.00  0.00    +0.000 A 
ATOM      4  C   UNL     1      44.501   5.112  11.960  0.00  0.00    +0.000 A 
ATOM      5  N   UNL     1      44.157   5.372  10.670  0.00  0.00    +0.000 NA
ATOM      6  C   UNL     1      44.268   4.362   9.776  0.00  0.00    +0.000 A 
ENDROOT
BRANCH   1   7
ATOM      7  C   UNL     1      44.886   2.036   9.024  0.00  0.00    +0.000 C 
BRANCH   7   8
ATOM      8  C   UNL     1      46.014   2.364   8.042  0.00  0.00    +0.000 C 
BRANCH   8   9
ATOM      9  N   UNL     1      46.759   1.158   7.685  0.00  0.00    +0.000 NA
ATOM     10  H   UNL     1      46.133   0.353   7.725  0.00  0.00    +0.000 HD
ATOM     11  H   UNL     1      47.487   0.981   8.376  0.00  0.00    +0.000 HD
ENDBRANCH   8   9
ENDBRANCH   7   8
ENDBRANCH   1   7
BRANCH   4  12
ATOM     12  C   UNL     1      44.463   6.278  12.915  0.00  0.00    +0.000 C 
BRANCH  12  13
ATOM     13  N   UNL     1      45.350   7.353  12.511  0.00  0.00    +0.000 N 
ATOM     14  C   UNL     1      44.952   8.589  12.078  0.00  0.00    +0.000 A 
ATOM     15  N   UNL     1      45.979   9.377  11.850  0.00  0.00    +0.000 NA
ATOM     16  C   UNL     1      47.087   8.620  12.136  0.00  0.00    +0.000 A 
ATOM     17  C   UNL     1      48.440   8.985  12.119  0.00  0.00    +0.000 A 
ATOM     18  C   UNL     1      49.380   8.020  12.468  0.00  0.00    +0.000 A 
ATOM     19  F   UNL     1      50.678   8.355  12.508  0.00  0.00    +0.000 F 
ATOM     20  C   UNL     1      49.013   6.716  12.790  0.00  0.00    +0.000 A 
ATOM     21  C   UNL     1      47.669   6.331  12.801  0.00  0.00    +0.000 A 
ATOM     22  C   UNL     1      46.726   7.323  12.502  0.00  0.00    +0.000 A 
ENDBRANCH  12  13
ENDBRANCH   4  12
TORSDOF 5
ENDMDL
MODEL 8
REMARK VINA RESULT:    -5.451      3.352      6.253
REMARK INTER + INTRA:          -7.387
REMARK INTER:                  -7.071
REMARK INTRA:                  -0.316
REMARK UNBOUND:                -0.502
REMARK  Name = 
REMARK  5 active torsions:
REMARK  status: ('A' for Active; 'I' for Inactive)
REMARK    1  A    between atoms: N_1  and  C_2
REMARK    2  A    between atoms: C_2  and  C_3
REMARK    3  A    between atoms: C_3  and  C_4
REMARK    4  A    between atoms: C_7  and  C_8
REMARK    5  A    between atoms: C_8  and  N_9
REMARK                            x       y       z     vdW  Elec       q    Type
REMARK                         _______ _______ _______ _____ _____    ______ ____
ROOT
ATOM      1  C   UNL     1      49.454   7.930  12.053  0.00  0.00    +0.000 A 
ATOM      2  C   UNL     1      48.458   8.868  11.776  0.00  0.00    +0.000 A 
ATOM      3  C   UNL     1      47.126   8.573  12.066  0.00  0.00    +0.000 A 
ATOM      4  C   UNL     1      46.809   7.332  12.610  0.00  0.00    +0.000 A 
ATOM      5  N   UNL     1      47.767   6.418  12.922  0.00  0.00    +0.000 NA
ATOM      6  C   UNL     1      49.053   6.740  12.650  0.00  0.00    +0.000 A 
ENDROOT
BRANCH   1   7
ATOM      7  C   UNL     1      50.897   8.190  11.726  0.00  0.00    +0.000 C 
BRANCH   7   8
ATOM      8  C   UNL     1      51.504   9.283  12.609  0.00  0.00    +0.000 C 
BRANCH   8   9
ATOM      9  N   UNL     1      51.271   8.999  14.023  0.00  0.00    +0.000 NA
ATOM     10  H   UNL     1      52.164   8.993  14.517  0.00  0.00    +0.000 HD
ATOM     11  H   UNL     1      50.885   8.061  14.131  0.00  0.00    +0.000 HD
ENDBRANCH   8   9
ENDBRANCH   7   8
ENDBRANCH   1   7
BRANCH   4  12
ATOM     12  C   UNL     1      45.378   6.911  12.830  0.00  0.00    +0.000 C 
BRANCH  12  13
ATOM     13  N   UNL     1      45.142   5.533  12.443  0.00  0.00    +0.000 N 
ATOM     14  C   UNL     1      44.749   4.529  13.286  0.00  0.00    +0.000 A 
ATOM     15  N   UNL     1      44.546   3.403  12.639  0.00  0.00    +0.000 NA
ATOM     16  C   UNL     1      44.827   3.685  11.325  0.00  0.00    +0.000 A 
ATOM     17  C   UNL     1      44.720   2.860  10.198  0.00  0.00    +0.000 A 
ATOM     18  C   UNL     1      45.061   3.399   8.960  0.00  0.00    +0.000 A 
ATOM     19  F   UNL     1      44.921   2.649   7.858  0.00  0.00    +0.000 F 
ATOM     20  C   UNL     1      45.532   4.704   8.829  0.00  0.00    +0.000 A 
ATOM     21  C   UNL     1      45.656   5.536   9.945  0.00  0.00    +0.000 A 
ATOM     22  C   UNL     1      45.259   5.004  11.178  0.00  0.00    +0.000 A 
ENDBRANCH  12  13
ENDBRANCH   4  12
TORSDOF 5
ENDMDL
MODEL 9
REMARK VINA RESULT:    -5.195      4.225      8.004
REMARK INTER + INTRA:          -7.063
REMARK INTER:                  -6.662
REMARK INTRA:                  -0.402
REMARK UNBOUND:                -0.502
REMARK  Name = 
REMARK  5 active torsions:
REMARK  status: ('A' for Active; 'I' for Inactive)
REMARK    1  A    between atoms: N_1  and  C_2
REMARK    2  A    between atoms: C_2  and  C_3
REMARK    3  A    between atoms: C_3  and  C_4
REMARK    4  A    between atoms: C_7  and  C_8
REMARK    5  A    between atoms: C_8  and  N_9
REMARK                            x       y       z     vdW  Elec       q    Type
REMARK                         _______ _______ _______ _____ _____    ______ ____
ROOT
ATOM      1  C   UNL     1      48.740   6.064  17.587  0.00  0.00    +0.000 A 
ATOM      2  C   UNL     1      48.993   7.286  16.961  0.00  0.00    +0.000 A 
ATOM      3  C   UNL     1      48.779   7.421  15.589  0.00  0.00    +0.000 A 
ATOM      4  C   UNL     1      48.335   6.321  14.861  0.00  0.00    +0.000 A 
ATOM      5  N   UNL     1      48.048   5.133  15.456  0.00  0.00    +0.000 NA
ATOM      6  C   UNL     1      48.243   5.037  16.792  0.00  0.00    +0.000 A 
ENDROOT
BRANCH   1   7
ATOM      7  C   UNL     1      48.990   5.862  19.055  0.00  0.00    +0.000 C 
BRANCH   7   8
ATOM      8  C   UNL     1      49.458   4.440  19.373  0.00  0.00    +0.000 C 
BRANCH   8   9
ATOM      9  N   UNL     1      48.469   3.736  20.186  0.00  0.00    +0.000 NA
ATOM     10  H   UNL     1      48.803   3.682  21.149  0.00  0.00    +0.000 HD
ATOM     11  H   UNL     1      48.378   2.771  19.867  0.00  0.00    +0.000 HD
ENDBRANCH   8   9
ENDBRANCH   7   8
ENDBRANCH   1   7
BRANCH   4  12
ATOM     12  C   UNL     1      48.203   6.372  13.359  0.00  0.00    +0.000 C 
BRANCH  12  13
ATOM     13  N   UNL     1      46.826   6.527  12.931  0.00  0.00    +0.000 N 
ATOM     14  C   UNL     1      46.199   7.720  12.690  0.00  0.00    +0.000 A 
ATOM     15  N   UNL     1      44.975   7.544  12.246  0.00  0.00    +0.000 NA
ATOM     16  C   UNL     1      44.795   6.184  12.208  0.00  0.00    +0.000 A 
ATOM     17  C   UNL     1      43.691   5.447  11.758  0.00  0.00    +0.000 A 
ATOM     18  C   UNL     1      43.768   4.058  11.815  0.00  0.00    +0.000 A 
ATOM     19  F   UNL     1      42.747   3.327  11.346  0.00  0.00    +0.000 F 
ATOM     20  C   UNL     1      44.882   3.402  12.333  0.00  0.00    +0.000 A 
ATOM     21  C   UNL     1      45.987   4.122  12.796  0.00  0.00    +0.000 A 
ATOM     22  C   UNL     1      45.923   5.517  12.685  0.00  0.00    +0.000 A 
ENDBRANCH  12  13
ENDBRANCH   4  12
TORSDOF 5
ENDMDL
