MODEL 1
REMARK VINA RESULT:    -8.686      0.000      0.000
REMARK INTER + INTRA:         -12.956
REMARK INTER:                 -11.733
REMARK INTRA:                  -1.223
REMARK UNBOUND:                -1.223
REMARK  Name = 
REMARK  6 active torsions:
REMARK  status: ('A' for Active; 'I' for Inactive)
REMARK    1  A    between atoms: C_2  and  C_4
REMARK    2  A    between atoms: C_7  and  S_8
REMARK    3  A    between atoms: S_8  and  C_9
REMARK    4  A    between atoms: C_9  and  C_10
REMARK    5  A    between atoms: C_10  and  C_13
REMARK    6  A    between atoms: C_17  and  C_18
REMARK                            x       y       z     vdW  Elec       q    Type
REMARK                         _______ _______ _______ _____ _____    ______ ____
ROOT
ATOM      1  C   UNL     1      43.602   5.762  11.910  0.00  0.00    +0.000 C 
ATOM      2  F   UNL     1      43.002   6.976  11.722  0.00  0.00    +0.000 F 
ATOM      3  F   UNL     1      42.952   5.197  12.972  0.00  0.00    +0.000 F 
ENDROOT
BRANCH   1   4
ATOM      4  C   UNL     1      45.087   5.920  12.197  0.00  0.00    +0.000 A 
ATOM      5  C   UNL     1      45.913   6.645  11.330  0.00  0.00    +0.000 A 
ATOM      6  C   UNL     1      47.265   6.804  11.622  0.00  0.00    +0.000 A 
ATOM      7  C   UNL     1      47.802   6.252  12.787  0.00  0.00    +0.000 A 
ATOM      8  C   UNL     1      47.003   5.539  13.700  0.00  0.00    +0.000 A 
ATOM      9  C   UNL     1      45.646   5.365  13.365  0.00  0.00    +0.000 A 
BRANCH   8  10
ATOM     10  C   UNL     1      47.541   5.060  14.997  0.00  0.00    +0.000 A 
ATOM     11  C   UNL     1      48.367   5.887  15.786  0.00  0.00    +0.000 A 
ATOM     12  C   UNL     1      48.818   5.482  17.046  0.00  0.00    +0.000 A 
ATOM     13  C   UNL     1      48.444   4.243  17.539  0.00  0.00    +0.000 A 
ATOM     14  F   UNL     1      48.852   3.864  18.757  0.00  0.00    +0.000 F 
ATOM     15  C   UNL     1      47.644   3.394  16.787  0.00  0.00    +0.000 A 
ATOM     16  C   UNL     1      47.204   3.796  15.522  0.00  0.00    +0.000 A 
ENDBRANCH   8  10
ENDBRANCH   1   4
BRANCH   1  17
ATOM     17  C   UNL     1      43.370   4.896  10.666  0.00  0.00    +0.000 C 
BRANCH  17  18
ATOM     18  S   UNL     1      43.891   3.144  10.903  0.00  0.00    +0.000 S 
BRANCH  18  22
ATOM     19  C   UNL     1      46.614   2.604   7.319  0.00  0.00    +0.000 A 
ATOM     20  C   UNL     1      46.133   3.879   7.612  0.00  0.00    +0.000 A 
ATOM     21  C   UNL     1      45.283   4.051   8.710  0.00  0.00    +0.000 A 
ATOM     22  C   UNL     1      44.943   2.942   9.480  0.00  0.00    +0.000 A 
ATOM     23  N   UNL     1      45.387   1.698   9.198  0.00  0.00    +0.000 NA
ATOM     24  C   UNL     1      46.200   1.553   8.122  0.00  0.00    +0.000 A 
BRANCH  19  26
ATOM     25  N   UNL     1      47.492   3.145   5.117  0.00  0.00    +0.000 N 
ATOM     26  C   UNL     1      47.529   2.310   6.202  0.00  0.00    +0.000 C 
ATOM     27  O   UNL     1      48.320   1.379   6.250  0.00  0.00    +0.000 OA
ATOM     28  H   UNL     1      48.210   2.997   4.419  0.00  0.00    +0.000 HD
ATOM     29  H   UNL     1      47.049   4.053   5.142  0.00  0.00    +0.000 HD
ENDBRANCH  19  26
ENDBRANCH  18  22
ENDBRANCH  17  18
ENDBRANCH   1  17
TORSDOF 6
ENDMDL
MODEL 2
REMARK VINA RESULT:    -8.100      4.127      7.610
REMARK INTER + INTRA:         -12.164
REMARK INTER:                 -10.974
REMARK INTRA:                  -1.190
REMARK UNBOUND:                -1.223
REMARK  Name = 
REMARK  6 active torsions:
REMARK  status: ('A' for Active; 'I' for Inactive)
REMARK    1  A    between atoms: C_2  and  C_4
REMARK    2  A    between atoms: C_7  and  S_8
REMARK    3  A    between atoms: S_8  and  C_9
REMARK    4  A    between atoms: C_9  and  C_10
REMARK    5  A    between atoms: C_10  and  C_13
REMARK    6  A    between atoms: C_17  and  C_18
REMARK                            x       y       z     vdW  Elec       q    Type
REMARK                         _______ _______ _______ _____ _____    ______ ____
ROOT
ATOM      1  C   UNL     1      45.674   7.919  12.003  0.00  0.00    +0.000 C 
ATOM      2  F   UNL     1      45.321   8.268  13.277  0.00  0.00    +0.000 F 
ATOM      3  F   UNL     1      45.413   9.022  11.239  0.00  0.00    +0.000 F 
ENDROOT
BRANCH   1   4
ATOM      4  C   UNL     1      44.878   6.717  11.521  0.00  0.00    +0.000 A 
ATOM      5  C   UNL     1      43.544   6.539  11.901  0.00  0.00    +0.000 A 
ATOM      6  C   UNL     1      42.820   5.447  11.427  0.00  0.00    +0.000 A 
ATOM      7  C   UNL     1      43.420   4.530  10.561  0.00  0.00    +0.000 A 
ATOM      8  C   UNL     1      44.750   4.685  10.131  0.00  0.00    +0.000 A 
ATOM      9  C   UNL     1      45.468   5.779  10.651  0.00  0.00    +0.000 A 
BRANCH   8  10
ATOM     10  C   UNL     1      45.350   3.786   9.115  0.00  0.00    +0.000 A 
ATOM     11  C   UNL     1      46.042   4.311   8.004  0.00  0.00    +0.000 A 
ATOM     12  C   UNL     1      46.680   3.480   7.079  0.00  0.00    +0.000 A 
ATOM     13  C   UNL     1      46.640   2.106   7.256  0.00  0.00    +0.000 A 
ATOM     14  F   UNL     1      47.274   1.309   6.386  0.00  0.00    +0.000 F 
ATOM     15  C   UNL     1      45.958   1.549   8.327  0.00  0.00    +0.000 A 
ATOM     16  C   UNL     1      45.310   2.383   9.245  0.00  0.00    +0.000 A 
ENDBRANCH   8  10
ENDBRANCH   1   4
BRANCH   1  17
ATOM     17  C   UNL     1      47.181   7.633  11.968  0.00  0.00    +0.000 C 
BRANCH  17  18
ATOM     18  S   UNL     1      48.047   8.159  13.507  0.00  0.00    +0.000 S 
BRANCH  18  22
ATOM     19  C   UNL     1      47.868   4.308  15.892  0.00  0.00    +0.000 A 
ATOM     20  C   UNL     1      47.167   4.388  14.690  0.00  0.00    +0.000 A 
ATOM     21  C   UNL     1      47.208   5.578  13.955  0.00  0.00    +0.000 A 
ATOM     22  C   UNL     1      47.952   6.648  14.445  0.00  0.00    +0.000 A 
ATOM     23  N   UNL     1      48.622   6.592  15.617  0.00  0.00    +0.000 NA
ATOM     24  C   UNL     1      48.557   5.433  16.318  0.00  0.00    +0.000 A 
BRANCH  19  26
ATOM     25  N   UNL     1      46.855   2.882  17.581  0.00  0.00    +0.000 N 
ATOM     26  C   UNL     1      47.911   3.102  16.738  0.00  0.00    +0.000 C 
ATOM     27  O   UNL     1      48.833   2.303  16.667  0.00  0.00    +0.000 OA
ATOM     28  H   UNL     1      46.847   1.990  18.059  0.00  0.00    +0.000 HD
ATOM     29  H   UNL     1      45.972   3.366  17.488  0.00  0.00    +0.000 HD
ENDBRANCH  19  26
ENDBRANCH  18  22
ENDBRANCH  17  18
ENDBRANCH   1  17
TORSDOF 6
ENDMDL
MODEL 3
REMARK VINA RESULT:    -8.016      3.121      4.418
REMARK INTER + INTRA:         -12.051
REMARK INTER:                 -10.974
REMARK INTRA:                  -1.077
REMARK UNBOUND:                -1.223
REMARK  Name = 
REMARK  6 active torsions:
REMARK  status: ('A' for Active; 'I' for Inactive)
REMARK    1  A    between atoms: C_2  and  C_4
REMARK    2  A    between atoms: C_7  and  S_8
REMARK    3  A    between atoms: S_8  and  C_9
REMARK    4  A    between atoms: C_9  and  C_10
REMARK    5  A    between atoms: C_10  and  C_13
REMARK    6  A    between atoms: C_17  and  C_18
REMARK                            x       y       z     vdW  Elec       q    Type
REMARK                         _______ _______ _______ _____ _____    ______ ____
ROOT
ATOM      1  C   UNL     1      45.259   5.715  12.182  0.00  0.00    +0.000 C 
ATOM      2  F   UNL     1      44.650   5.469  13.381  0.00  0.00    +0.000 F 
ATOM      3  F   UNL     1      46.235   4.765  12.069  0.00  0.00    +0.000 F 
ENDROOT
BRANCH   1   4
ATOM      4  C   UNL     1      45.849   7.116  12.141  0.00  0.00    +0.000 A 
ATOM      5  C   UNL     1      45.079   8.230  12.492  0.00  0.00    +0.000 A 
ATOM      6  C   UNL     1      45.643   9.504  12.476  0.00  0.00    +0.000 A 
ATOM      7  C   UNL     1      46.984   9.674  12.122  0.00  0.00    +0.000 A 
ATOM      8  C   UNL     1      47.802   8.578  11.790  0.00  0.00    +0.000 A 
ATOM      9  C   UNL     1      47.198   7.306  11.782  0.00  0.00    +0.000 A 
BRANCH   8  10
ATOM     10  C   UNL     1      49.255   8.740  11.537  0.00  0.00    +0.000 A 
ATOM     11  C   UNL     1      50.083   7.616  11.337  0.00  0.00    +0.000 A 
ATOM     12  C   UNL     1      51.437   7.752  11.020  0.00  0.00    +0.000 A 
ATOM     13  C   UNL     1      51.984   9.019  10.891  0.00  0.00    +0.000 A 
ATOM     14  F   UNL     1      53.275   9.152  10.560  0.00  0.00    +0.000 F 
ATOM     15  C   UNL     1      51.206  10.150  11.093  0.00  0.00    +0.000 A 
ATOM     16  C   UNL     1      49.854  10.011  11.422  0.00  0.00    +0.000 A 
ENDBRANCH   8  10
ENDBRANCH   1   4
BRANCH   1  17
ATOM     17  C   UNL     1      44.236   5.515  11.057  0.00  0.00    +0.000 C 
BRANCH  17  18
ATOM     18  S   UNL     1      43.783   3.746  10.806  0.00  0.00    +0.000 S 
BRANCH  18  22
ATOM     19  C   UNL     1      46.604   2.680   7.422  0.00  0.00    +0.000 A 
ATOM     20  C   UNL     1      46.223   4.010   7.586  0.00  0.00    +0.000 A 
ATOM     21  C   UNL     1      45.344   4.344   8.622  0.00  0.00    +0.000 A 
ATOM     22  C   UNL     1      44.875   3.337   9.461  0.00  0.00    +0.000 A 
ATOM     23  N   UNL     1      45.221   2.041   9.303  0.00  0.00    +0.000 NA
ATOM     24  C   UNL     1      46.065   1.739   8.285  0.00  0.00    +0.000 A 
BRANCH  19  26
ATOM     25  N   UNL     1      47.732   3.032   5.297  0.00  0.00    +0.000 N 
ATOM     26  C   UNL     1      47.538   2.217   6.380  0.00  0.00    +0.000 C 
ATOM     27  O   UNL     1      48.149   1.164   6.490  0.00  0.00    +0.000 OA
ATOM     28  H   UNL     1      48.466   2.753   4.658  0.00  0.00    +0.000 HD
ATOM     29  H   UNL     1      47.454   4.004   5.288  0.00  0.00    +0.000 HD
ENDBRANCH  19  26
ENDBRANCH  18  22
ENDBRANCH  17  18
ENDBRANCH   1  17
TORSDOF 6
ENDMDL
MODEL 4
REMARK VINA RESULT:    -7.640      4.462      8.405
REMARK INTER + INTRA:         -11.543
REMARK INTER:                 -11.134
REMARK INTRA:                  -0.409
REMARK UNBOUND:                -1.223
REMARK  Name = 
REMARK  6 active torsions:
REMARK  status: ('A' for Active; 'I' for Inactive)
REMARK    1  A    between atoms: C_2  and  C_4
REMARK    2  A    between atoms: C_7  and  S_8
REMARK    3  A    between atoms: S_8  and  C_9
REMARK    4  A    between atoms: C_9  and  C_10
REMARK    5  A    between atoms: C_10  and  C_13
REMARK    6  A    between atoms: C_17  and  C_18
REMARK                            x       y       z     vdW  Elec       q    Type
REMARK                         _______ _______ _______ _____ _____    ______ ____
ROOT
ATOM      1  C   UNL     1      46.050   7.167  12.453  0.00  0.00    +0.000 C 
ATOM      2  F   UNL     1      45.310   7.964  13.282  0.00  0.00    +0.000 F 
ATOM      3  F   UNL     1      46.646   8.021  11.567  0.00  0.00    +0.000 F 
ENDROOT
BRANCH   1   4
ATOM      4  C   UNL     1      45.173   6.155  11.733  0.00  0.00    +0.000 A 
ATOM      5  C   UNL     1      43.798   6.087  11.987  0.00  0.00    +0.000 A 
ATOM      6  C   UNL     1      43.004   5.173  11.298  0.00  0.00    +0.000 A 
ATOM      7  C   UNL     1      43.574   4.328  10.342  0.00  0.00    +0.000 A 
ATOM      8  C   UNL     1      44.946   4.382  10.036  0.00  0.00    +0.000 A 
ATOM      9  C   UNL     1      45.731   5.293  10.769  0.00  0.00    +0.000 A 
BRANCH   8  10
ATOM     10  C   UNL     1      45.530   3.577   8.935  0.00  0.00    +0.000 A 
ATOM     11  C   UNL     1      46.129   4.203   7.822  0.00  0.00    +0.000 A 
ATOM     12  C   UNL     1      46.753   3.462   6.815  0.00  0.00    +0.000 A 
ATOM     13  C   UNL     1      46.794   2.080   6.909  0.00  0.00    +0.000 A 
ATOM     14  F   UNL     1      47.416   1.371   5.959  0.00  0.00    +0.000 F 
ATOM     15  C   UNL     1      46.205   1.426   7.981  0.00  0.00    +0.000 A 
ATOM     16  C   UNL     1      45.570   2.170   8.982  0.00  0.00    +0.000 A 
ENDBRANCH   8  10
ENDBRANCH   1   4
BRANCH   1  17
ATOM     17  C   UNL     1      47.136   6.467  13.279  0.00  0.00    +0.000 C 
BRANCH  17  18
ATOM     18  S   UNL     1      46.679   4.746  13.751  0.00  0.00    +0.000 S 
BRANCH  18  22
ATOM     19  C   UNL     1      48.163   4.677  18.035  0.00  0.00    +0.000 A 
ATOM     20  C   UNL     1      48.677   5.633  17.160  0.00  0.00    +0.000 A 
ATOM     21  C   UNL     1      48.232   5.652  15.834  0.00  0.00    +0.000 A 
ATOM     22  C   UNL     1      47.285   4.716  15.426  0.00  0.00    +0.000 A 
ATOM     23  N   UNL     1      46.791   3.773  16.257  0.00  0.00    +0.000 NA
ATOM     24  C   UNL     1      47.246   3.765  17.535  0.00  0.00    +0.000 A 
BRANCH  19  26
ATOM     25  N   UNL     1      48.525   3.333  20.028  0.00  0.00    +0.000 N 
ATOM     26  C   UNL     1      48.544   4.577  19.455  0.00  0.00    +0.000 C 
ATOM     27  O   UNL     1      48.900   5.556  20.094  0.00  0.00    +0.000 OA
ATOM     28  H   UNL     1      48.906   3.270  20.964  0.00  0.00    +0.000 HD
ATOM     29  H   UNL     1      48.488   2.481  19.484  0.00  0.00    +0.000 HD
ENDBRANCH  19  26
ENDBRANCH  18  22
ENDBRANCH  17  18
ENDBRANCH   1  17
TORSDOF 6
ENDMDL
MODEL 5
REMARK VINA RESULT:    -7.578      1.608      2.260
REMARK INTER + INTRA:         -11.458
REMARK INTER:                 -10.541
REMARK INTRA:                  -0.917
REMARK UNBOUND:                -1.223
REMARK  Name = 
REMARK  6 active torsions:
REMARK  status: ('A' for Active; 'I' for Inactive)
REMARK    1  A    between atoms: C_2  and  C_4
REMARK    2  A    between atoms: C_7  and  S_8
REMARK    3  A    between atoms: S_8  and  C_9
REMARK    4  A    between atoms: C_9  and  C_10
REMARK    5  A    between atoms: C_10  and  C_13
REMARK    6  A    between atoms: C_17  and  C_18
REMARK                            x       y       z     vdW  Elec       q    Type
REMARK                         _______ _______ _______ _____ _____    ______ ____
ROOT
ATOM      1  C   UNL     1      44.894   5.009  12.909  0.00  0.00    +0.000 C 
ATOM      2  F   UNL     1      43.838   5.822  12.604  0.00  0.00    +0.000 F 
ATOM      3  F   UNL     1      44.665   4.581  14.187  0.00  0.00    +0.000 F 
ENDROOT
BRANCH   1   4
ATOM      4  C   UNL     1      46.213   5.759  12.809  0.00  0.00    +0.000 A 
ATOM      5  C   UNL     1      46.576   6.421  11.631  0.00  0.00    +0.000 A 
ATOM      6  C   UNL     1      47.775   7.127  11.566  0.00  0.00    +0.000 A 
ATOM      7  C   UNL     1      48.615   7.189  12.680  0.00  0.00    +0.000 A 
ATOM      8  C   UNL     1      48.276   6.562  13.892  0.00  0.00    +0.000 A 
ATOM      9  C   UNL     1      47.075   5.828  13.921  0.00  0.00    +0.000 A 
BRANCH   8  10
ATOM     10  C   UNL     1      49.103   6.729  15.113  0.00  0.00    +0.000 A 
ATOM     11  C   UNL     1      48.677   6.205  16.351  0.00  0.00    +0.000 A 
ATOM     12  C   UNL     1      49.479   6.285  17.494  0.00  0.00    +0.000 A 
ATOM     13  C   UNL     1      50.724   6.887  17.413  0.00  0.00    +0.000 A 
ATOM     14  F   UNL     1      51.505   6.940  18.500  0.00  0.00    +0.000 F 
ATOM     15  C   UNL     1      51.174   7.427  16.217  0.00  0.00    +0.000 A 
ATOM     16  C   UNL     1      50.364   7.357  15.078  0.00  0.00    +0.000 A 
ENDBRANCH   8  10
ENDBRANCH   1   4
BRANCH   1  17
ATOM     17  C   UNL     1      44.876   3.799  11.967  0.00  0.00    +0.000 C 
BRANCH  17  18
ATOM     18  S   UNL     1      43.864   4.083  10.453  0.00  0.00    +0.000 S 
BRANCH  18  22
ATOM     19  C   UNL     1      46.728   2.648   7.245  0.00  0.00    +0.000 A 
ATOM     20  C   UNL     1      46.114   1.706   8.069  0.00  0.00    +0.000 A 
ATOM     21  C   UNL     1      45.238   2.143   9.068  0.00  0.00    +0.000 A 
ATOM     22  C   UNL     1      45.003   3.508   9.210  0.00  0.00    +0.000 A 
ATOM     23  N   UNL     1      45.604   4.434   8.432  0.00  0.00    +0.000 NA
ATOM     24  C   UNL     1      46.459   3.988   7.478  0.00  0.00    +0.000 A 
BRANCH  19  26
ATOM     25  N   UNL     1      47.686   3.135   5.064  0.00  0.00    +0.000 N 
ATOM     26  C   UNL     1      47.651   2.302   6.150  0.00  0.00    +0.000 C 
ATOM     27  O   UNL     1      48.389   1.329   6.218  0.00  0.00    +0.000 OA
ATOM     28  H   UNL     1      48.411   2.947   4.384  0.00  0.00    +0.000 HD
ATOM     29  H   UNL     1      47.294   4.067   5.078  0.00  0.00    +0.000 HD
ENDBRANCH  19  26
ENDBRANCH  18  22
ENDBRANCH  17  18
ENDBRANCH   1  17
TORSDOF 6
ENDMDL
MODEL 6
REMARK VINA RESULT:    -7.500      2.272      4.124
REMARK INTER + INTRA:         -11.353
REMARK INTER:                 -10.389
REMARK INTRA:                  -0.964
REMARK UNBOUND:                -1.223
REMARK  Name = 
REMARK  6 active torsions:
REMARK  status: ('A' for Active; 'I' for Inactive)
REMARK    1  A    between atoms: C_2  and  C_4
REMARK    2  A    between atoms: C_7  and  S_8
REMARK    3  A    between atoms: S_8  and  C_9
REMARK    4  A    between atoms: C_9  and  C_10
REMARK    5  A    between atoms: C_10  and  C_13
REMARK    6  A    between atoms: C_17  and  C_18
REMARK                            x       y       z     vdW  Elec       q    Type
REMARK                         _______ _______ _______ _____ _____    ______ ____
ROOT
ATOM      1  C   UNL     1      44.262   4.634  12.986  0.00  0.00    +0.000 C 
ATOM      2  F   UNL     1      43.394   5.613  12.591  0.00  0.00    +0.000 F 
ATOM      3  F   UNL     1      43.632   3.983  14.010  0.00  0.00    +0.000 F 
ENDROOT
BRANCH   1   4
ATOM      4  C   UNL     1      45.587   5.223  13.443  0.00  0.00    +0.000 A 
ATOM      5  C   UNL     1      46.395   4.546  14.363  0.00  0.00    +0.000 A 
ATOM      6  C   UNL     1      47.619   5.086  14.749  0.00  0.00    +0.000 A 
ATOM      7  C   UNL     1      48.053   6.300  14.210  0.00  0.00    +0.000 A 
ATOM      8  C   UNL     1      47.285   6.999  13.261  0.00  0.00    +0.000 A 
ATOM      9  C   UNL     1      46.037   6.448  12.913  0.00  0.00    +0.000 A 
BRANCH   8  10
ATOM     10  C   UNL     1      47.798   8.221  12.593  0.00  0.00    +0.000 A 
ATOM     11  C   UNL     1      49.130   8.289  12.133  0.00  0.00    +0.000 A 
ATOM     12  C   UNL     1      49.606   9.400  11.433  0.00  0.00    +0.000 A 
ATOM     13  C   UNL     1      48.754  10.462  11.176  0.00  0.00    +0.000 A 
ATOM     14  F   UNL     1      49.201  11.516  10.481  0.00  0.00    +0.000 F 
ATOM     15  C   UNL     1      47.441  10.440  11.623  0.00  0.00    +0.000 A 
ATOM     16  C   UNL     1      46.970   9.332  12.335  0.00  0.00    +0.000 A 
ENDBRANCH   8  10
ENDBRANCH   1   4
BRANCH   1  17
ATOM     17  C   UNL     1      44.465   3.654  11.824  0.00  0.00    +0.000 C 
BRANCH  17  18
ATOM     18  S   UNL     1      43.670   4.221  10.261  0.00  0.00    +0.000 S 
BRANCH  18  22
ATOM     19  C   UNL     1      46.781   2.768   7.301  0.00  0.00    +0.000 A 
ATOM     20  C   UNL     1      46.634   4.139   7.503  0.00  0.00    +0.000 A 
ATOM     21  C   UNL     1      45.668   4.594   8.407  0.00  0.00    +0.000 A 
ATOM     22  C   UNL     1      44.881   3.663   9.080  0.00  0.00    +0.000 A 
ATOM     23  N   UNL     1      45.000   2.333   8.881  0.00  0.00    +0.000 NA
ATOM     24  C   UNL     1      45.935   1.915   7.991  0.00  0.00    +0.000 A 
BRANCH  19  26
ATOM     25  N   UNL     1      48.092   2.876   5.256  0.00  0.00    +0.000 N 
ATOM     26  C   UNL     1      47.777   2.176   6.390  0.00  0.00    +0.000 C 
ATOM     27  O   UNL     1      48.333   1.118   6.648  0.00  0.00    +0.000 OA
ATOM     28  H   UNL     1      48.864   2.513   4.710  0.00  0.00    +0.000 HD
ATOM     29  H   UNL     1      47.856   3.851   5.133  0.00  0.00    +0.000 HD
ENDBRANCH  19  26
ENDBRANCH  18  22
ENDBRANCH  17  18
ENDBRANCH   1  17
TORSDOF 6
ENDMDL
MODEL 7
REMARK VINA RESULT:    -7.446      4.398      7.563
REMARK INTER + INTRA:         -11.280
REMARK INTER:                 -10.241
REMARK INTRA:                  -1.039
REMARK UNBOUND:                -1.223
REMARK  Name = 
REMARK  6 active torsions:
REMARK  status: ('A' for Active; 'I' for Inactive)
REMARK    1  A    between atoms: C_2  and  C_4
REMARK    2  A    between atoms: C_7  and  S_8
REMARK    3  A    between atoms: S_8  and  C_9
REMARK    4  A    between atoms: C_9  and  C_10
REMARK    5  A    between atoms: C_10  and  C_13
REMARK    6  A    between atoms: C_17  and  C_18
REMARK                            x       y       z     vdW  Elec       q    Type
REMARK                         _______ _______ _______ _____ _____    ______ ____
ROOT
ATOM      1  C   UNL     1      44.844   5.846  12.502  0.00  0.00    +0.000 C 
ATOM      2  F   UNL     1      45.787   5.667  13.475  0.00  0.00    +0.000 F 
ATOM      3  F   UNL     1      43.734   6.307  13.153  0.00  0.00    +0.000 F 
ENDROOT
BRANCH   1   4
ATOM      4  C   UNL     1      44.551   4.545  11.771  0.00  0.00    +0.000 A 
ATOM      5  C   UNL     1      43.527   3.694  12.201  0.00  0.00    +0.000 A 
ATOM      6  C   UNL     1      43.254   2.520  11.503  0.00  0.00    +0.000 A 
ATOM      7  C   UNL     1      43.992   2.192  10.363  0.00  0.00    +0.000 A 
ATOM      8  C   UNL     1      45.011   3.033   9.880  0.00  0.00    +0.000 A 
ATOM      9  C   UNL     1      45.289   4.197  10.622  0.00  0.00    +0.000 A 
BRANCH   8  10
ATOM     10  C   UNL     1      45.711   2.752   8.602  0.00  0.00    +0.000 A 
ATOM     11  C   UNL     1      45.951   3.782   7.669  0.00  0.00    +0.000 A 
ATOM     12  C   UNL     1      46.677   3.552   6.497  0.00  0.00    +0.000 A 
ATOM     13  C   UNL     1      47.181   2.286   6.243  0.00  0.00    +0.000 A 
ATOM     14  F   UNL     1      47.900   2.071   5.134  0.00  0.00    +0.000 F 
ATOM     15  C   UNL     1      46.955   1.243   7.129  0.00  0.00    +0.000 A 
ATOM     16  C   UNL     1      46.217   1.473   8.296  0.00  0.00    +0.000 A 
ENDBRANCH   8  10
ENDBRANCH   1   4
BRANCH   1  17
ATOM     17  C   UNL     1      45.335   6.926  11.530  0.00  0.00    +0.000 C 
BRANCH  17  18
ATOM     18  S   UNL     1      45.746   8.514  12.369  0.00  0.00    +0.000 S 
BRANCH  18  22
ATOM     19  C   UNL     1      50.213   8.662  11.613  0.00  0.00    +0.000 A 
ATOM     20  C   UNL     1      49.614   7.429  11.867  0.00  0.00    +0.000 A 
ATOM     21  C   UNL     1      48.238   7.378  12.113  0.00  0.00    +0.000 A 
ATOM     22  C   UNL     1      47.505   8.561  12.094  0.00  0.00    +0.000 A 
ATOM     23  N   UNL     1      48.074   9.765  11.867  0.00  0.00    +0.000 NA
ATOM     24  C   UNL     1      49.411   9.792  11.643  0.00  0.00    +0.000 A 
BRANCH  19  26
ATOM     25  N   UNL     1      52.432   7.709  11.328  0.00  0.00    +0.000 N 
ATOM     26  C   UNL     1      51.648   8.832  11.322  0.00  0.00    +0.000 C 
ATOM     27  O   UNL     1      52.121   9.925  11.049  0.00  0.00    +0.000 OA
ATOM     28  H   UNL     1      53.384   7.831  11.007  0.00  0.00    +0.000 HD
ATOM     29  H   UNL     1      52.048   6.775  11.295  0.00  0.00    +0.000 HD
ENDBRANCH  19  26
ENDBRANCH  18  22
ENDBRANCH  17  18
ENDBRANCH   1  17
TORSDOF 6
ENDMDL
MODEL 8
REMARK VINA RESULT:    -7.400      4.585      8.052
REMARK INTER + INTRA:         -11.218
REMARK INTER:                 -10.177
REMARK INTRA:                  -1.041
REMARK UNBOUND:                -1.223
REMARK  Name = 
REMARK  6 active torsions:
REMARK  status: ('A' for Active; 'I' for Inactive)
REMARK    1  A    between atoms: C_2  and  C_4
REMARK    2  A    between atoms: C_7  and  S_8
REMARK    3  A    between atoms: S_8  and  C_9
REMARK    4  A    between atoms: C_9  and  C_10
REMARK    5  A    between atoms: C_10  and  C_13
REMARK    6  A    between atoms: C_17  and  C_18
REMARK                            x       y       z     vdW  Elec       q    Type
REMARK                         _______ _______ _______ _____ _____    ______ ____
ROOT
ATOM      1  C   UNL     1      48.919   8.153  12.418  0.00  0.00    +0.000 C 
ATOM      2  F   UNL     1      49.445   9.056  11.537  0.00  0.00    +0.000 F 
ATOM      3  F   UNL     1      49.648   7.009  12.243  0.00  0.00    +0.000 F 
ENDROOT
BRANCH   1   4
ATOM      4  C   UNL     1      47.443   7.911  12.145  0.00  0.00    +0.000 A 
ATOM      5  C   UNL     1      46.495   8.911  12.385  0.00  0.00    +0.000 A 
ATOM      6  C   UNL     1      45.150   8.683  12.101  0.00  0.00    +0.000 A 
ATOM      7  C   UNL     1      44.743   7.459  11.565  0.00  0.00    +0.000 A 
ATOM      8  C   UNL     1      45.667   6.436  11.283  0.00  0.00    +0.000 A 
ATOM      9  C   UNL     1      47.015   6.681  11.608  0.00  0.00    +0.000 A 
BRANCH   8  10
ATOM     10  C   UNL     1      45.257   5.185  10.598  0.00  0.00    +0.000 A 
ATOM     11  C   UNL     1      45.590   4.959   9.246  0.00  0.00    +0.000 A 
ATOM     12  C   UNL     1      45.281   3.755   8.608  0.00  0.00    +0.000 A 
ATOM     13  C   UNL     1      44.638   2.752   9.317  0.00  0.00    +0.000 A 
ATOM     14  F   UNL     1      44.366   1.587   8.715  0.00  0.00    +0.000 F 
ATOM     15  C   UNL     1      44.282   2.940  10.644  0.00  0.00    +0.000 A 
ATOM     16  C   UNL     1      44.581   4.152  11.277  0.00  0.00    +0.000 A 
ENDBRANCH   8  10
ENDBRANCH   1   4
BRANCH   1  17
ATOM     17  C   UNL     1      49.138   8.669  13.846  0.00  0.00    +0.000 C 
BRANCH  17  18
ATOM     18  S   UNL     1      50.603   7.911  14.666  0.00  0.00    +0.000 S 
BRANCH  18  22
ATOM     19  C   UNL     1      48.512   4.670  17.048  0.00  0.00    +0.000 A 
ATOM     20  C   UNL     1      49.762   5.117  17.473  0.00  0.00    +0.000 A 
ATOM     21  C   UNL     1      50.417   6.109  16.736  0.00  0.00    +0.000 A 
ATOM     22  C   UNL     1      49.801   6.623  15.599  0.00  0.00    +0.000 A 
ATOM     23  N   UNL     1      48.599   6.187  15.164  0.00  0.00    +0.000 NA
ATOM     24  C   UNL     1      47.988   5.216  15.887  0.00  0.00    +0.000 A 
BRANCH  19  26
ATOM     25  N   UNL     1      48.227   3.161  18.933  0.00  0.00    +0.000 N 
ATOM     26  C   UNL     1      47.723   3.645  17.755  0.00  0.00    +0.000 C 
ATOM     27  O   UNL     1      46.641   3.265  17.332  0.00  0.00    +0.000 OA
ATOM     28  H   UNL     1      47.613   2.552  19.461  0.00  0.00    +0.000 HD
ATOM     29  H   UNL     1      48.971   3.621  19.439  0.00  0.00    +0.000 HD
ENDBRANCH  19  26
ENDBRANCH  18  22
ENDBRANCH  17  18
ENDBRANCH   1  17
TORSDOF 6
ENDMDL
MODEL 9
REMARK VINA RESULT:    -6.424      3.805      5.565
REMARK INTER + INTRA:          -9.900
REMARK INTER:                  -8.592
REMARK INTRA:                  -1.309
REMARK UNBOUND:                -1.223
REMARK  Name = 
REMARK  6 active torsions:
REMARK  status: ('A' for Active; 'I' for Inactive)
REMARK    1  A    between atoms: C_2  and  C_4
REMARK    2  A    between atoms: C_7  and  S_8
REMARK    3  A    between atoms: S_8  and  C_9
REMARK    4  A    between atoms: C_9  and  C_10
REMARK    5  A    between atoms: C_10  and  C_13
REMARK    6  A    between atoms: C_17  and  C_18
REMARK                            x       y       z     vdW  Elec       q    Type
REMARK                         _______ _______ _______ _____ _____    ______ ____
ROOT
ATOM      1  C   UNL     1      48.456   8.686  14.580  0.00  0.00    +0.000 C 
ATOM      2  F   UNL     1      49.028   9.925  14.495  0.00  0.00    +0.000 F 
ATOM      3  F   UNL     1      47.126   8.882  14.332  0.00  0.00    +0.000 F 
ENDROOT
BRANCH   1   4
ATOM      4  C   UNL     1      48.674   8.071  15.953  0.00  0.00    +0.000 A 
ATOM      5  C   UNL     1      48.303   8.759  17.114  0.00  0.00    +0.000 A 
ATOM      6  C   UNL     1      48.483   8.169  18.364  0.00  0.00    +0.000 A 
ATOM      7  C   UNL     1      49.023   6.885  18.463  0.00  0.00    +0.000 A 
ATOM      8  C   UNL     1      49.383   6.147  17.321  0.00  0.00    +0.000 A 
ATOM      9  C   UNL     1      49.221   6.779  16.072  0.00  0.00    +0.000 A 
BRANCH   8  10
ATOM     10  C   UNL     1      49.838   4.738  17.415  0.00  0.00    +0.000 A 
ATOM     11  C   UNL     1      48.965   3.675  17.102  0.00  0.00    +0.000 A 
ATOM     12  C   UNL     1      49.399   2.346  17.110  0.00  0.00    +0.000 A 
ATOM     13  C   UNL     1      50.718   2.061  17.424  0.00  0.00    +0.000 A 
ATOM     14  F   UNL     1      51.142   0.790  17.405  0.00  0.00    +0.000 F 
ATOM     15  C   UNL     1      51.604   3.076  17.751  0.00  0.00    +0.000 A 
ATOM     16  C   UNL     1      51.164   4.405  17.755  0.00  0.00    +0.000 A 
ENDBRANCH   8  10
ENDBRANCH   1   4
BRANCH   1  17
ATOM     17  C   UNL     1      49.043   7.795  13.478  0.00  0.00    +0.000 C 
BRANCH  17  18
ATOM     18  S   UNL     1      48.137   7.940  11.880  0.00  0.00    +0.000 S 
BRANCH  18  22
ATOM     19  C   UNL     1      45.315   4.409  12.225  0.00  0.00    +0.000 A 
ATOM     20  C   UNL     1      46.279   4.598  13.212  0.00  0.00    +0.000 A 
ATOM     21  C   UNL     1      47.161   5.679  13.106  0.00  0.00    +0.000 A 
ATOM     22  C   UNL     1      47.048   6.537  12.016  0.00  0.00    +0.000 A 
ATOM     23  N   UNL     1      46.130   6.357  11.041  0.00  0.00    +0.000 NA
ATOM     24  C   UNL     1      45.294   5.295  11.159  0.00  0.00    +0.000 A 
BRANCH  19  26
ATOM     25  N   UNL     1      44.298   2.467  11.171  0.00  0.00    +0.000 N 
ATOM     26  C   UNL     1      44.324   3.318  12.244  0.00  0.00    +0.000 C 
ATOM     27  O   UNL     1      43.575   3.150  13.196  0.00  0.00    +0.000 OA
ATOM     28  H   UNL     1      43.697   1.658  11.262  0.00  0.00    +0.000 HD
ATOM     29  H   UNL     1      45.051   2.413  10.499  0.00  0.00    +0.000 HD
ENDBRANCH  19  26
ENDBRANCH  18  22
ENDBRANCH  17  18
ENDBRANCH   1  17
TORSDOF 6
ENDMDL
