MODEL 1
REMARK VINA RESULT:    -9.168      0.000      0.000
REMARK INTER + INTRA:         -12.454
REMARK INTER:                 -11.312
REMARK INTRA:                  -1.143
REMARK UNBOUND:                -1.143
REMARK  Name = 
REMARK  4 active torsions:
REMARK  status: ('A' for Active; 'I' for Inactive)
REMARK    1  A    between atoms: C_2  and  C_4
REMARK    2  A    between atoms: N_8  and  C_9
REMARK    3  A    between atoms: C_9  and  C_10
REMARK    4  A    between atoms: C_14  and  C_15
REMARK                            x       y       z     vdW  Elec       q    Type
REMARK                         _______ _______ _______ _____ _____    ______ ____
ROOT
ATOM      1  C   UNL     1      43.895   4.875  11.434  0.00  0.00    +0.000 C 
ATOM      2  C   UNL     1      42.572   5.120  12.175  0.00  0.00    +0.000 C 
ATOM      3  C   UNL     1      42.973   6.022  11.059  0.00  0.00    +0.000 C 
ENDROOT
BRANCH   1   8
ATOM      4  C   UNL     1      46.550   2.756   7.478  0.00  0.00    +0.000 A 
ATOM      5  C   UNL     1      46.322   4.094   7.783  0.00  0.00    +0.000 A 
ATOM      6  C   UNL     1      45.500   4.419   8.863  0.00  0.00    +0.000 A 
ATOM      7  C   UNL     1      44.922   3.409   9.623  0.00  0.00    +0.000 A 
ATOM      8  N   UNL     1      43.983   3.650  10.632  0.00  0.00    +0.000 N 
ATOM      9  N   UNL     1      45.164   2.107   9.356  0.00  0.00    +0.000 NA
ATOM     10  C   UNL     1      45.956   1.806   8.291  0.00  0.00    +0.000 A 
ATOM     11  H   UNL     1      43.824   2.762  11.103  0.00  0.00    +0.000 HD
BRANCH   4  13
ATOM     12  N   UNL     1      47.109   3.008   5.124  0.00  0.00    +0.000 N 
ATOM     13  C   UNL     1      47.320   2.323   6.292  0.00  0.00    +0.000 C 
ATOM     14  O   UNL     1      48.116   1.396   6.348  0.00  0.00    +0.000 OA
ATOM     15  H   UNL     1      47.665   2.727   4.326  0.00  0.00    +0.000 HD
ATOM     16  H   UNL     1      46.653   3.907   5.087  0.00  0.00    +0.000 HD
ENDBRANCH   4  13
ENDBRANCH   1   8
BRANCH   1  17
ATOM     17  C   UNL     1      45.151   5.173  12.244  0.00  0.00    +0.000 A 
ATOM     18  C   UNL     1      45.684   4.268  13.165  0.00  0.00    +0.000 A 
ATOM     19  C   UNL     1      46.891   4.537  13.816  0.00  0.00    +0.000 A 
ATOM     20  C   UNL     1      47.598   5.704  13.523  0.00  0.00    +0.000 A 
ATOM     21  C   UNL     1      47.117   6.634  12.594  0.00  0.00    +0.000 A 
ATOM     22  C   UNL     1      45.862   6.371  12.028  0.00  0.00    +0.000 A 
BRANCH  21  23
ATOM     23  C   UNL     1      47.936   7.761  12.086  0.00  0.00    +0.000 A 
ATOM     24  C   UNL     1      47.424   9.074  12.103  0.00  0.00    +0.000 A 
ATOM     25  C   UNL     1      48.227  10.173  11.796  0.00  0.00    +0.000 A 
ATOM     26  C   UNL     1      49.559   9.976  11.470  0.00  0.00    +0.000 A 
ATOM     27  F   UNL     1      50.341  11.034  11.221  0.00  0.00    +0.000 F 
ATOM     28  C   UNL     1      50.096   8.698  11.416  0.00  0.00    +0.000 A 
ATOM     29  C   UNL     1      49.284   7.597  11.707  0.00  0.00    +0.000 A 
ENDBRANCH  21  23
ENDBRANCH   1  17
TORSDOF 4
ENDMDL
MODEL 2
REMARK VINA RESULT:    -8.940      2.575      3.991
REMARK INTER + INTRA:         -12.174
REMARK INTER:                 -11.526
REMARK INTRA:                  -0.647
REMARK UNBOUND:                -1.143
REMARK  Name = 
REMARK  4 active torsions:
REMARK  status: ('A' for Active; 'I' for Inactive)
REMARK    1  A    between atoms: C_2  and  C_4
REMARK    2  A    between atoms: N_8  and  C_9
REMARK    3  A    between atoms: C_9  and  C_10
REMARK    4  A    between atoms: C_14  and  C_15
REMARK                            x       y       z     vdW  Elec       q    Type
REMARK                         _______ _______ _______ _____ _____    ______ ____
ROOT
ATOM      1  C   UNL     1      44.035   4.810  11.526  0.00  0.00    +0.000 C 
ATOM      2  C   UNL     1      42.897   4.887  12.554  0.00  0.00    +0.000 C 
ATOM      3  C   UNL     1      42.864   5.759  11.347  0.00  0.00    +0.000 C 
ENDROOT
BRANCH   1   8
ATOM      4  C   UNL     1      46.557   2.706   7.475  0.00  0.00    +0.000 A 
ATOM      5  C   UNL     1      46.260   4.039   7.746  0.00  0.00    +0.000 A 
ATOM      6  C   UNL     1      45.492   4.354   8.868  0.00  0.00    +0.000 A 
ATOM      7  C   UNL     1      45.035   3.340   9.702  0.00  0.00    +0.000 A 
ATOM      8  N   UNL     1      44.152   3.562  10.765  0.00  0.00    +0.000 N 
ATOM      9  N   UNL     1      45.345   2.047   9.467  0.00  0.00    +0.000 NA
ATOM     10  C   UNL     1      46.083   1.754   8.361  0.00  0.00    +0.000 A 
ATOM     11  H   UNL     1      44.084   2.685  11.277  0.00  0.00    +0.000 HD
BRANCH   4  13
ATOM     12  N   UNL     1      47.133   3.058   5.139  0.00  0.00    +0.000 N 
ATOM     13  C   UNL     1      47.273   2.276   6.256  0.00  0.00    +0.000 C 
ATOM     14  O   UNL     1      47.966   1.269   6.241  0.00  0.00    +0.000 OA
ATOM     15  H   UNL     1      47.654   2.774   4.317  0.00  0.00    +0.000 HD
ATOM     16  H   UNL     1      46.776   4.001   5.166  0.00  0.00    +0.000 HD
ENDBRANCH   4  13
ENDBRANCH   1   8
BRANCH   1  17
ATOM     17  C   UNL     1      45.372   5.368  12.002  0.00  0.00    +0.000 A 
ATOM     18  C   UNL     1      45.986   6.466  11.395  0.00  0.00    +0.000 A 
ATOM     19  C   UNL     1      47.162   7.009  11.921  0.00  0.00    +0.000 A 
ATOM     20  C   UNL     1      47.717   6.477  13.086  0.00  0.00    +0.000 A 
ATOM     21  C   UNL     1      47.129   5.389  13.743  0.00  0.00    +0.000 A 
ATOM     22  C   UNL     1      46.002   4.819  13.136  0.00  0.00    +0.000 A 
BRANCH  21  23
ATOM     23  C   UNL     1      47.549   4.943  15.093  0.00  0.00    +0.000 A 
ATOM     24  C   UNL     1      47.261   3.634  15.529  0.00  0.00    +0.000 A 
ATOM     25  C   UNL     1      47.789   3.129  16.718  0.00  0.00    +0.000 A 
ATOM     26  C   UNL     1      48.620   3.927  17.489  0.00  0.00    +0.000 A 
ATOM     27  F   UNL     1      49.164   3.426  18.605  0.00  0.00    +0.000 F 
ATOM     28  C   UNL     1      48.907   5.229  17.109  0.00  0.00    +0.000 A 
ATOM     29  C   UNL     1      48.363   5.739  15.926  0.00  0.00    +0.000 A 
ENDBRANCH  21  23
ENDBRANCH   1  17
TORSDOF 4
ENDMDL
MODEL 3
REMARK VINA RESULT:    -7.252      3.999      7.037
REMARK INTER + INTRA:         -10.090
REMARK INTER:                  -9.116
REMARK INTRA:                  -0.974
REMARK UNBOUND:                -1.143
REMARK  Name = 
REMARK  4 active torsions:
REMARK  status: ('A' for Active; 'I' for Inactive)
REMARK    1  A    between atoms: C_2  and  C_4
REMARK    2  A    between atoms: N_8  and  C_9
REMARK    3  A    between atoms: C_9  and  C_10
REMARK    4  A    between atoms: C_14  and  C_15
REMARK                            x       y       z     vdW  Elec       q    Type
REMARK                         _______ _______ _______ _____ _____    ______ ____
ROOT
ATOM      1  C   UNL     1      46.219   5.243  13.463  0.00  0.00    +0.000 C 
ATOM      2  C   UNL     1      46.200   4.389  14.738  0.00  0.00    +0.000 C 
ATOM      3  C   UNL     1      47.364   4.309  13.813  0.00  0.00    +0.000 C 
ENDROOT
BRANCH   1   8
ATOM      4  C   UNL     1      48.667   9.452  11.592  0.00  0.00    +0.000 A 
ATOM      5  C   UNL     1      49.058   8.116  11.585  0.00  0.00    +0.000 A 
ATOM      6  C   UNL     1      48.262   7.166  12.229  0.00  0.00    +0.000 A 
ATOM      7  C   UNL     1      47.091   7.560  12.865  0.00  0.00    +0.000 A 
ATOM      8  N   UNL     1      46.314   6.696  13.644  0.00  0.00    +0.000 N 
ATOM      9  N   UNL     1      46.685   8.848  12.850  0.00  0.00    +0.000 NA
ATOM     10  C   UNL     1      47.479   9.765  12.230  0.00  0.00    +0.000 A 
ATOM     11  H   UNL     1      45.463   7.200  13.881  0.00  0.00    +0.000 HD
BRANCH   4  13
ATOM     12  N   UNL     1      50.859  10.391  11.119  0.00  0.00    +0.000 N 
ATOM     13  C   UNL     1      49.499  10.534  11.028  0.00  0.00    +0.000 C 
ATOM     14  O   UNL     1      49.000  11.516  10.495  0.00  0.00    +0.000 OA
ATOM     15  H   UNL     1      51.422  11.121  10.699  0.00  0.00    +0.000 HD
ATOM     16  H   UNL     1      51.308   9.513  11.328  0.00  0.00    +0.000 HD
ENDBRANCH   4  13
ENDBRANCH   1   8
BRANCH   1  17
ATOM     17  C   UNL     1      45.224   4.820  12.388  0.00  0.00    +0.000 A 
ATOM     18  C   UNL     1      43.888   5.228  12.398  0.00  0.00    +0.000 A 
ATOM     19  C   UNL     1      43.032   4.899  11.344  0.00  0.00    +0.000 A 
ATOM     20  C   UNL     1      43.516   4.186  10.247  0.00  0.00    +0.000 A 
ATOM     21  C   UNL     1      44.851   3.770  10.179  0.00  0.00    +0.000 A 
ATOM     22  C   UNL     1      45.655   4.043  11.295  0.00  0.00    +0.000 A 
BRANCH  21  23
ATOM     23  C   UNL     1      45.460   3.217   8.946  0.00  0.00    +0.000 A 
ATOM     24  C   UNL     1      45.995   4.082   7.970  0.00  0.00    +0.000 A 
ATOM     25  C   UNL     1      46.726   3.593   6.886  0.00  0.00    +0.000 A 
ATOM     26  C   UNL     1      46.937   2.229   6.764  0.00  0.00    +0.000 A 
ATOM     27  F   UNL     1      47.678   1.764   5.750  0.00  0.00    +0.000 F 
ATOM     28  C   UNL     1      46.406   1.342   7.688  0.00  0.00    +0.000 A 
ATOM     29  C   UNL     1      45.659   1.833   8.764  0.00  0.00    +0.000 A 
ENDBRANCH  21  23
ENDBRANCH   1  17
TORSDOF 4
ENDMDL
MODEL 4
REMARK VINA RESULT:    -7.038      4.923      8.178
REMARK INTER + INTRA:          -9.826
REMARK INTER:                 -10.342
REMARK INTRA:                   0.516
REMARK UNBOUND:                -1.143
REMARK  Name = 
REMARK  4 active torsions:
REMARK  status: ('A' for Active; 'I' for Inactive)
REMARK    1  A    between atoms: C_2  and  C_4
REMARK    2  A    between atoms: N_8  and  C_9
REMARK    3  A    between atoms: C_9  and  C_10
REMARK    4  A    between atoms: C_14  and  C_15
REMARK                            x       y       z     vdW  Elec       q    Type
REMARK                         _______ _______ _______ _____ _____    ______ ____
ROOT
ATOM      1  C   UNL     1      46.362   5.248  13.393  0.00  0.00    +0.000 C 
ATOM      2  C   UNL     1      47.642   5.930  12.889  0.00  0.00    +0.000 C 
ATOM      3  C   UNL     1      46.655   6.708  13.689  0.00  0.00    +0.000 C 
ENDROOT
BRANCH   1   8
ATOM      4  C   UNL     1      48.381   4.406  18.128  0.00  0.00    +0.000 A 
ATOM      5  C   UNL     1      48.730   5.348  17.164  0.00  0.00    +0.000 A 
ATOM      6  C   UNL     1      48.091   5.326  15.923  0.00  0.00    +0.000 A 
ATOM      7  C   UNL     1      47.116   4.371  15.662  0.00  0.00    +0.000 A 
ATOM      8  N   UNL     1      46.529   4.198  14.404  0.00  0.00    +0.000 N 
ATOM      9  N   UNL     1      46.746   3.474  16.601  0.00  0.00    +0.000 NA
ATOM     10  C   UNL     1      47.388   3.499  17.802  0.00  0.00    +0.000 A 
ATOM     11  H   UNL     1      45.771   3.530  14.523  0.00  0.00    +0.000 HD
BRANCH   4  13
ATOM     12  N   UNL     1      50.445   4.199  19.398  0.00  0.00    +0.000 N 
ATOM     13  C   UNL     1      49.077   4.292  19.426  0.00  0.00    +0.000 C 
ATOM     14  O   UNL     1      48.464   4.285  20.484  0.00  0.00    +0.000 OA
ATOM     15  H   UNL     1      50.916   4.155  20.293  0.00  0.00    +0.000 HD
ATOM     16  H   UNL     1      50.997   4.435  18.587  0.00  0.00    +0.000 HD
ENDBRANCH   4  13
ENDBRANCH   1   8
BRANCH   1  17
ATOM     17  C   UNL     1      45.346   4.904  12.311  0.00  0.00    +0.000 A 
ATOM     18  C   UNL     1      44.055   5.439  12.294  0.00  0.00    +0.000 A 
ATOM     19  C   UNL     1      43.186   5.176  11.232  0.00  0.00    +0.000 A 
ATOM     20  C   UNL     1      43.614   4.401  10.153  0.00  0.00    +0.000 A 
ATOM     21  C   UNL     1      44.904   3.857  10.113  0.00  0.00    +0.000 A 
ATOM     22  C   UNL     1      45.715   4.071  11.236  0.00  0.00    +0.000 A 
BRANCH  21  23
ATOM     23  C   UNL     1      45.474   3.228   8.897  0.00  0.00    +0.000 A 
ATOM     24  C   UNL     1      45.924   4.029   7.828  0.00  0.00    +0.000 A 
ATOM     25  C   UNL     1      46.620   3.480   6.750  0.00  0.00    +0.000 A 
ATOM     26  C   UNL     1      46.882   2.119   6.727  0.00  0.00    +0.000 A 
ATOM     27  F   UNL     1      47.590   1.601   5.716  0.00  0.00    +0.000 F 
ATOM     28  C   UNL     1      46.433   1.292   7.747  0.00  0.00    +0.000 A 
ATOM     29  C   UNL     1      45.721   1.842   8.817  0.00  0.00    +0.000 A 
ENDBRANCH  21  23
ENDBRANCH   1  17
TORSDOF 4
ENDMDL
MODEL 5
REMARK VINA RESULT:    -6.956      5.148      8.497
REMARK INTER + INTRA:          -9.726
REMARK INTER:                  -8.710
REMARK INTRA:                  -1.016
REMARK UNBOUND:                -1.143
REMARK  Name = 
REMARK  4 active torsions:
REMARK  status: ('A' for Active; 'I' for Inactive)
REMARK    1  A    between atoms: C_2  and  C_4
REMARK    2  A    between atoms: N_8  and  C_9
REMARK    3  A    between atoms: C_9  and  C_10
REMARK    4  A    between atoms: C_14  and  C_15
REMARK                            x       y       z     vdW  Elec       q    Type
REMARK                         _______ _______ _______ _____ _____    ______ ____
ROOT
ATOM      1  C   UNL     1      48.928   7.846  12.554  0.00  0.00    +0.000 C 
ATOM      2  C   UNL     1      49.847   7.972  11.330  0.00  0.00    +0.000 C 
ATOM      3  C   UNL     1      49.679   9.130  12.251  0.00  0.00    +0.000 C 
ENDROOT
BRANCH   1   8
ATOM      4  C   UNL     1      48.659   7.106  17.709  0.00  0.00    +0.000 A 
ATOM      5  C   UNL     1      48.571   8.283  16.972  0.00  0.00    +0.000 A 
ATOM      6  C   UNL     1      48.758   8.239  15.588  0.00  0.00    +0.000 A 
ATOM      7  C   UNL     1      49.025   7.027  14.963  0.00  0.00    +0.000 A 
ATOM      8  N   UNL     1      49.356   6.921  13.608  0.00  0.00    +0.000 N 
ATOM      9  N   UNL     1      49.078   5.874  15.664  0.00  0.00    +0.000 NA
ATOM     10  C   UNL     1      48.909   5.935  17.014  0.00  0.00    +0.000 A 
ATOM     11  H   UNL     1      49.375   5.927  13.388  0.00  0.00    +0.000 HD
BRANCH   4  13
ATOM     12  N   UNL     1      47.602   6.292  19.743  0.00  0.00    +0.000 N 
ATOM     13  C   UNL     1      48.579   7.076  19.184  0.00  0.00    +0.000 C 
ATOM     14  O   UNL     1      49.352   7.718  19.882  0.00  0.00    +0.000 OA
ATOM     15  H   UNL     1      47.576   6.252  20.755  0.00  0.00    +0.000 HD
ATOM     16  H   UNL     1      47.108   5.578  19.231  0.00  0.00    +0.000 HD
ENDBRANCH   4  13
ENDBRANCH   1   8
BRANCH   1  17
ATOM     17  C   UNL     1      47.439   7.771  12.235  0.00  0.00    +0.000 A 
ATOM     18  C   UNL     1      46.605   8.891  12.270  0.00  0.00    +0.000 A 
ATOM     19  C   UNL     1      45.267   8.799  11.878  0.00  0.00    +0.000 A 
ATOM     20  C   UNL     1      44.757   7.587  11.410  0.00  0.00    +0.000 A 
ATOM     21  C   UNL     1      45.556   6.439  11.337  0.00  0.00    +0.000 A 
ATOM     22  C   UNL     1      46.867   6.550  11.822  0.00  0.00    +0.000 A 
BRANCH  21  23
ATOM     23  C   UNL     1      45.128   5.203  10.639  0.00  0.00    +0.000 A 
ATOM     24  C   UNL     1      45.523   4.968   9.306  0.00  0.00    +0.000 A 
ATOM     25  C   UNL     1      45.284   3.743   8.682  0.00  0.00    +0.000 A 
ATOM     26  C   UNL     1      44.649   2.730   9.384  0.00  0.00    +0.000 A 
ATOM     27  F   UNL     1      44.463   1.540   8.800  0.00  0.00    +0.000 F 
ATOM     28  C   UNL     1      44.223   2.930  10.688  0.00  0.00    +0.000 A 
ATOM     29  C   UNL     1      44.448   4.164  11.307  0.00  0.00    +0.000 A 
ENDBRANCH  21  23
ENDBRANCH   1  17
TORSDOF 4
ENDMDL
MODEL 6
REMARK VINA RESULT:    -6.934      4.532      7.686
REMARK INTER + INTRA:          -9.698
REMARK INTER:                  -9.845
REMARK INTRA:                   0.146
REMARK UNBOUND:                -1.143
REMARK  Name = 
REMARK  4 active torsions:
REMARK  status: ('A' for Active; 'I' for Inactive)
REMARK    1  A    between atoms: C_2  and  C_4
REMARK    2  A    between atoms: N_8  and  C_9
REMARK    3  A    between atoms: C_9  and  C_10
REMARK    4  A    between atoms: C_14  and  C_15
REMARK                            x       y       z     vdW  Elec       q    Type
REMARK                         _______ _______ _______ _____ _____    ______ ____
ROOT
ATOM      1  C   UNL     1      48.678   7.968  12.644  0.00  0.00    +0.000 C 
ATOM      2  C   UNL     1      49.701   7.329  11.693  0.00  0.00    +0.000 C 
ATOM      3  C   UNL     1      49.599   8.813  11.782  0.00  0.00    +0.000 C 
ENDROOT
BRANCH   1   8
ATOM      4  C   UNL     1      47.878   4.557  16.508  0.00  0.00    +0.000 A 
ATOM      5  C   UNL     1      47.181   4.735  15.316  0.00  0.00    +0.000 A 
ATOM      6  C   UNL     1      47.536   5.783  14.465  0.00  0.00    +0.000 A 
ATOM      7  C   UNL     1      48.580   6.633  14.811  0.00  0.00    +0.000 A 
ATOM      8  N   UNL     1      48.907   7.781  14.080  0.00  0.00    +0.000 N 
ATOM      9  N   UNL     1      49.285   6.449  15.947  0.00  0.00    +0.000 NA
ATOM     10  C   UNL     1      48.917   5.432  16.775  0.00  0.00    +0.000 A 
ATOM     11  H   UNL     1      49.774   8.141  14.473  0.00  0.00    +0.000 HD
BRANCH   4  13
ATOM     12  N   UNL     1      48.339   3.385  18.588  0.00  0.00    +0.000 N 
ATOM     13  C   UNL     1      47.502   3.542  17.513  0.00  0.00    +0.000 C 
ATOM     14  O   UNL     1      46.486   2.872  17.399  0.00  0.00    +0.000 OA
ATOM     15  H   UNL     1      48.056   2.711  19.289  0.00  0.00    +0.000 HD
ATOM     16  H   UNL     1      49.043   4.061  18.842  0.00  0.00    +0.000 HD
ENDBRANCH   4  13
ENDBRANCH   1   8
BRANCH   1  17
ATOM     17  C   UNL     1      47.221   7.805  12.226  0.00  0.00    +0.000 A 
ATOM     18  C   UNL     1      46.310   8.863  12.249  0.00  0.00    +0.000 A 
ATOM     19  C   UNL     1      45.008   8.697  11.767  0.00  0.00    +0.000 A 
ATOM     20  C   UNL     1      44.616   7.474  11.220  0.00  0.00    +0.000 A 
ATOM     21  C   UNL     1      45.498   6.388  11.155  0.00  0.00    +0.000 A 
ATOM     22  C   UNL     1      46.765   6.567  11.729  0.00  0.00    +0.000 A 
BRANCH  21  23
ATOM     23  C   UNL     1      45.203   5.157  10.384  0.00  0.00    +0.000 A 
ATOM     24  C   UNL     1      45.714   4.997   9.080  0.00  0.00    +0.000 A 
ATOM     25  C   UNL     1      45.601   3.786   8.397  0.00  0.00    +0.000 A 
ATOM     26  C   UNL     1      44.978   2.710   9.011  0.00  0.00    +0.000 A 
ATOM     27  F   UNL     1      44.912   1.535   8.374  0.00  0.00    +0.000 F 
ATOM     28  C   UNL     1      44.439   2.834  10.283  0.00  0.00    +0.000 A 
ATOM     29  C   UNL     1      44.538   4.054  10.959  0.00  0.00    +0.000 A 
ENDBRANCH  21  23
ENDBRANCH   1  17
TORSDOF 4
ENDMDL
MODEL 7
REMARK VINA RESULT:    -6.743      6.101      8.513
REMARK INTER + INTRA:          -9.462
REMARK INTER:                  -8.723
REMARK INTRA:                  -0.740
REMARK UNBOUND:                -1.143
REMARK  Name = 
REMARK  4 active torsions:
REMARK  status: ('A' for Active; 'I' for Inactive)
REMARK    1  A    between atoms: C_2  and  C_4
REMARK    2  A    between atoms: N_8  and  C_9
REMARK    3  A    between atoms: C_9  and  C_10
REMARK    4  A    between atoms: C_14  and  C_15
REMARK                            x       y       z     vdW  Elec       q    Type
REMARK                         _______ _______ _______ _____ _____    ______ ____
ROOT
ATOM      1  C   UNL     1      48.352   4.819  17.269  0.00  0.00    +0.000 C 
ATOM      2  C   UNL     1      47.153   5.078  18.193  0.00  0.00    +0.000 C 
ATOM      3  C   UNL     1      47.257   3.784  17.462  0.00  0.00    +0.000 C 
ENDROOT
BRANCH   1   8
ATOM      4  C   UNL     1      52.465   1.629  17.597  0.00  0.00    +0.000 A 
ATOM      5  C   UNL     1      51.138   1.344  17.290  0.00  0.00    +0.000 A 
ATOM      6  C   UNL     1      50.187   2.365  17.345  0.00  0.00    +0.000 A 
ATOM      7  C   UNL     1      50.574   3.652  17.702  0.00  0.00    +0.000 A 
ATOM      8  N   UNL     1      49.664   4.694  17.911  0.00  0.00    +0.000 N 
ATOM      9  N   UNL     1      51.864   3.947  17.970  0.00  0.00    +0.000 NA
ATOM     10  C   UNL     1      52.776   2.937  17.926  0.00  0.00    +0.000 A 
ATOM     11  H   UNL     1      50.214   5.542  18.035  0.00  0.00    +0.000 HD
BRANCH   4  13
ATOM     12  N   UNL     1      53.219  -0.552  18.365  0.00  0.00    +0.000 N 
ATOM     13  C   UNL     1      53.513   0.590  17.665  0.00  0.00    +0.000 C 
ATOM     14  O   UNL     1      54.597   0.735  17.117  0.00  0.00    +0.000 OA
ATOM     15  H   UNL     1      53.931  -1.273  18.378  0.00  0.00    +0.000 HD
ATOM     16  H   UNL     1      52.281  -0.813  18.625  0.00  0.00    +0.000 HD
ENDBRANCH   4  13
ENDBRANCH   1   8
BRANCH   1  17
ATOM     17  C   UNL     1      48.369   5.645  15.988  0.00  0.00    +0.000 A 
ATOM     18  C   UNL     1      49.349   6.605  15.726  0.00  0.00    +0.000 A 
ATOM     19  C   UNL     1      49.386   7.273  14.499  0.00  0.00    +0.000 A 
ATOM     20  C   UNL     1      48.460   6.957  13.503  0.00  0.00    +0.000 A 
ATOM     21  C   UNL     1      47.471   5.988  13.708  0.00  0.00    +0.000 A 
ATOM     22  C   UNL     1      47.412   5.405  14.981  0.00  0.00    +0.000 A 
BRANCH  21  23
ATOM     23  C   UNL     1      46.621   5.462  12.613  0.00  0.00    +0.000 A 
ATOM     24  C   UNL     1      45.874   4.281  12.800  0.00  0.00    +0.000 A 
ATOM     25  C   UNL     1      44.936   3.856  11.858  0.00  0.00    +0.000 A 
ATOM     26  C   UNL     1      44.727   4.609  10.713  0.00  0.00    +0.000 A 
ATOM     27  F   UNL     1      43.794   4.226   9.833  0.00  0.00    +0.000 F 
ATOM     28  C   UNL     1      45.460   5.763  10.479  0.00  0.00    +0.000 A 
ATOM     29  C   UNL     1      46.412   6.178  11.417  0.00  0.00    +0.000 A 
ENDBRANCH  21  23
ENDBRANCH   1  17
TORSDOF 4
ENDMDL
MODEL 8
REMARK VINA RESULT:    -6.720      3.970      6.928
REMARK INTER + INTRA:          -9.434
REMARK INTER:                  -9.672
REMARK INTRA:                   0.238
REMARK UNBOUND:                -1.143
REMARK  Name = 
REMARK  4 active torsions:
REMARK  status: ('A' for Active; 'I' for Inactive)
REMARK    1  A    between atoms: C_2  and  C_4
REMARK    2  A    between atoms: N_8  and  C_9
REMARK    3  A    between atoms: C_9  and  C_10
REMARK    4  A    between atoms: C_14  and  C_15
REMARK                            x       y       z     vdW  Elec       q    Type
REMARK                         _______ _______ _______ _____ _____    ______ ____
ROOT
ATOM      1  C   UNL     1      45.146   5.526  12.452  0.00  0.00    +0.000 C 
ATOM      2  C   UNL     1      44.822   6.811  11.676  0.00  0.00    +0.000 C 
ATOM      3  C   UNL     1      44.048   6.473  12.904  0.00  0.00    +0.000 C 
ENDROOT
BRANCH   1   8
ATOM      4  C   UNL     1      49.795   7.888  12.556  0.00  0.00    +0.000 A 
ATOM      5  C   UNL     1      48.856   7.811  11.531  0.00  0.00    +0.000 A 
ATOM      6  C   UNL     1      47.705   7.041  11.713  0.00  0.00    +0.000 A 
ATOM      7  C   UNL     1      47.507   6.366  12.911  0.00  0.00    +0.000 A 
ATOM      8  N   UNL     1      46.451   5.471  13.119  0.00  0.00    +0.000 N 
ATOM      9  N   UNL     1      48.394   6.460  13.924  0.00  0.00    +0.000 NA
ATOM     10  C   UNL     1      49.518   7.202  13.726  0.00  0.00    +0.000 A 
ATOM     11  H   UNL     1      46.469   5.221  14.106  0.00  0.00    +0.000 HD
BRANCH   4  13
ATOM     12  N   UNL     1      52.188   8.002  12.973  0.00  0.00    +0.000 N 
ATOM     13  C   UNL     1      51.086   8.591  12.410  0.00  0.00    +0.000 C 
ATOM     14  O   UNL     1      51.174   9.653  11.808  0.00  0.00    +0.000 OA
ATOM     15  H   UNL     1      53.074   8.474  12.839  0.00  0.00    +0.000 HD
ATOM     16  H   UNL     1      52.209   7.037  13.265  0.00  0.00    +0.000 HD
ENDBRANCH   4  13
ENDBRANCH   1   8
BRANCH   1  17
ATOM     17  C   UNL     1      44.760   4.232  11.746  0.00  0.00    +0.000 A 
ATOM     18  C   UNL     1      43.651   3.471  12.123  0.00  0.00    +0.000 A 
ATOM     19  C   UNL     1      43.274   2.343  11.390  0.00  0.00    +0.000 A 
ATOM     20  C   UNL     1      43.986   1.985  10.244  0.00  0.00    +0.000 A 
ATOM     21  C   UNL     1      45.093   2.725   9.812  0.00  0.00    +0.000 A 
ATOM     22  C   UNL     1      45.492   3.796  10.623  0.00  0.00    +0.000 A 
BRANCH  21  23
ATOM     23  C   UNL     1      45.732   2.520   8.490  0.00  0.00    +0.000 A 
ATOM     24  C   UNL     1      45.913   3.609   7.613  0.00  0.00    +0.000 A 
ATOM     25  C   UNL     1      46.661   3.484   6.441  0.00  0.00    +0.000 A 
ATOM     26  C   UNL     1      47.246   2.266   6.131  0.00  0.00    +0.000 A 
ATOM     27  F   UNL     1      48.004   2.159   5.032  0.00  0.00    +0.000 F 
ATOM     28  C   UNL     1      47.071   1.164   6.954  0.00  0.00    +0.000 A 
ATOM     29  C   UNL     1      46.306   1.286   8.118  0.00  0.00    +0.000 A 
ENDBRANCH  21  23
ENDBRANCH   1  17
TORSDOF 4
ENDMDL
MODEL 9
REMARK VINA RESULT:    -6.190      3.294      5.020
REMARK INTER + INTRA:          -8.780
REMARK INTER:                  -7.853
REMARK INTRA:                  -0.926
REMARK UNBOUND:                -1.143
REMARK  Name = 
REMARK  4 active torsions:
REMARK  status: ('A' for Active; 'I' for Inactive)
REMARK    1  A    between atoms: C_2  and  C_4
REMARK    2  A    between atoms: N_8  and  C_9
REMARK    3  A    between atoms: C_9  and  C_10
REMARK    4  A    between atoms: C_14  and  C_15
REMARK                            x       y       z     vdW  Elec       q    Type
REMARK                         _______ _______ _______ _____ _____    ______ ____
ROOT
ATOM      1  C   UNL     1      45.543   8.005  12.266  0.00  0.00    +0.000 C 
ATOM      2  C   UNL     1      44.929   9.334  12.731  0.00  0.00    +0.000 C 
ATOM      3  C   UNL     1      45.396   9.187  11.324  0.00  0.00    +0.000 C 
ENDROOT
BRANCH   1   8
ATOM      4  C   UNL     1      44.920   3.413   9.875  0.00  0.00    +0.000 A 
ATOM      5  C   UNL     1      45.593   4.555   9.451  0.00  0.00    +0.000 A 
ATOM      6  C   UNL     1      45.551   5.707  10.239  0.00  0.00    +0.000 A 
ATOM      7  C   UNL     1      44.845   5.701  11.436  0.00  0.00    +0.000 A 
ATOM      8  N   UNL     1      44.644   6.848  12.212  0.00  0.00    +0.000 N 
ATOM      9  N   UNL     1      44.217   4.589  11.874  0.00  0.00    +0.000 NA
ATOM     10  C   UNL     1      44.254   3.478  11.086  0.00  0.00    +0.000 A 
ATOM     11  H   UNL     1      44.212   6.541  13.082  0.00  0.00    +0.000 HD
BRANCH   4  13
ATOM     12  N   UNL     1      45.855   1.932   8.187  0.00  0.00    +0.000 N 
ATOM     13  C   UNL     1      44.825   2.188   9.054  0.00  0.00    +0.000 C 
ATOM     14  O   UNL     1      43.871   1.427   9.145  0.00  0.00    +0.000 OA
ATOM     15  H   UNL     1      45.798   1.073   7.654  0.00  0.00    +0.000 HD
ATOM     16  H   UNL     1      46.752   2.390   8.247  0.00  0.00    +0.000 HD
ENDBRANCH   4  13
ENDBRANCH   1   8
BRANCH   1  17
ATOM     17  C   UNL     1      46.917   7.692  12.848  0.00  0.00    +0.000 A 
ATOM     18  C   UNL     1      48.060   8.419  12.509  0.00  0.00    +0.000 A 
ATOM     19  C   UNL     1      49.282   8.163  13.136  0.00  0.00    +0.000 A 
ATOM     20  C   UNL     1      49.364   7.197  14.140  0.00  0.00    +0.000 A 
ATOM     21  C   UNL     1      48.243   6.455  14.530  0.00  0.00    +0.000 A 
ATOM     22  C   UNL     1      47.057   6.678  13.817  0.00  0.00    +0.000 A 
BRANCH  21  23
ATOM     23  C   UNL     1      48.230   5.591  15.735  0.00  0.00    +0.000 A 
ATOM     24  C   UNL     1      47.368   4.478  15.801  0.00  0.00    +0.000 A 
ATOM     25  C   UNL     1      47.453   3.551  16.841  0.00  0.00    +0.000 A 
ATOM     26  C   UNL     1      48.409   3.721  17.831  0.00  0.00    +0.000 A 
ATOM     27  F   UNL     1      48.522   2.806  18.802  0.00  0.00    +0.000 F 
ATOM     28  C   UNL     1      49.259   4.816  17.816  0.00  0.00    +0.000 A 
ATOM     29  C   UNL     1      49.160   5.753  16.783  0.00  0.00    +0.000 A 
ENDBRANCH  21  23
ENDBRANCH   1  17
TORSDOF 4
ENDMDL
