MODEL 1
REMARK VINA RESULT:    -7.895      0.000      0.000
REMARK INTER + INTRA:         -10.046
REMARK INTER:                  -9.741
REMARK INTRA:                  -0.304
REMARK UNBOUND:                -0.304
REMARK  Name = 
REMARK  5 active torsions:
REMARK  status: ('A' for Active; 'I' for Inactive)
REMARK    1  A    between atoms: C_1  and  N_2
REMARK    2  A    between atoms: N_2  and  C_3
REMARK    3  A    between atoms: C_3  and  C_4
REMARK    4  A    between atoms: C_12  and  N_13
REMARK    5  A    between atoms: C_17  and  C_18
REMARK                            x       y       z     vdW  Elec       q    Type
REMARK                         _______ _______ _______ _____ _____    ______ ____
ROOT
ATOM      1  C   UNL     1      44.766   4.972  13.244  0.00  0.00    +0.000 C 
ATOM      2  C   UNL     1      43.256   5.320  13.269  0.00  0.00    +0.000 C 
ATOM      3  C   UNL     1      42.733   5.079  11.849  0.00  0.00    +0.000 C 
ATOM      4  C   UNL     1      43.751   4.161  11.156  0.00  0.00    +0.000 C 
ATOM      5  C   UNL     1      44.771   3.791  12.246  0.00  0.00    +0.000 C 
ENDROOT
BRANCH   4   6
ATOM      6  N   UNL     1      44.397   4.860  10.044  0.00  0.00    +0.000 N 
ATOM      7  C   UNL     1      45.162   4.067   9.179  0.00  0.00    +0.000 A 
ATOM      8  C   UNL     1      45.784   4.683   8.096  0.00  0.00    +0.000 A 
ATOM      9  C   UNL     1      46.535   3.915   7.202  0.00  0.00    +0.000 A 
ATOM     10  C   UNL     1      46.648   2.539   7.400  0.00  0.00    +0.000 A 
ATOM     11  C   UNL     1      45.988   2.009   8.494  0.00  0.00    +0.000 A 
ATOM     12  N   UNL     1      45.249   2.736   9.370  0.00  0.00    +0.000 NA
ATOM     13  H   UNL     1      44.938   5.670  10.330  0.00  0.00    +0.000 HD
BRANCH  10  14
ATOM     14  C   UNL     1      47.447   1.728   6.449  0.00  0.00    +0.000 C 
ATOM     15  N   UNL     1      48.461   2.322   5.753  0.00  0.00    +0.000 N 
ATOM     16  O   UNL     1      47.207   0.535   6.284  0.00  0.00    +0.000 OA
ATOM     17  H   UNL     1      48.744   3.287   5.819  0.00  0.00    +0.000 HD
ATOM     18  H   UNL     1      48.982   1.725   5.124  0.00  0.00    +0.000 HD
ENDBRANCH  10  14
ENDBRANCH   4   6
BRANCH   1  19
ATOM     19  C   UNL     1      45.675   6.116  12.707  0.00  0.00    +0.000 A 
ATOM     20  C   UNL     1      45.258   7.462  12.812  0.00  0.00    +0.000 A 
ATOM     21  C   UNL     1      46.034   8.514  12.308  0.00  0.00    +0.000 A 
ATOM     22  C   UNL     1      47.256   8.251  11.703  0.00  0.00    +0.000 A 
ATOM     23  C   UNL     1      47.703   6.939  11.604  0.00  0.00    +0.000 A 
ATOM     24  C   UNL     1      46.921   5.887  12.096  0.00  0.00    +0.000 A 
ENDBRANCH   1  19
BRANCH   1  26
ATOM     25  C   UNL     1      46.669   4.340  14.772  0.00  0.00    +0.000 C 
ATOM     26  N   UNL     1      45.253   4.627  14.601  0.00  0.00    +0.000 NA
ATOM     27  H   UNL     1      45.006   5.376  15.245  0.00  0.00    +0.000 HD
ENDBRANCH   1  26
TORSDOF 4
ENDMDL
MODEL 2
REMARK VINA RESULT:    -6.488      3.802      6.112
REMARK INTER + INTRA:          -8.310
REMARK INTER:                  -7.468
REMARK INTRA:                  -0.841
REMARK UNBOUND:                -0.304
REMARK  Name = 
REMARK  5 active torsions:
REMARK  status: ('A' for Active; 'I' for Inactive)
REMARK    1  A    between atoms: C_1  and  N_2
REMARK    2  A    between atoms: N_2  and  C_3
REMARK    3  A    between atoms: C_3  and  C_4
REMARK    4  A    between atoms: C_12  and  N_13
REMARK    5  A    between atoms: C_17  and  C_18
REMARK                            x       y       z     vdW  Elec       q    Type
REMARK                         _______ _______ _______ _____ _____    ______ ____
ROOT
ATOM      1  C   UNL     1      49.097   4.309  18.023  0.00  0.00    +0.000 C 
ATOM      2  C   UNL     1      47.966   3.364  18.503  0.00  0.00    +0.000 C 
ATOM      3  C   UNL     1      47.017   3.186  17.313  0.00  0.00    +0.000 C 
ATOM      4  C   UNL     1      47.807   3.586  16.058  0.00  0.00    +0.000 C 
ATOM      5  C   UNL     1      49.238   3.860  16.550  0.00  0.00    +0.000 C 
ENDROOT
BRANCH   4   6
ATOM      6  N   UNL     1      47.223   4.779  15.443  0.00  0.00    +0.000 N 
ATOM      7  C   UNL     1      46.542   4.580  14.236  0.00  0.00    +0.000 A 
ATOM      8  C   UNL     1      45.955   5.682  13.620  0.00  0.00    +0.000 A 
ATOM      9  C   UNL     1      45.249   5.511  12.426  0.00  0.00    +0.000 A 
ATOM     10  C   UNL     1      45.134   4.239  11.868  0.00  0.00    +0.000 A 
ATOM     11  C   UNL     1      45.738   3.199  12.553  0.00  0.00    +0.000 A 
ATOM     12  N   UNL     1      46.422   3.342  13.716  0.00  0.00    +0.000 NA
ATOM     13  H   UNL     1      47.878   5.548  15.341  0.00  0.00    +0.000 HD
BRANCH  10  14
ATOM     14  C   UNL     1      44.384   4.062  10.600  0.00  0.00    +0.000 C 
ATOM     15  N   UNL     1      44.605   4.929   9.568  0.00  0.00    +0.000 N 
ATOM     16  O   UNL     1      43.573   3.149  10.471  0.00  0.00    +0.000 OA
ATOM     17  H   UNL     1      45.250   5.703   9.568  0.00  0.00    +0.000 HD
ATOM     18  H   UNL     1      44.076   4.763   8.722  0.00  0.00    +0.000 HD
ENDBRANCH  10  14
ENDBRANCH   4   6
BRANCH   1  19
ATOM     19  C   UNL     1      48.732   5.820  18.078  0.00  0.00    +0.000 A 
ATOM     20  C   UNL     1      49.413   6.746  17.254  0.00  0.00    +0.000 A 
ATOM     21  C   UNL     1      49.135   8.117  17.302  0.00  0.00    +0.000 A 
ATOM     22  C   UNL     1      48.156   8.601  18.161  0.00  0.00    +0.000 A 
ATOM     23  C   UNL     1      47.454   7.713  18.967  0.00  0.00    +0.000 A 
ATOM     24  C   UNL     1      47.741   6.343  18.927  0.00  0.00    +0.000 A 
ENDBRANCH   1  19
BRANCH   1  26
ATOM     25  C   UNL     1      51.554   3.762  18.155  0.00  0.00    +0.000 C 
ATOM     26  N   UNL     1      50.322   4.124  18.838  0.00  0.00    +0.000 NA
ATOM     27  H   UNL     1      50.499   4.973  19.372  0.00  0.00    +0.000 HD
ENDBRANCH   1  26
TORSDOF 4
ENDMDL
MODEL 3
REMARK VINA RESULT:    -6.198      3.806      6.256
REMARK INTER + INTRA:          -7.952
REMARK INTER:                  -7.118
REMARK INTRA:                  -0.834
REMARK UNBOUND:                -0.304
REMARK  Name = 
REMARK  5 active torsions:
REMARK  status: ('A' for Active; 'I' for Inactive)
REMARK    1  A    between atoms: C_1  and  N_2
REMARK    2  A    between atoms: N_2  and  C_3
REMARK    3  A    between atoms: C_3  and  C_4
REMARK    4  A    between atoms: C_12  and  N_13
REMARK    5  A    between atoms: C_17  and  C_18
REMARK                            x       y       z     vdW  Elec       q    Type
REMARK                         _______ _______ _______ _____ _____    ______ ____
ROOT
ATOM      1  C   UNL     1      49.550   8.273  15.786  0.00  0.00    +0.000 C 
ATOM      2  C   UNL     1      50.461   8.098  14.545  0.00  0.00    +0.000 C 
ATOM      3  C   UNL     1      49.616   7.381  13.487  0.00  0.00    +0.000 C 
ATOM      4  C   UNL     1      48.147   7.578  13.890  0.00  0.00    +0.000 C 
ATOM      5  C   UNL     1      48.183   8.519  15.105  0.00  0.00    +0.000 C 
ENDROOT
BRANCH   4   6
ATOM      6  N   UNL     1      47.534   6.294  14.235  0.00  0.00    +0.000 N 
ATOM      7  C   UNL     1      46.661   5.752  13.284  0.00  0.00    +0.000 A 
ATOM      8  C   UNL     1      46.064   4.524  13.558  0.00  0.00    +0.000 A 
ATOM      9  C   UNL     1      45.206   3.947  12.618  0.00  0.00    +0.000 A 
ATOM     10  C   UNL     1      44.961   4.603  11.413  0.00  0.00    +0.000 A 
ATOM     11  C   UNL     1      45.605   5.813  11.217  0.00  0.00    +0.000 A 
ATOM     12  N   UNL     1      46.446   6.387  12.114  0.00  0.00    +0.000 NA
ATOM     13  H   UNL     1      47.090   6.286  15.148  0.00  0.00    +0.000 HD
BRANCH  10  14
ATOM     14  C   UNL     1      44.049   3.987  10.418  0.00  0.00    +0.000 C 
ATOM     15  N   UNL     1      44.005   4.494   9.150  0.00  0.00    +0.000 N 
ATOM     16  O   UNL     1      43.340   3.032  10.722  0.00  0.00    +0.000 OA
ATOM     17  H   UNL     1      44.547   5.266   8.797  0.00  0.00    +0.000 HD
ATOM     18  H   UNL     1      43.374   4.035   8.507  0.00  0.00    +0.000 HD
ENDBRANCH  10  14
ENDBRANCH   4   6
BRANCH   1  19
ATOM     19  C   UNL     1      49.463   7.014  16.697  0.00  0.00    +0.000 A 
ATOM     20  C   UNL     1      50.498   6.052  16.679  0.00  0.00    +0.000 A 
ATOM     21  C   UNL     1      50.437   4.891  17.458  0.00  0.00    +0.000 A 
ATOM     22  C   UNL     1      49.348   4.667  18.292  0.00  0.00    +0.000 A 
ATOM     23  C   UNL     1      48.325   5.605  18.348  0.00  0.00    +0.000 A 
ATOM     24  C   UNL     1      48.381   6.760  17.558  0.00  0.00    +0.000 A 
ENDBRANCH   1  19
BRANCH   1  26
ATOM     25  C   UNL     1      49.088  10.471  16.931  0.00  0.00    +0.000 C 
ATOM     26  N   UNL     1      50.020   9.395  16.634  0.00  0.00    +0.000 NA
ATOM     27  H   UNL     1      50.362   9.025  17.518  0.00  0.00    +0.000 HD
ENDBRANCH   1  26
TORSDOF 4
ENDMDL
MODEL 4
REMARK VINA RESULT:    -5.968      3.681      5.811
REMARK INTER + INTRA:          -7.668
REMARK INTER:                  -6.927
REMARK INTRA:                  -0.740
REMARK UNBOUND:                -0.304
REMARK  Name = 
REMARK  5 active torsions:
REMARK  status: ('A' for Active; 'I' for Inactive)
REMARK    1  A    between atoms: C_1  and  N_2
REMARK    2  A    between atoms: N_2  and  C_3
REMARK    3  A    between atoms: C_3  and  C_4
REMARK    4  A    between atoms: C_12  and  N_13
REMARK    5  A    between atoms: C_17  and  C_18
REMARK                            x       y       z     vdW  Elec       q    Type
REMARK                         _______ _______ _______ _____ _____    ______ ____
ROOT
ATOM      1  C   UNL     1      49.335   9.481  13.323  0.00  0.00    +0.000 C 
ATOM      2  C   UNL     1      50.027   8.865  12.082  0.00  0.00    +0.000 C 
ATOM      3  C   UNL     1      49.080   7.784  11.550  0.00  0.00    +0.000 C 
ATOM      4  C   UNL     1      47.692   8.092  12.131  0.00  0.00    +0.000 C 
ATOM      5  C   UNL     1      47.854   9.425  12.882  0.00  0.00    +0.000 C 
ENDROOT
BRANCH   4   6
ATOM      6  N   UNL     1      47.268   7.024  13.038  0.00  0.00    +0.000 N 
ATOM      7  C   UNL     1      46.452   6.031  12.483  0.00  0.00    +0.000 A 
ATOM      8  C   UNL     1      46.035   4.984  13.301  0.00  0.00    +0.000 A 
ATOM      9  C   UNL     1      45.240   3.966  12.769  0.00  0.00    +0.000 A 
ATOM     10  C   UNL     1      44.877   4.004  11.423  0.00  0.00    +0.000 A 
ATOM     11  C   UNL     1      45.345   5.074  10.680  0.00  0.00    +0.000 A 
ATOM     12  N   UNL     1      46.124   6.069  11.176  0.00  0.00    +0.000 NA
ATOM     13  H   UNL     1      46.853   7.362  13.901  0.00  0.00    +0.000 HD
BRANCH  10  14
ATOM     14  C   UNL     1      44.032   2.922  10.863  0.00  0.00    +0.000 C 
ATOM     15  N   UNL     1      44.506   2.178   9.820  0.00  0.00    +0.000 N 
ATOM     16  O   UNL     1      42.919   2.689  11.327  0.00  0.00    +0.000 OA
ATOM     17  H   UNL     1      45.403   2.282   9.372  0.00  0.00    +0.000 HD
ATOM     18  H   UNL     1      43.896   1.446   9.478  0.00  0.00    +0.000 HD
ENDBRANCH  10  14
ENDBRANCH   4   6
BRANCH   1  19
ATOM     19  C   UNL     1      49.523   8.660  14.632  0.00  0.00    +0.000 A 
ATOM     20  C   UNL     1      48.702   8.914  15.754  0.00  0.00    +0.000 A 
ATOM     21  C   UNL     1      48.866   8.219  16.959  0.00  0.00    +0.000 A 
ATOM     22  C   UNL     1      49.843   7.238  17.070  0.00  0.00    +0.000 A 
ATOM     23  C   UNL     1      50.652   6.951  15.977  0.00  0.00    +0.000 A 
ATOM     24  C   UNL     1      50.495   7.655  14.777  0.00  0.00    +0.000 A 
ENDBRANCH   1  19
BRANCH   1  26
ATOM     25  C   UNL     1      51.248  11.008  13.926  0.00  0.00    +0.000 C 
ATOM     26  N   UNL     1      49.842  10.849  13.588  0.00  0.00    +0.000 NA
ATOM     27  H   UNL     1      49.646  11.439  12.782  0.00  0.00    +0.000 HD
ENDBRANCH   1  26
TORSDOF 4
ENDMDL
MODEL 5
REMARK VINA RESULT:    -5.962      3.840      6.680
REMARK INTER + INTRA:          -7.661
REMARK INTER:                  -7.300
REMARK INTRA:                  -0.360
REMARK UNBOUND:                -0.304
REMARK  Name = 
REMARK  5 active torsions:
REMARK  status: ('A' for Active; 'I' for Inactive)
REMARK    1  A    between atoms: C_1  and  N_2
REMARK    2  A    between atoms: N_2  and  C_3
REMARK    3  A    between atoms: C_3  and  C_4
REMARK    4  A    between atoms: C_12  and  N_13
REMARK    5  A    between atoms: C_17  and  C_18
REMARK                            x       y       z     vdW  Elec       q    Type
REMARK                         _______ _______ _______ _____ _____    ______ ____
ROOT
ATOM      1  C   UNL     1      45.024   5.551  11.938  0.00  0.00    +0.000 C 
ATOM      2  C   UNL     1      45.762   4.250  11.531  0.00  0.00    +0.000 C 
ATOM      3  C   UNL     1      46.348   3.664  12.820  0.00  0.00    +0.000 C 
ATOM      4  C   UNL     1      45.574   4.301  13.983  0.00  0.00    +0.000 C 
ATOM      5  C   UNL     1      44.470   5.143  13.323  0.00  0.00    +0.000 C 
ENDROOT
BRANCH   4   6
ATOM      6  N   UNL     1      46.462   5.138  14.793  0.00  0.00    +0.000 N 
ATOM      7  C   UNL     1      47.453   4.464  15.518  0.00  0.00    +0.000 A 
ATOM      8  C   UNL     1      48.333   5.216  16.291  0.00  0.00    +0.000 A 
ATOM      9  C   UNL     1      49.346   4.575  17.007  0.00  0.00    +0.000 A 
ATOM     10  C   UNL     1      49.470   3.187  16.935  0.00  0.00    +0.000 A 
ATOM     11  C   UNL     1      48.560   2.519  16.135  0.00  0.00    +0.000 A 
ATOM     12  N   UNL     1      47.574   3.124  15.426  0.00  0.00    +0.000 NA
ATOM     13  H   UNL     1      45.971   5.781  15.405  0.00  0.00    +0.000 HD
BRANCH  10  14
ATOM     14  C   UNL     1      50.547   2.510  17.698  0.00  0.00    +0.000 C 
ATOM     15  N   UNL     1      51.292   3.233  18.586  0.00  0.00    +0.000 N 
ATOM     16  O   UNL     1      50.771   1.313  17.541  0.00  0.00    +0.000 OA
ATOM     17  H   UNL     1      51.186   4.213  18.794  0.00  0.00    +0.000 HD
ATOM     18  H   UNL     1      52.009   2.724  19.087  0.00  0.00    +0.000 HD
ENDBRANCH  10  14
ENDBRANCH   4   6
BRANCH   1  19
ATOM     19  C   UNL     1      45.952   6.790  12.089  0.00  0.00    +0.000 A 
ATOM     20  C   UNL     1      47.290   6.734  11.637  0.00  0.00    +0.000 A 
ATOM     21  C   UNL     1      48.164   7.818  11.789  0.00  0.00    +0.000 A 
ATOM     22  C   UNL     1      47.720   8.995  12.378  0.00  0.00    +0.000 A 
ATOM     23  C   UNL     1      46.403   9.088  12.812  0.00  0.00    +0.000 A 
ATOM     24  C   UNL     1      45.534   7.999  12.672  0.00  0.00    +0.000 A 
ENDBRANCH   1  19
BRANCH   1  26
ATOM     25  C   UNL     1      42.601   5.984  11.392  0.00  0.00    +0.000 C 
ATOM     26  N   UNL     1      43.983   5.902  10.943  0.00  0.00    +0.000 NA
ATOM     27  H   UNL     1      44.223   6.790  10.507  0.00  0.00    +0.000 HD
ENDBRANCH   1  26
TORSDOF 4
ENDMDL
MODEL 6
REMARK VINA RESULT:    -5.739      3.682      6.569
REMARK INTER + INTRA:          -7.385
REMARK INTER:                  -6.969
REMARK INTRA:                  -0.416
REMARK UNBOUND:                -0.304
REMARK  Name = 
REMARK  5 active torsions:
REMARK  status: ('A' for Active; 'I' for Inactive)
REMARK    1  A    between atoms: C_1  and  N_2
REMARK    2  A    between atoms: N_2  and  C_3
REMARK    3  A    between atoms: C_3  and  C_4
REMARK    4  A    between atoms: C_12  and  N_13
REMARK    5  A    between atoms: C_17  and  C_18
REMARK                            x       y       z     vdW  Elec       q    Type
REMARK                         _______ _______ _______ _____ _____    ______ ____
ROOT
ATOM      1  C   UNL     1      44.186   4.663  11.871  0.00  0.00    +0.000 C 
ATOM      2  C   UNL     1      44.671   3.742  13.019  0.00  0.00    +0.000 C 
ATOM      3  C   UNL     1      45.984   4.344  13.530  0.00  0.00    +0.000 C 
ATOM      4  C   UNL     1      46.009   5.806  13.061  0.00  0.00    +0.000 C 
ATOM      5  C   UNL     1      44.640   6.042  12.400  0.00  0.00    +0.000 C 
ENDROOT
BRANCH   4   6
ATOM      6  N   UNL     1      47.099   6.021  12.108  0.00  0.00    +0.000 N 
ATOM      7  C   UNL     1      47.832   7.204  12.265  0.00  0.00    +0.000 A 
ATOM      8  C   UNL     1      48.889   7.446  11.392  0.00  0.00    +0.000 A 
ATOM      9  C   UNL     1      49.654   8.607  11.538  0.00  0.00    +0.000 A 
ATOM     10  C   UNL     1      49.354   9.507  12.560  0.00  0.00    +0.000 A 
ATOM     11  C   UNL     1      48.294   9.182  13.388  0.00  0.00    +0.000 A 
ATOM     12  N   UNL     1      47.544   8.057  13.267  0.00  0.00    +0.000 NA
ATOM     13  H   UNL     1      46.818   5.921  11.137  0.00  0.00    +0.000 HD
BRANCH  10  14
ATOM     14  C   UNL     1      50.167  10.738  12.711  0.00  0.00    +0.000 C 
ATOM     15  N   UNL     1      50.024  11.499  13.837  0.00  0.00    +0.000 N 
ATOM     16  O   UNL     1      50.964  11.076  11.840  0.00  0.00    +0.000 OA
ATOM     17  H   UNL     1      49.407  11.308  14.610  0.00  0.00    +0.000 HD
ATOM     18  H   UNL     1      50.606  12.323  13.897  0.00  0.00    +0.000 HD
ENDBRANCH  10  14
ENDBRANCH   4   6
BRANCH   1  19
ATOM     19  C   UNL     1      44.859   4.379  10.498  0.00  0.00    +0.000 A 
ATOM     20  C   UNL     1      44.889   3.065   9.979  0.00  0.00    +0.000 A 
ATOM     21  C   UNL     1      45.518   2.767   8.764  0.00  0.00    +0.000 A 
ATOM     22  C   UNL     1      46.117   3.778   8.023  0.00  0.00    +0.000 A 
ATOM     23  C   UNL     1      46.085   5.084   8.496  0.00  0.00    +0.000 A 
ATOM     24  C   UNL     1      45.467   5.379   9.718  0.00  0.00    +0.000 A 
ENDBRANCH   1  19
BRANCH   1  26
ATOM     25  C   UNL     1      41.906   5.736  11.783  0.00  0.00    +0.000 C 
ATOM     26  N   UNL     1      42.721   4.536  11.675  0.00  0.00    +0.000 NA
ATOM     27  H   UNL     1      42.541   4.116  10.766  0.00  0.00    +0.000 HD
ENDBRANCH   1  26
TORSDOF 4
ENDMDL
MODEL 7
REMARK VINA RESULT:    -5.729      4.710      7.464
REMARK INTER + INTRA:          -7.373
REMARK INTER:                  -6.542
REMARK INTRA:                  -0.831
REMARK UNBOUND:                -0.304
REMARK  Name = 
REMARK  5 active torsions:
REMARK  status: ('A' for Active; 'I' for Inactive)
REMARK    1  A    between atoms: C_1  and  N_2
REMARK    2  A    between atoms: N_2  and  C_3
REMARK    3  A    between atoms: C_3  and  C_4
REMARK    4  A    between atoms: C_12  and  N_13
REMARK    5  A    between atoms: C_17  and  C_18
REMARK                            x       y       z     vdW  Elec       q    Type
REMARK                         _______ _______ _______ _____ _____    ______ ____
ROOT
ATOM      1  C   UNL     1      49.677   6.642  17.750  0.00  0.00    +0.000 C 
ATOM      2  C   UNL     1      51.089   6.886  17.160  0.00  0.00    +0.000 C 
ATOM      3  C   UNL     1      50.892   7.148  15.663  0.00  0.00    +0.000 C 
ATOM      4  C   UNL     1      49.419   7.541  15.476  0.00  0.00    +0.000 C 
ATOM      5  C   UNL     1      48.837   7.621  16.897  0.00  0.00    +0.000 C 
ENDROOT
BRANCH   4   6
ATOM      6  N   UNL     1      48.719   6.535  14.675  0.00  0.00    +0.000 N 
ATOM      7  C   UNL     1      47.656   7.001  13.892  0.00  0.00    +0.000 A 
ATOM      8  C   UNL     1      46.968   6.086  13.100  0.00  0.00    +0.000 A 
ATOM      9  C   UNL     1      45.917   6.525  12.290  0.00  0.00    +0.000 A 
ATOM     10  C   UNL     1      45.573   7.876  12.278  0.00  0.00    +0.000 A 
ATOM     11  C   UNL     1      46.317   8.718  13.086  0.00  0.00    +0.000 A 
ATOM     12  N   UNL     1      47.344   8.312  13.875  0.00  0.00    +0.000 NA
ATOM     13  H   UNL     1      48.419   5.725  15.208  0.00  0.00    +0.000 HD
BRANCH  10  14
ATOM     14  C   UNL     1      44.457   8.337  11.417  0.00  0.00    +0.000 C 
ATOM     15  N   UNL     1      43.455   7.465  11.098  0.00  0.00    +0.000 N 
ATOM     16  O   UNL     1      44.424   9.490  10.993  0.00  0.00    +0.000 OA
ATOM     17  H   UNL     1      43.382   6.506  11.398  0.00  0.00    +0.000 HD
ATOM     18  H   UNL     1      42.712   7.829  10.516  0.00  0.00    +0.000 HD
ENDBRANCH  10  14
ENDBRANCH   4   6
BRANCH   1  19
ATOM     19  C   UNL     1      49.147   5.192  17.558  0.00  0.00    +0.000 A 
ATOM     20  C   UNL     1      47.757   4.946  17.501  0.00  0.00    +0.000 A 
ATOM     21  C   UNL     1      47.244   3.650  17.365  0.00  0.00    +0.000 A 
ATOM     22  C   UNL     1      48.107   2.566  17.262  0.00  0.00    +0.000 A 
ATOM     23  C   UNL     1      49.479   2.779  17.293  0.00  0.00    +0.000 A 
ATOM     24  C   UNL     1      49.991   4.074  17.442  0.00  0.00    +0.000 A 
ENDBRANCH   1  19
BRANCH   1  26
ATOM     25  C   UNL     1      49.128   8.209  19.647  0.00  0.00    +0.000 C 
ATOM     26  N   UNL     1      49.655   6.928  19.205  0.00  0.00    +0.000 NA
ATOM     27  H   UNL     1      49.134   6.195  19.682  0.00  0.00    +0.000 HD
ENDBRANCH   1  26
TORSDOF 4
ENDMDL
MODEL 8
REMARK VINA RESULT:    -5.222      4.537      6.638
REMARK INTER + INTRA:          -6.748
REMARK INTER:                  -6.017
REMARK INTRA:                  -0.731
REMARK UNBOUND:                -0.304
REMARK  Name = 
REMARK  5 active torsions:
REMARK  status: ('A' for Active; 'I' for Inactive)
REMARK    1  A    between atoms: C_1  and  N_2
REMARK    2  A    between atoms: N_2  and  C_3
REMARK    3  A    between atoms: C_3  and  C_4
REMARK    4  A    between atoms: C_12  and  N_13
REMARK    5  A    between atoms: C_17  and  C_18
REMARK                            x       y       z     vdW  Elec       q    Type
REMARK                         _______ _______ _______ _____ _____    ______ ____
ROOT
ATOM      1  C   UNL     1      49.929   6.808  18.194  0.00  0.00    +0.000 C 
ATOM      2  C   UNL     1      48.775   6.111  18.957  0.00  0.00    +0.000 C 
ATOM      3  C   UNL     1      47.909   5.422  17.897  0.00  0.00    +0.000 C 
ATOM      4  C   UNL     1      48.779   5.290  16.638  0.00  0.00    +0.000 C 
ATOM      5  C   UNL     1      50.172   5.793  17.054  0.00  0.00    +0.000 C 
ENDROOT
BRANCH   4   6
ATOM      6  N   UNL     1      48.230   6.099  15.549  0.00  0.00    +0.000 N 
ATOM      7  C   UNL     1      47.442   5.419  14.612  0.00  0.00    +0.000 A 
ATOM      8  C   UNL     1      46.884   6.147  13.565  0.00  0.00    +0.000 A 
ATOM      9  C   UNL     1      46.074   5.501  12.628  0.00  0.00    +0.000 A 
ATOM     10  C   UNL     1      45.828   4.134  12.754  0.00  0.00    +0.000 A 
ATOM     11  C   UNL     1      46.414   3.490  13.830  0.00  0.00    +0.000 A 
ATOM     12  N   UNL     1      47.197   4.101  14.754  0.00  0.00    +0.000 NA
ATOM     13  H   UNL     1      48.925   6.659  15.065  0.00  0.00    +0.000 HD
BRANCH  10  14
ATOM     14  C   UNL     1      44.969   3.451  11.756  0.00  0.00    +0.000 C 
ATOM     15  N   UNL     1      44.157   2.430  12.162  0.00  0.00    +0.000 N 
ATOM     16  O   UNL     1      44.980   3.794  10.577  0.00  0.00    +0.000 OA
ATOM     17  H   UNL     1      44.068   2.077  13.101  0.00  0.00    +0.000 HD
ATOM     18  H   UNL     1      43.585   2.002  11.447  0.00  0.00    +0.000 HD
ENDBRANCH  10  14
ENDBRANCH   4   6
BRANCH   1  19
ATOM     19  C   UNL     1      49.550   8.192  17.592  0.00  0.00    +0.000 A 
ATOM     20  C   UNL     1      48.362   8.842  17.998  0.00  0.00    +0.000 A 
ATOM     21  C   UNL     1      47.972  10.071  17.451  0.00  0.00    +0.000 A 
ATOM     22  C   UNL     1      48.769  10.695  16.499  0.00  0.00    +0.000 A 
ATOM     23  C   UNL     1      49.954  10.091  16.096  0.00  0.00    +0.000 A 
ATOM     24  C   UNL     1      50.336   8.856  16.634  0.00  0.00    +0.000 A 
ENDBRANCH   1  19
BRANCH   1  26
ATOM     25  C   UNL     1      50.941   7.909  20.224  0.00  0.00    +0.000 C 
ATOM     26  N   UNL     1      51.097   7.022  19.082  0.00  0.00    +0.000 NA
ATOM     27  H   UNL     1      51.422   6.122  19.428  0.00  0.00    +0.000 HD
ENDBRANCH   1  26
TORSDOF 4
ENDMDL
MODEL 9
REMARK VINA RESULT:    -5.005      4.520      6.612
REMARK INTER + INTRA:          -6.480
REMARK INTER:                  -5.614
REMARK INTRA:                  -0.866
REMARK UNBOUND:                -0.304
REMARK  Name = 
REMARK  5 active torsions:
REMARK  status: ('A' for Active; 'I' for Inactive)
REMARK    1  A    between atoms: C_1  and  N_2
REMARK    2  A    between atoms: N_2  and  C_3
REMARK    3  A    between atoms: C_3  and  C_4
REMARK    4  A    between atoms: C_12  and  N_13
REMARK    5  A    between atoms: C_17  and  C_18
REMARK                            x       y       z     vdW  Elec       q    Type
REMARK                         _______ _______ _______ _____ _____    ______ ____
ROOT
ATOM      1  C   UNL     1      50.323   5.687  17.996  0.00  0.00    +0.000 C 
ATOM      2  C   UNL     1      49.134   5.901  18.968  0.00  0.00    +0.000 C 
ATOM      3  C   UNL     1      47.861   5.793  18.123  0.00  0.00    +0.000 C 
ATOM      4  C   UNL     1      48.250   5.055  16.834  0.00  0.00    +0.000 C 
ATOM      5  C   UNL     1      49.718   4.641  17.031  0.00  0.00    +0.000 C 
ENDROOT
BRANCH   4   6
ATOM      6  N   UNL     1      48.102   5.936  15.674  0.00  0.00    +0.000 N 
ATOM      7  C   UNL     1      47.362   5.424  14.601  0.00  0.00    +0.000 A 
ATOM      8  C   UNL     1      47.179   6.231  13.481  0.00  0.00    +0.000 A 
ATOM      9  C   UNL     1      46.426   5.757  12.404  0.00  0.00    +0.000 A 
ATOM     10  C   UNL     1      45.859   4.483  12.464  0.00  0.00    +0.000 A 
ATOM     11  C   UNL     1      46.082   3.755  13.620  0.00  0.00    +0.000 A 
ATOM     12  N   UNL     1      46.804   4.200  14.679  0.00  0.00    +0.000 NA
ATOM     13  H   UNL     1      48.980   6.313  15.332  0.00  0.00    +0.000 HD
BRANCH  10  14
ATOM     14  C   UNL     1      45.061   3.984  11.318  0.00  0.00    +0.000 C 
ATOM     15  N   UNL     1      44.330   2.839  11.463  0.00  0.00    +0.000 N 
ATOM     16  O   UNL     1      45.051   4.587  10.248  0.00  0.00    +0.000 OA
ATOM     17  H   UNL     1      44.264   2.275  12.295  0.00  0.00    +0.000 HD
ATOM     18  H   UNL     1      43.797   2.544  10.656  0.00  0.00    +0.000 HD
ENDBRANCH  10  14
ENDBRANCH   4   6
BRANCH   1  19
ATOM     19  C   UNL     1      50.733   6.960  17.201  0.00  0.00    +0.000 A 
ATOM     20  C   UNL     1      50.399   8.242  17.692  0.00  0.00    +0.000 A 
ATOM     21  C   UNL     1      50.721   9.408  16.985  0.00  0.00    +0.000 A 
ATOM     22  C   UNL     1      51.403   9.325  15.777  0.00  0.00    +0.000 A 
ATOM     23  C   UNL     1      51.764   8.079  15.280  0.00  0.00    +0.000 A 
ATOM     24  C   UNL     1      51.430   6.913  15.981  0.00  0.00    +0.000 A 
ENDBRANCH   1  19
BRANCH   1  26
ATOM     25  C   UNL     1      51.683   5.617  20.118  0.00  0.00    +0.000 C 
ATOM     26  N   UNL     1      51.526   5.220  18.727  0.00  0.00    +0.000 NA
ATOM     27  H   UNL     1      51.569   4.204  18.686  0.00  0.00    +0.000 HD
ENDBRANCH   1  26
TORSDOF 4
ENDMDL
