MODEL 1
REMARK VINA RESULT:    -6.802      0.000      0.000
REMARK INTER + INTRA:         -11.557
REMARK INTER:                 -10.381
REMARK INTRA:                  -1.176
REMARK UNBOUND:                -1.176
REMARK  Name = 
REMARK  10 active torsions:
REMARK  status: ('A' for Active; 'I' for Inactive)
REMARK    1  A    between atoms: C_1  and  C_2
REMARK    2  A    between atoms: C_2  and  C_3
REMARK    3  A    between atoms: C_3  and  N_4
REMARK    4  A    between atoms: N_4  and  C_5
REMARK    5  A    between atoms: C_5  and  C_6
REMARK    6  A    between atoms: C_9  and  C_10
REMARK    7  A    between atoms: C_10  and  C_11
REMARK    8  A    between atoms: C_14  and  C_15
REMARK    9  A    between atoms: C_15  and  N_16
REMARK   10  A    between atoms: C_17  and  C_19
REMARK                            x       y       z     vdW  Elec       q    Type
REMARK                         _______ _______ _______ _____ _____    ______ ____
ROOT
ATOM      1  C   UNL     1      45.754   6.199  12.882  0.00  0.00    +0.000 A 
ATOM      2  C   UNL     1      46.818   5.447  13.393  0.00  0.00    +0.000 A 
ATOM      3  C   UNL     1      47.920   6.072  13.989  0.00  0.00    +0.000 A 
ATOM      4  C   UNL     1      47.994   7.469  14.070  0.00  0.00    +0.000 A 
ATOM      5  C   UNL     1      46.954   8.223  13.504  0.00  0.00    +0.000 A 
ATOM      6  C   UNL     1      45.840   7.596  12.930  0.00  0.00    +0.000 A 
ENDROOT
BRANCH   1   7
ATOM      7  C   UNL     1      44.544   5.499  12.308  0.00  0.00    +0.000 C 
BRANCH   7  11
ATOM      8  C   UNL     1      45.283   3.873   8.436  0.00  0.00    +0.000 A 
ATOM      9  C   UNL     1      44.468   3.151   9.304  0.00  0.00    +0.000 A 
ATOM     10  C   UNL     1      44.188   3.680  10.562  0.00  0.00    +0.000 A 
ATOM     11  C   UNL     1      44.746   4.901  10.940  0.00  0.00    +0.000 A 
ATOM     12  C   UNL     1      45.538   5.555  10.000  0.00  0.00    +0.000 A 
ATOM     13  N   UNL     1      45.818   5.075   8.766  0.00  0.00    +0.000 NA
BRANCH   8  14
ATOM     14  C   UNL     1      45.476   3.389   7.011  0.00  0.00    +0.000 C 
BRANCH  14  15
ATOM     15  N   UNL     1      46.862   3.559   6.534  0.00  0.00    +0.000 NA
ATOM     16  H   UNL     1      46.869   4.240   5.774  0.00  0.00    +0.000 HD
BRANCH  15  17
ATOM     17  C   UNL     1      47.395   2.282   6.053  0.00  0.00    +0.000 C 
BRANCH  17  19
ATOM     18  C   UNL     1      46.823   0.382   7.577  0.00  0.00    +0.000 C 
ATOM     19  C   UNL     1      47.858   1.441   7.238  0.00  0.00    +0.000 C 
ENDBRANCH  17  19
ENDBRANCH  15  17
ENDBRANCH  14  15
ENDBRANCH   8  14
ENDBRANCH   7  11
ENDBRANCH   1   7
BRANCH   4  20
ATOM     20  C   UNL     1      49.155   8.175  14.733  0.00  0.00    +0.000 C 
BRANCH  20  21
ATOM     21  N   UNL     1      49.276   7.826  16.125  0.00  0.00    +0.000 N 
ATOM     22  C   UNL     1      48.597   8.507  17.107  0.00  0.00    +0.000 C 
ATOM     23  O   UNL     1      47.835   9.437  16.868  0.00  0.00    +0.000 OA
ATOM     24  H   UNL     1      50.130   7.345  16.388  0.00  0.00    +0.000 HD
BRANCH  22  25
ATOM     25  C   UNL     1      48.798   8.002  18.474  0.00  0.00    +0.000 A 
ATOM     26  C   UNL     1      49.207   8.862  19.485  0.00  0.00    +0.000 A 
ATOM     27  S   UNL     1      49.344   8.104  21.009  0.00  0.00    +0.000 S 
ATOM     28  C   UNL     1      48.909   6.591  20.359  0.00  0.00    +0.000 A 
ATOM     29  N   UNL     1      48.868   5.478  21.139  0.00  0.00    +0.000 NA
ATOM     30  C   UNL     1      48.557   4.396  20.506  0.00  0.00    +0.000 A 
ATOM     31  N   UNL     1      48.270   4.327  19.167  0.00  0.00    +0.000 N 
ATOM     32  C   UNL     1      48.247   5.431  18.349  0.00  0.00    +0.000 A 
ATOM     33  O   UNL     1      47.914   5.347  17.175  0.00  0.00    +0.000 OA
ATOM     34  C   UNL     1      48.630   6.671  19.006  0.00  0.00    +0.000 A 
ATOM     35  H   UNL     1      48.010   3.452  18.735  0.00  0.00    +0.000 HD
ENDBRANCH  22  25
ENDBRANCH  20  21
ENDBRANCH   4  20
TORSDOF 9
ENDMDL
MODEL 2
REMARK VINA RESULT:    -6.774      5.572      7.849
REMARK INTER + INTRA:         -11.514
REMARK INTER:                 -10.412
REMARK INTRA:                  -1.102
REMARK UNBOUND:                -1.176
REMARK  Name = 
REMARK  10 active torsions:
REMARK  status: ('A' for Active; 'I' for Inactive)
REMARK    1  A    between atoms: C_1  and  C_2
REMARK    2  A    between atoms: C_2  and  C_3
REMARK    3  A    between atoms: C_3  and  N_4
REMARK    4  A    between atoms: N_4  and  C_5
REMARK    5  A    between atoms: C_5  and  C_6
REMARK    6  A    between atoms: C_9  and  C_10
REMARK    7  A    between atoms: C_10  and  C_11
REMARK    8  A    between atoms: C_14  and  C_15
REMARK    9  A    between atoms: C_15  and  N_16
REMARK   10  A    between atoms: C_17  and  C_19
REMARK                            x       y       z     vdW  Elec       q    Type
REMARK                         _______ _______ _______ _____ _____    ______ ____
ROOT
ATOM      1  C   UNL     1      47.507   7.914  12.416  0.00  0.00    +0.000 A 
ATOM      2  C   UNL     1      48.572   7.007  12.398  0.00  0.00    +0.000 A 
ATOM      3  C   UNL     1      49.852   7.406  11.995  0.00  0.00    +0.000 A 
ATOM      4  C   UNL     1      50.093   8.722  11.578  0.00  0.00    +0.000 A 
ATOM      5  C   UNL     1      49.011   9.616  11.540  0.00  0.00    +0.000 A 
ATOM      6  C   UNL     1      47.736   9.222  11.968  0.00  0.00    +0.000 A 
ENDROOT
BRANCH   1   7
ATOM      7  C   UNL     1      46.153   7.478  12.924  0.00  0.00    +0.000 C 
BRANCH   7  11
ATOM      8  C   UNL     1      44.764   3.893  11.079  0.00  0.00    +0.000 A 
ATOM      9  C   UNL     1      45.117   3.841  12.425  0.00  0.00    +0.000 A 
ATOM     10  C   UNL     1      45.542   5.009  13.055  0.00  0.00    +0.000 A 
ATOM     11  C   UNL     1      45.635   6.195  12.327  0.00  0.00    +0.000 A 
ATOM     12  C   UNL     1      45.249   6.150  10.990  0.00  0.00    +0.000 A 
ATOM     13  N   UNL     1      44.819   5.037  10.353  0.00  0.00    +0.000 NA
BRANCH   8  14
ATOM     14  C   UNL     1      44.156   2.671  10.415  0.00  0.00    +0.000 C 
BRANCH  14  15
ATOM     15  N   UNL     1      44.383   2.641   8.958  0.00  0.00    +0.000 NA
ATOM     16  H   UNL     1      43.558   2.250   8.502  0.00  0.00    +0.000 HD
BRANCH  15  17
ATOM     17  C   UNL     1      45.554   1.819   8.642  0.00  0.00    +0.000 C 
BRANCH  17  19
ATOM     18  C   UNL     1      47.475   1.604   7.053  0.00  0.00    +0.000 C 
ATOM     19  C   UNL     1      46.433   2.546   7.631  0.00  0.00    +0.000 C 
ENDBRANCH  17  19
ENDBRANCH  15  17
ENDBRANCH  14  15
ENDBRANCH   8  14
ENDBRANCH   7  11
ENDBRANCH   1   7
BRANCH   4  20
ATOM     20  C   UNL     1      51.468   9.194  11.164  0.00  0.00    +0.000 C 
BRANCH  20  21
ATOM     21  N   UNL     1      52.345   8.097  10.850  0.00  0.00    +0.000 N 
ATOM     22  C   UNL     1      52.960   7.986   9.625  0.00  0.00    +0.000 C 
ATOM     23  O   UNL     1      52.820   8.813   8.732  0.00  0.00    +0.000 OA
ATOM     24  H   UNL     1      52.199   7.246  11.384  0.00  0.00    +0.000 HD
BRANCH  22  25
ATOM     25  C   UNL     1      53.854   6.827   9.476  0.00  0.00    +0.000 A 
ATOM     26  C   UNL     1      54.849   6.585  10.413  0.00  0.00    +0.000 A 
ATOM     27  S   UNL     1      55.755   5.173  10.095  0.00  0.00    +0.000 S 
ATOM     28  C   UNL     1      54.880   4.865   8.667  0.00  0.00    +0.000 A 
ATOM     29  N   UNL     1      55.181   3.801   7.875  0.00  0.00    +0.000 NA
ATOM     30  C   UNL     1      54.459   3.711   6.807  0.00  0.00    +0.000 A 
ATOM     31  N   UNL     1      53.455   4.580   6.466  0.00  0.00    +0.000 N 
ATOM     32  C   UNL     1      53.079   5.638   7.259  0.00  0.00    +0.000 A 
ATOM     33  O   UNL     1      52.130   6.350   6.962  0.00  0.00    +0.000 OA
ATOM     34  C   UNL     1      53.888   5.806   8.455  0.00  0.00    +0.000 A 
ATOM     35  H   UNL     1      52.911   4.441   5.627  0.00  0.00    +0.000 HD
ENDBRANCH  22  25
ENDBRANCH  20  21
ENDBRANCH   4  20
TORSDOF 9
ENDMDL
MODEL 3
REMARK VINA RESULT:    -6.731      3.178      9.444
REMARK INTER + INTRA:         -11.449
REMARK INTER:                  -9.872
REMARK INTRA:                  -1.577
REMARK UNBOUND:                -1.176
REMARK  Name = 
REMARK  10 active torsions:
REMARK  status: ('A' for Active; 'I' for Inactive)
REMARK    1  A    between atoms: C_1  and  C_2
REMARK    2  A    between atoms: C_2  and  C_3
REMARK    3  A    between atoms: C_3  and  N_4
REMARK    4  A    between atoms: N_4  and  C_5
REMARK    5  A    between atoms: C_5  and  C_6
REMARK    6  A    between atoms: C_9  and  C_10
REMARK    7  A    between atoms: C_10  and  C_11
REMARK    8  A    between atoms: C_14  and  C_15
REMARK    9  A    between atoms: C_15  and  N_16
REMARK   10  A    between atoms: C_17  and  C_19
REMARK                            x       y       z     vdW  Elec       q    Type
REMARK                         _______ _______ _______ _____ _____    ______ ____
ROOT
ATOM      1  C   UNL     1      48.811   8.798  15.763  0.00  0.00    +0.000 A 
ATOM      2  C   UNL     1      48.662   9.824  14.823  0.00  0.00    +0.000 A 
ATOM      3  C   UNL     1      48.324   9.539  13.494  0.00  0.00    +0.000 A 
ATOM      4  C   UNL     1      48.148   8.215  13.068  0.00  0.00    +0.000 A 
ATOM      5  C   UNL     1      48.355   7.185  13.999  0.00  0.00    +0.000 A 
ATOM      6  C   UNL     1      48.669   7.472  15.333  0.00  0.00    +0.000 A 
ENDROOT
BRANCH   1   7
ATOM      7  C   UNL     1      49.105   9.135  17.206  0.00  0.00    +0.000 C 
BRANCH   7  11
ATOM      8  C   UNL     1      49.034   5.878  19.958  0.00  0.00    +0.000 A 
ATOM      9  C   UNL     1      47.849   6.576  19.740  0.00  0.00    +0.000 A 
ATOM     10  C   UNL     1      47.843   7.623  18.821  0.00  0.00    +0.000 A 
ATOM     11  C   UNL     1      49.020   7.971  18.159  0.00  0.00    +0.000 A 
ATOM     12  C   UNL     1      50.151   7.207  18.434  0.00  0.00    +0.000 A 
ATOM     13  N   UNL     1      50.187   6.177  19.310  0.00  0.00    +0.000 NA
BRANCH   8  14
ATOM     14  C   UNL     1      49.026   4.642  20.839  0.00  0.00    +0.000 C 
BRANCH  14  15
ATOM     15  N   UNL     1      48.312   3.508  20.224  0.00  0.00    +0.000 NA
ATOM     16  H   UNL     1      48.453   2.677  20.798  0.00  0.00    +0.000 HD
BRANCH  15  17
ATOM     17  C   UNL     1      48.819   3.260  18.872  0.00  0.00    +0.000 C 
BRANCH  17  19
ATOM     18  C   UNL     1      47.580   4.212  16.918  0.00  0.00    +0.000 C 
ATOM     19  C   UNL     1      47.650   3.067  17.913  0.00  0.00    +0.000 C 
ENDBRANCH  17  19
ENDBRANCH  15  17
ENDBRANCH  14  15
ENDBRANCH   8  14
ENDBRANCH   7  11
ENDBRANCH   1   7
BRANCH   4  20
ATOM     20  C   UNL     1      47.754   7.874  11.649  0.00  0.00    +0.000 C 
BRANCH  20  21
ATOM     21  N   UNL     1      46.972   6.667  11.580  0.00  0.00    +0.000 N 
ATOM     22  C   UNL     1      45.599   6.687  11.632  0.00  0.00    +0.000 C 
ATOM     23  O   UNL     1      44.950   7.723  11.721  0.00  0.00    +0.000 OA
ATOM     24  H   UNL     1      47.444   5.817  11.871  0.00  0.00    +0.000 HD
BRANCH  22  25
ATOM     25  C   UNL     1      44.948   5.373  11.510  0.00  0.00    +0.000 A 
ATOM     26  C   UNL     1      44.212   4.856  12.568  0.00  0.00    +0.000 A 
ATOM     27  S   UNL     1      43.497   3.344  12.224  0.00  0.00    +0.000 S 
ATOM     28  C   UNL     1      44.187   3.307  10.668  0.00  0.00    +0.000 A 
ATOM     29  N   UNL     1      43.998   2.245   9.841  0.00  0.00    +0.000 NA
ATOM     30  C   UNL     1      44.609   2.337   8.706  0.00  0.00    +0.000 A 
ATOM     31  N   UNL     1      45.382   3.401   8.318  0.00  0.00    +0.000 N 
ATOM     32  C   UNL     1      45.560   4.520   9.096  0.00  0.00    +0.000 A 
ATOM     33  O   UNL     1      46.194   5.484   8.690  0.00  0.00    +0.000 OA
ATOM     34  C   UNL     1      44.924   4.448  10.402  0.00  0.00    +0.000 A 
ATOM     35  H   UNL     1      45.814   3.424   7.406  0.00  0.00    +0.000 HD
ENDBRANCH  22  25
ENDBRANCH  20  21
ENDBRANCH   4  20
TORSDOF 9
ENDMDL
MODEL 4
REMARK VINA RESULT:    -6.635      4.967      9.646
REMARK INTER + INTRA:         -11.302
REMARK INTER:                 -10.157
REMARK INTRA:                  -1.146
REMARK UNBOUND:                -1.176
REMARK  Name = 
REMARK  10 active torsions:
REMARK  status: ('A' for Active; 'I' for Inactive)
REMARK    1  A    between atoms: C_1  and  C_2
REMARK    2  A    between atoms: C_2  and  C_3
REMARK    3  A    between atoms: C_3  and  N_4
REMARK    4  A    between atoms: N_4  and  C_5
REMARK    5  A    between atoms: C_5  and  C_6
REMARK    6  A    between atoms: C_9  and  C_10
REMARK    7  A    between atoms: C_10  and  C_11
REMARK    8  A    between atoms: C_14  and  C_15
REMARK    9  A    between atoms: C_15  and  N_16
REMARK   10  A    between atoms: C_17  and  C_19
REMARK                            x       y       z     vdW  Elec       q    Type
REMARK                         _______ _______ _______ _____ _____    ______ ____
ROOT
ATOM      1  C   UNL     1      49.775   5.690  17.008  0.00  0.00    +0.000 A 
ATOM      2  C   UNL     1      48.498   5.373  16.530  0.00  0.00    +0.000 A 
ATOM      3  C   UNL     1      48.028   5.906  15.323  0.00  0.00    +0.000 A 
ATOM      4  C   UNL     1      48.818   6.788  14.574  0.00  0.00    +0.000 A 
ATOM      5  C   UNL     1      50.075   7.150  15.084  0.00  0.00    +0.000 A 
ATOM      6  C   UNL     1      50.554   6.597  16.278  0.00  0.00    +0.000 A 
ENDROOT
BRANCH   1   7
ATOM      7  C   UNL     1      50.287   5.047  18.274  0.00  0.00    +0.000 C 
BRANCH   7  11
ATOM      8  C   UNL     1      52.629   1.508  17.848  0.00  0.00    +0.000 A 
ATOM      9  C   UNL     1      51.332   1.499  17.342  0.00  0.00    +0.000 A 
ATOM     10  C   UNL     1      50.561   2.655  17.442  0.00  0.00    +0.000 A 
ATOM     11  C   UNL     1      51.086   3.786  18.068  0.00  0.00    +0.000 A 
ATOM     12  C   UNL     1      52.396   3.703  18.531  0.00  0.00    +0.000 A 
ATOM     13  N   UNL     1      53.175   2.601  18.437  0.00  0.00    +0.000 NA
BRANCH   8  14
ATOM     14  C   UNL     1      53.534   0.313  17.614  0.00  0.00    +0.000 C 
BRANCH  14  15
ATOM     15  N   UNL     1      53.249  -0.807  18.531  0.00  0.00    +0.000 NA
ATOM     16  H   UNL     1      52.957  -0.430  19.433  0.00  0.00    +0.000 HD
BRANCH  15  17
ATOM     17  C   UNL     1      54.443  -1.636  18.710  0.00  0.00    +0.000 C 
BRANCH  17  19
ATOM     18  C   UNL     1      53.801  -3.308  20.457  0.00  0.00    +0.000 C 
ATOM     19  C   UNL     1      54.578  -2.034  20.175  0.00  0.00    +0.000 C 
ENDBRANCH  17  19
ENDBRANCH  15  17
ENDBRANCH  14  15
ENDBRANCH   8  14
ENDBRANCH   7  11
ENDBRANCH   1   7
BRANCH   4  20
ATOM     20  C   UNL     1      48.354   7.358  13.253  0.00  0.00    +0.000 C 
BRANCH  20  21
ATOM     21  N   UNL     1      47.560   6.416  12.507  0.00  0.00    +0.000 N 
ATOM     22  C   UNL     1      46.434   6.800  11.818  0.00  0.00    +0.000 C 
ATOM     23  O   UNL     1      46.042   7.960  11.777  0.00  0.00    +0.000 OA
ATOM     24  H   UNL     1      47.624   5.448  12.806  0.00  0.00    +0.000 HD
BRANCH  22  25
ATOM     25  C   UNL     1      45.756   5.726  11.076  0.00  0.00    +0.000 A 
ATOM     26  C   UNL     1      45.843   5.668   9.692  0.00  0.00    +0.000 A 
ATOM     27  S   UNL     1      45.030   4.328   9.014  0.00  0.00    +0.000 S 
ATOM     28  C   UNL     1      44.495   3.806  10.544  0.00  0.00    +0.000 A 
ATOM     29  N   UNL     1      43.702   2.710  10.673  0.00  0.00    +0.000 NA
ATOM     30  C   UNL     1      43.343   2.452  11.888  0.00  0.00    +0.000 A 
ATOM     31  N   UNL     1      43.716   3.184  12.985  0.00  0.00    +0.000 N 
ATOM     32  C   UNL     1      44.558   4.268  12.912  0.00  0.00    +0.000 A 
ATOM     33  O   UNL     1      44.931   4.854  13.919  0.00  0.00    +0.000 OA
ATOM     34  C   UNL     1      44.958   4.624  11.560  0.00  0.00    +0.000 A 
ATOM     35  H   UNL     1      43.421   2.916  13.913  0.00  0.00    +0.000 HD
ENDBRANCH  22  25
ENDBRANCH  20  21
ENDBRANCH   4  20
TORSDOF 9
ENDMDL
MODEL 5
REMARK VINA RESULT:    -6.574      2.907      3.987
REMARK INTER + INTRA:         -11.209
REMARK INTER:                 -10.076
REMARK INTRA:                  -1.133
REMARK UNBOUND:                -1.176
REMARK  Name = 
REMARK  10 active torsions:
REMARK  status: ('A' for Active; 'I' for Inactive)
REMARK    1  A    between atoms: C_1  and  C_2
REMARK    2  A    between atoms: C_2  and  C_3
REMARK    3  A    between atoms: C_3  and  N_4
REMARK    4  A    between atoms: N_4  and  C_5
REMARK    5  A    between atoms: C_5  and  C_6
REMARK    6  A    between atoms: C_9  and  C_10
REMARK    7  A    between atoms: C_10  and  C_11
REMARK    8  A    between atoms: C_14  and  C_15
REMARK    9  A    between atoms: C_15  and  N_16
REMARK   10  A    between atoms: C_17  and  C_19
REMARK                            x       y       z     vdW  Elec       q    Type
REMARK                         _______ _______ _______ _____ _____    ______ ____
ROOT
ATOM      1  C   UNL     1      48.144   7.943  13.400  0.00  0.00    +0.000 A 
ATOM      2  C   UNL     1      47.673   8.718  14.465  0.00  0.00    +0.000 A 
ATOM      3  C   UNL     1      48.428   8.870  15.635  0.00  0.00    +0.000 A 
ATOM      4  C   UNL     1      49.667   8.230  15.776  0.00  0.00    +0.000 A 
ATOM      5  C   UNL     1      50.110   7.406  14.730  0.00  0.00    +0.000 A 
ATOM      6  C   UNL     1      49.367   7.275  13.550  0.00  0.00    +0.000 A 
ENDROOT
BRANCH   1   7
ATOM      7  C   UNL     1      47.346   7.853  12.121  0.00  0.00    +0.000 C 
BRANCH   7  11
ATOM      8  C   UNL     1      44.496   4.696  11.810  0.00  0.00    +0.000 A 
ATOM      9  C   UNL     1      45.646   4.467  12.561  0.00  0.00    +0.000 A 
ATOM     10  C   UNL     1      46.574   5.496  12.703  0.00  0.00    +0.000 A 
ATOM     11  C   UNL     1      46.353   6.721  12.071  0.00  0.00    +0.000 A 
ATOM     12  C   UNL     1      45.170   6.858  11.351  0.00  0.00    +0.000 A 
ATOM     13  N   UNL     1      44.242   5.884  11.207  0.00  0.00    +0.000 NA
BRANCH   8  14
ATOM     14  C   UNL     1      43.404   3.642  11.769  0.00  0.00    +0.000 C 
BRANCH  14  15
ATOM     15  N   UNL     1      43.739   2.508  10.889  0.00  0.00    +0.000 NA
ATOM     16  H   UNL     1      44.476   1.955  11.326  0.00  0.00    +0.000 HD
BRANCH  15  17
ATOM     17  C   UNL     1      44.198   2.994   9.585  0.00  0.00    +0.000 C 
BRANCH  17  19
ATOM     18  C   UNL     1      46.015   2.739   7.883  0.00  0.00    +0.000 C 
ATOM     19  C   UNL     1      45.314   2.093   9.066  0.00  0.00    +0.000 C 
ENDBRANCH  17  19
ENDBRANCH  15  17
ENDBRANCH  14  15
ENDBRANCH   8  14
ENDBRANCH   7  11
ENDBRANCH   1   7
BRANCH   4  20
ATOM     20  C   UNL     1      50.520   8.397  17.012  0.00  0.00    +0.000 C 
BRANCH  20  21
ATOM     21  N   UNL     1      51.267   7.204  17.318  0.00  0.00    +0.000 N 
ATOM     22  C   UNL     1      50.817   6.280  18.232  0.00  0.00    +0.000 C 
ATOM     23  O   UNL     1      49.753   6.396  18.828  0.00  0.00    +0.000 OA
ATOM     24  H   UNL     1      52.266   7.250  17.146  0.00  0.00    +0.000 HD
BRANCH  22  25
ATOM     25  C   UNL     1      51.677   5.099  18.403  0.00  0.00    +0.000 A 
ATOM     26  C   UNL     1      52.907   5.214  19.036  0.00  0.00    +0.000 A 
ATOM     27  S   UNL     1      53.740   3.730  19.180  0.00  0.00    +0.000 S 
ATOM     28  C   UNL     1      52.506   2.892  18.358  0.00  0.00    +0.000 A 
ATOM     29  N   UNL     1      52.610   1.561  18.104  0.00  0.00    +0.000 NA
ATOM     30  C   UNL     1      51.617   1.065  17.443  0.00  0.00    +0.000 A 
ATOM     31  N   UNL     1      50.524   1.777  17.023  0.00  0.00    +0.000 N 
ATOM     32  C   UNL     1      50.348   3.112  17.300  0.00  0.00    +0.000 A 
ATOM     33  O   UNL     1      49.326   3.700  16.976  0.00  0.00    +0.000 OA
ATOM     34  C   UNL     1      51.458   3.727  18.010  0.00  0.00    +0.000 A 
ATOM     35  H   UNL     1      49.768   1.325  16.529  0.00  0.00    +0.000 HD
ENDBRANCH  22  25
ENDBRANCH  20  21
ENDBRANCH   4  20
TORSDOF 9
ENDMDL
MODEL 6
REMARK VINA RESULT:    -6.299      5.406      8.379
REMARK INTER + INTRA:         -10.789
REMARK INTER:                  -9.548
REMARK INTRA:                  -1.241
REMARK UNBOUND:                -1.176
REMARK  Name = 
REMARK  10 active torsions:
REMARK  status: ('A' for Active; 'I' for Inactive)
REMARK    1  A    between atoms: C_1  and  C_2
REMARK    2  A    between atoms: C_2  and  C_3
REMARK    3  A    between atoms: C_3  and  N_4
REMARK    4  A    between atoms: N_4  and  C_5
REMARK    5  A    between atoms: C_5  and  C_6
REMARK    6  A    between atoms: C_9  and  C_10
REMARK    7  A    between atoms: C_10  and  C_11
REMARK    8  A    between atoms: C_14  and  C_15
REMARK    9  A    between atoms: C_15  and  N_16
REMARK   10  A    between atoms: C_17  and  C_19
REMARK                            x       y       z     vdW  Elec       q    Type
REMARK                         _______ _______ _______ _____ _____    ______ ____
ROOT
ATOM      1  C   UNL     1      50.660   8.807  11.379  0.00  0.00    +0.000 A 
ATOM      2  C   UNL     1      50.163   7.545  11.724  0.00  0.00    +0.000 A 
ATOM      3  C   UNL     1      48.801   7.355  11.989  0.00  0.00    +0.000 A 
ATOM      4  C   UNL     1      47.905   8.430  11.937  0.00  0.00    +0.000 A 
ATOM      5  C   UNL     1      48.415   9.706  11.648  0.00  0.00    +0.000 A 
ATOM      6  C   UNL     1      49.772   9.891  11.358  0.00  0.00    +0.000 A 
ENDROOT
BRANCH   1   7
ATOM      7  C   UNL     1      52.119   8.972  11.027  0.00  0.00    +0.000 C 
BRANCH   7  11
ATOM      8  C   UNL     1      53.727   5.802   8.672  0.00  0.00    +0.000 A 
ATOM      9  C   UNL     1      52.811   6.661   8.072  0.00  0.00    +0.000 A 
ATOM     10  C   UNL     1      52.298   7.723   8.814  0.00  0.00    +0.000 A 
ATOM     11  C   UNL     1      52.685   7.890  10.144  0.00  0.00    +0.000 A 
ATOM     12  C   UNL     1      53.615   6.986  10.651  0.00  0.00    +0.000 A 
ATOM     13  N   UNL     1      54.142   5.955   9.954  0.00  0.00    +0.000 NA
BRANCH   8  14
ATOM     14  C   UNL     1      54.410   4.733   7.838  0.00  0.00    +0.000 C 
BRANCH  14  15
ATOM     15  N   UNL     1      54.411   5.047   6.397  0.00  0.00    +0.000 NA
ATOM     16  H   UNL     1      53.541   5.526   6.162  0.00  0.00    +0.000 HD
BRANCH  15  17
ATOM     17  C   UNL     1      54.522   3.818   5.608  0.00  0.00    +0.000 C 
BRANCH  17  19
ATOM     18  C   UNL     1      54.858   1.414   6.216  0.00  0.00    +0.000 C 
ATOM     19  C   UNL     1      53.984   2.640   6.413  0.00  0.00    +0.000 C 
ENDBRANCH  17  19
ENDBRANCH  15  17
ENDBRANCH  14  15
ENDBRANCH   8  14
ENDBRANCH   7  11
ENDBRANCH   1   7
BRANCH   4  20
ATOM     20  C   UNL     1      46.424   8.255  12.189  0.00  0.00    +0.000 C 
BRANCH  20  21
ATOM     21  N   UNL     1      45.992   6.902  11.949  0.00  0.00    +0.000 N 
ATOM     22  C   UNL     1      44.716   6.612  11.526  0.00  0.00    +0.000 C 
ATOM     23  O   UNL     1      43.874   7.475  11.308  0.00  0.00    +0.000 OA
ATOM     24  H   UNL     1      46.500   6.180  12.448  0.00  0.00    +0.000 HD
BRANCH  22  25
ATOM     25  C   UNL     1      44.444   5.186  11.290  0.00  0.00    +0.000 A 
ATOM     26  C   UNL     1      43.679   4.460  12.193  0.00  0.00    +0.000 A 
ATOM     27  S   UNL     1      43.435   2.835  11.728  0.00  0.00    +0.000 S 
ATOM     28  C   UNL     1      44.384   3.034  10.328  0.00  0.00    +0.000 A 
ATOM     29  N   UNL     1      44.617   1.994   9.484  0.00  0.00    +0.000 NA
ATOM     30  C   UNL     1      45.382   2.281   8.483  0.00  0.00    +0.000 A 
ATOM     31  N   UNL     1      45.925   3.517   8.242  0.00  0.00    +0.000 N 
ATOM     32  C   UNL     1      45.676   4.611   9.035  0.00  0.00    +0.000 A 
ATOM     33  O   UNL     1      46.115   5.717   8.751  0.00  0.00    +0.000 OA
ATOM     34  C   UNL     1      44.851   4.331  10.200  0.00  0.00    +0.000 A 
ATOM     35  H   UNL     1      46.496   3.683   7.427  0.00  0.00    +0.000 HD
ENDBRANCH  22  25
ENDBRANCH  20  21
ENDBRANCH   4  20
TORSDOF 9
ENDMDL
MODEL 7
REMARK VINA RESULT:    -6.081      3.991      9.552
REMARK INTER + INTRA:         -10.457
REMARK INTER:                  -9.124
REMARK INTRA:                  -1.332
REMARK UNBOUND:                -1.176
REMARK  Name = 
REMARK  10 active torsions:
REMARK  status: ('A' for Active; 'I' for Inactive)
REMARK    1  A    between atoms: C_1  and  C_2
REMARK    2  A    between atoms: C_2  and  C_3
REMARK    3  A    between atoms: C_3  and  N_4
REMARK    4  A    between atoms: N_4  and  C_5
REMARK    5  A    between atoms: C_5  and  C_6
REMARK    6  A    between atoms: C_9  and  C_10
REMARK    7  A    between atoms: C_10  and  C_11
REMARK    8  A    between atoms: C_14  and  C_15
REMARK    9  A    between atoms: C_15  and  N_16
REMARK   10  A    between atoms: C_17  and  C_19
REMARK                            x       y       z     vdW  Elec       q    Type
REMARK                         _______ _______ _______ _____ _____    ______ ____
ROOT
ATOM      1  C   UNL     1      49.621   8.350  15.602  0.00  0.00    +0.000 A 
ATOM      2  C   UNL     1      49.793   9.320  14.607  0.00  0.00    +0.000 A 
ATOM      3  C   UNL     1      49.126   9.219  13.380  0.00  0.00    +0.000 A 
ATOM      4  C   UNL     1      48.285   8.131  13.110  0.00  0.00    +0.000 A 
ATOM      5  C   UNL     1      48.160   7.130  14.086  0.00  0.00    +0.000 A 
ATOM      6  C   UNL     1      48.808   7.244  15.322  0.00  0.00    +0.000 A 
ENDROOT
BRANCH   1   7
ATOM      7  C   UNL     1      50.294   8.519  16.943  0.00  0.00    +0.000 C 
BRANCH   7  11
ATOM      8  C   UNL     1      52.698   5.232  18.209  0.00  0.00    +0.000 A 
ATOM      9  C   UNL     1      51.545   5.515  18.935  0.00  0.00    +0.000 A 
ATOM     10  C   UNL     1      50.728   6.565  18.519  0.00  0.00    +0.000 A 
ATOM     11  C   UNL     1      51.090   7.327  17.408  0.00  0.00    +0.000 A 
ATOM     12  C   UNL     1      52.255   6.959  16.740  0.00  0.00    +0.000 A 
ATOM     13  N   UNL     1      53.062   5.938  17.109  0.00  0.00    +0.000 NA
BRANCH   8  14
ATOM     14  C   UNL     1      53.519   4.002  18.554  0.00  0.00    +0.000 C 
BRANCH  14  15
ATOM     15  N   UNL     1      52.683   2.834  18.886  0.00  0.00    +0.000 NA
ATOM     16  H   UNL     1      52.844   2.578  19.861  0.00  0.00    +0.000 HD
BRANCH  15  17
ATOM     17  C   UNL     1      53.022   1.702  18.021  0.00  0.00    +0.000 C 
BRANCH  17  19
ATOM     18  C   UNL     1      50.672   2.023  17.226  0.00  0.00    +0.000 C 
ATOM     19  C   UNL     1      51.746   1.004  17.564  0.00  0.00    +0.000 C 
ENDBRANCH  17  19
ENDBRANCH  15  17
ENDBRANCH  14  15
ENDBRANCH   8  14
ENDBRANCH   7  11
ENDBRANCH   1   7
BRANCH   4  20
ATOM     20  C   UNL     1      47.527   8.006  11.808  0.00  0.00    +0.000 C 
BRANCH  20  21
ATOM     21  N   UNL     1      46.801   6.766  11.721  0.00  0.00    +0.000 N 
ATOM     22  C   UNL     1      45.437   6.734  11.547  0.00  0.00    +0.000 C 
ATOM     23  O   UNL     1      44.755   7.746  11.436  0.00  0.00    +0.000 OA
ATOM     24  H   UNL     1      47.240   5.964  12.161  0.00  0.00    +0.000 HD
BRANCH  22  25
ATOM     25  C   UNL     1      44.851   5.389  11.440  0.00  0.00    +0.000 A 
ATOM     26  C   UNL     1      44.117   4.859  12.492  0.00  0.00    +0.000 A 
ATOM     27  S   UNL     1      43.480   3.308  12.166  0.00  0.00    +0.000 S 
ATOM     28  C   UNL     1      44.207   3.272  10.627  0.00  0.00    +0.000 A 
ATOM     29  N   UNL     1      44.086   2.185   9.819  0.00  0.00    +0.000 NA
ATOM     30  C   UNL     1      44.718   2.283   8.696  0.00  0.00    +0.000 A 
ATOM     31  N   UNL     1      45.449   3.374   8.302  0.00  0.00    +0.000 N 
ATOM     32  C   UNL     1      45.557   4.515   9.059  0.00  0.00    +0.000 A 
ATOM     33  O   UNL     1      46.155   5.499   8.646  0.00  0.00    +0.000 OA
ATOM     34  C   UNL     1      44.896   4.440  10.352  0.00  0.00    +0.000 A 
ATOM     35  H   UNL     1      45.900   3.397   7.399  0.00  0.00    +0.000 HD
ENDBRANCH  22  25
ENDBRANCH  20  21
ENDBRANCH   4  20
TORSDOF 9
ENDMDL
MODEL 8
REMARK VINA RESULT:    -6.040      5.451      9.122
REMARK INTER + INTRA:         -10.394
REMARK INTER:                  -9.156
REMARK INTRA:                  -1.238
REMARK UNBOUND:                -1.176
REMARK  Name = 
REMARK  10 active torsions:
REMARK  status: ('A' for Active; 'I' for Inactive)
REMARK    1  A    between atoms: C_1  and  C_2
REMARK    2  A    between atoms: C_2  and  C_3
REMARK    3  A    between atoms: C_3  and  N_4
REMARK    4  A    between atoms: N_4  and  C_5
REMARK    5  A    between atoms: C_5  and  C_6
REMARK    6  A    between atoms: C_9  and  C_10
REMARK    7  A    between atoms: C_10  and  C_11
REMARK    8  A    between atoms: C_14  and  C_15
REMARK    9  A    between atoms: C_15  and  N_16
REMARK   10  A    between atoms: C_17  and  C_19
REMARK                            x       y       z     vdW  Elec       q    Type
REMARK                         _______ _______ _______ _____ _____    ______ ____
ROOT
ATOM      1  C   UNL     1      50.023   4.907  17.616  0.00  0.00    +0.000 A 
ATOM      2  C   UNL     1      48.730   4.693  17.124  0.00  0.00    +0.000 A 
ATOM      3  C   UNL     1      48.215   5.480  16.087  0.00  0.00    +0.000 A 
ATOM      4  C   UNL     1      48.975   6.517  15.529  0.00  0.00    +0.000 A 
ATOM      5  C   UNL     1      50.249   6.768  16.064  0.00  0.00    +0.000 A 
ATOM      6  C   UNL     1      50.773   5.964  17.084  0.00  0.00    +0.000 A 
ENDROOT
BRANCH   1   7
ATOM      7  C   UNL     1      50.582   3.999  18.685  0.00  0.00    +0.000 C 
BRANCH   7  11
ATOM      8  C   UNL     1      53.679   1.426  17.279  0.00  0.00    +0.000 A 
ATOM      9  C   UNL     1      54.046   2.656  17.818  0.00  0.00    +0.000 A 
ATOM     10  C   UNL     1      53.052   3.498  18.313  0.00  0.00    +0.000 A 
ATOM     11  C   UNL     1      51.714   3.111  18.235  0.00  0.00    +0.000 A 
ATOM     12  C   UNL     1      51.448   1.858  17.690  0.00  0.00    +0.000 A 
ATOM     13  N   UNL     1      52.389   1.012  17.214  0.00  0.00    +0.000 NA
BRANCH   8  14
ATOM     14  C   UNL     1      54.754   0.434  16.875  0.00  0.00    +0.000 C 
BRANCH  14  15
ATOM     15  N   UNL     1      54.212  -0.905  16.576  0.00  0.00    +0.000 NA
ATOM     16  H   UNL     1      53.959  -1.362  17.452  0.00  0.00    +0.000 HD
BRANCH  15  17
ATOM     17  C   UNL     1      55.210  -1.713  15.871  0.00  0.00    +0.000 C 
BRANCH  17  19
ATOM     18  C   UNL     1      54.229  -3.709  14.724  0.00  0.00    +0.000 C 
ATOM     19  C   UNL     1      54.860  -3.191  16.005  0.00  0.00    +0.000 C 
ENDBRANCH  17  19
ENDBRANCH  15  17
ENDBRANCH  14  15
ENDBRANCH   8  14
ENDBRANCH   7  11
ENDBRANCH   1   7
BRANCH   4  20
ATOM     20  C   UNL     1      48.461   7.366  14.389  0.00  0.00    +0.000 C 
BRANCH  20  21
ATOM     21  N   UNL     1      47.209   6.878  13.873  0.00  0.00    +0.000 N 
ATOM     22  C   UNL     1      46.870   7.008  12.547  0.00  0.00    +0.000 C 
ATOM     23  O   UNL     1      47.609   7.526  11.718  0.00  0.00    +0.000 OA
ATOM     24  H   UNL     1      46.455   6.791  14.547  0.00  0.00    +0.000 HD
BRANCH  22  25
ATOM     25  C   UNL     1      45.573   6.423  12.172  0.00  0.00    +0.000 A 
ATOM     26  C   UNL     1      44.571   7.223  11.641  0.00  0.00    +0.000 A 
ATOM     27  S   UNL     1      43.157   6.360  11.226  0.00  0.00    +0.000 S 
ATOM     28  C   UNL     1      43.820   4.895  11.788  0.00  0.00    +0.000 A 
ATOM     29  N   UNL     1      43.100   3.741  11.757  0.00  0.00    +0.000 NA
ATOM     30  C   UNL     1      43.715   2.716  12.247  0.00  0.00    +0.000 A 
ATOM     31  N   UNL     1      44.989   2.737  12.754  0.00  0.00    +0.000 N 
ATOM     32  C   UNL     1      45.775   3.864  12.758  0.00  0.00    +0.000 A 
ATOM     33  O   UNL     1      46.933   3.831  13.148  0.00  0.00    +0.000 OA
ATOM     34  C   UNL     1      45.113   5.056  12.253  0.00  0.00    +0.000 A 
ATOM     35  H   UNL     1      45.423   1.894  13.101  0.00  0.00    +0.000 HD
ENDBRANCH  22  25
ENDBRANCH  20  21
ENDBRANCH   4  20
TORSDOF 9
ENDMDL
MODEL 9
REMARK VINA RESULT:    -5.888      5.623      8.537
REMARK INTER + INTRA:         -10.161
REMARK INTER:                  -9.063
REMARK INTRA:                  -1.098
REMARK UNBOUND:                -1.176
REMARK  Name = 
REMARK  10 active torsions:
REMARK  status: ('A' for Active; 'I' for Inactive)
REMARK    1  A    between atoms: C_1  and  C_2
REMARK    2  A    between atoms: C_2  and  C_3
REMARK    3  A    between atoms: C_3  and  N_4
REMARK    4  A    between atoms: N_4  and  C_5
REMARK    5  A    between atoms: C_5  and  C_6
REMARK    6  A    between atoms: C_9  and  C_10
REMARK    7  A    between atoms: C_10  and  C_11
REMARK    8  A    between atoms: C_14  and  C_15
REMARK    9  A    between atoms: C_15  and  N_16
REMARK   10  A    between atoms: C_17  and  C_19
REMARK                            x       y       z     vdW  Elec       q    Type
REMARK                         _______ _______ _______ _____ _____    ______ ____
ROOT
ATOM      1  C   UNL     1      50.479   8.586  12.282  0.00  0.00    +0.000 A 
ATOM      2  C   UNL     1      49.901   7.312  12.267  0.00  0.00    +0.000 A 
ATOM      3  C   UNL     1      48.538   7.136  12.536  0.00  0.00    +0.000 A 
ATOM      4  C   UNL     1      47.723   8.232  12.849  0.00  0.00    +0.000 A 
ATOM      5  C   UNL     1      48.316   9.502  12.921  0.00  0.00    +0.000 A 
ATOM      6  C   UNL     1      49.674   9.680  12.628  0.00  0.00    +0.000 A 
ENDROOT
BRANCH   1   7
ATOM      7  C   UNL     1      51.935   8.758  11.918  0.00  0.00    +0.000 C 
BRANCH   7  11
ATOM      8  C   UNL     1      52.930   8.390   7.788  0.00  0.00    +0.000 A 
ATOM      9  C   UNL     1      52.730   7.222   8.519  0.00  0.00    +0.000 A 
ATOM     10  C   UNL     1      52.372   7.320   9.862  0.00  0.00    +0.000 A 
ATOM     11  C   UNL     1      52.249   8.577  10.456  0.00  0.00    +0.000 A 
ATOM     12  C   UNL     1      52.457   9.686   9.641  0.00  0.00    +0.000 A 
ATOM     13  N   UNL     1      52.791   9.625   8.332  0.00  0.00    +0.000 NA
BRANCH   8  14
ATOM     14  C   UNL     1      53.171   8.307   6.292  0.00  0.00    +0.000 C 
BRANCH  14  15
ATOM     15  N   UNL     1      53.320   6.920   5.814  0.00  0.00    +0.000 NA
ATOM     16  H   UNL     1      53.328   6.291   6.618  0.00  0.00    +0.000 HD
BRANCH  15  17
ATOM     17  C   UNL     1      54.569   6.771   5.063  0.00  0.00    +0.000 C 
BRANCH  17  19
ATOM     18  C   UNL     1      54.122   7.493   2.710  0.00  0.00    +0.000 C 
ATOM     19  C   UNL     1      54.698   7.906   4.053  0.00  0.00    +0.000 C 
ENDBRANCH  17  19
ENDBRANCH  15  17
ENDBRANCH  14  15
ENDBRANCH   8  14
ENDBRANCH   7  11
ENDBRANCH   1   7
BRANCH   4  20
ATOM     20  C   UNL     1      46.242   8.081  13.115  0.00  0.00    +0.000 C 
BRANCH  20  21
ATOM     21  N   UNL     1      45.755   6.779  12.741  0.00  0.00    +0.000 N 
ATOM     22  C   UNL     1      44.932   6.596  11.655  0.00  0.00    +0.000 C 
ATOM     23  O   UNL     1      44.574   7.514  10.927  0.00  0.00    +0.000 OA
ATOM     24  H   UNL     1      45.716   6.090  13.485  0.00  0.00    +0.000 HD
BRANCH  22  25
ATOM     25  C   UNL     1      44.554   5.200  11.384  0.00  0.00    +0.000 A 
ATOM     26  C   UNL     1      43.784   4.493  12.298  0.00  0.00    +0.000 A 
ATOM     27  S   UNL     1      43.410   2.906  11.790  0.00  0.00    +0.000 S 
ATOM     28  C   UNL     1      44.305   3.094  10.354  0.00  0.00    +0.000 A 
ATOM     29  N   UNL     1      44.429   2.072   9.465  0.00  0.00    +0.000 NA
ATOM     30  C   UNL     1      45.165   2.345   8.439  0.00  0.00    +0.000 A 
ATOM     31  N   UNL     1      45.778   3.551   8.214  0.00  0.00    +0.000 N 
ATOM     32  C   UNL     1      45.640   4.629   9.055  0.00  0.00    +0.000 A 
ATOM     33  O   UNL     1      46.139   5.713   8.787  0.00  0.00    +0.000 OA
ATOM     34  C   UNL     1      44.852   4.361  10.248  0.00  0.00    +0.000 A 
ATOM     35  H   UNL     1      46.322   3.709   7.378  0.00  0.00    +0.000 HD
ENDBRANCH  22  25
ENDBRANCH  20  21
ENDBRANCH   4  20
TORSDOF 9
ENDMDL
