MODEL 1
REMARK VINA RESULT:    -7.594      0.000      0.000
REMARK INTER + INTRA:         -11.209
REMARK INTER:                 -10.702
REMARK INTRA:                  -0.507
REMARK UNBOUND:                -0.507
REMARK  Name = 
REMARK  9 active torsions:
REMARK  status: ('A' for Active; 'I' for Inactive)
REMARK    1  A    between atoms: C_1  and  C_2
REMARK    2  A    between atoms: C_2  and  C_3
REMARK    3  A    between atoms: C_2  and  N_4
REMARK    4  A    between atoms: N_4  and  C_5
REMARK    5  A    between atoms: C_8  and  C_9
REMARK    6  A    between atoms: C_13  and  S_14
REMARK    7  A    between atoms: S_14  and  C_15
REMARK    8  A    between atoms: C_15  and  C_16
REMARK    9  A    between atoms: C_16  and  C_17
REMARK                            x       y       z     vdW  Elec       q    Type
REMARK                         _______ _______ _______ _____ _____    ______ ____
ROOT
ATOM      1  C   UNL     1      45.389   6.841  11.851  0.00  0.00    +0.000 A 
ATOM      2  N   UNL     1      46.488   7.184  12.568  0.00  0.00    +0.000 NA
ATOM      3  C   UNL     1      46.951   6.280  13.464  0.00  0.00    +0.000 A 
ATOM      4  C   UNL     1      46.358   5.046  13.635  0.00  0.00    +0.000 A 
ATOM      5  N   UNL     1      45.263   4.657  12.934  0.00  0.00    +0.000 NA
ATOM      6  C   UNL     1      44.779   5.564  12.044  0.00  0.00    +0.000 A 
ENDROOT
BRANCH   4   7
ATOM      7  C   UNL     1      46.921   4.076  14.609  0.00  0.00    +0.000 C 
ATOM      8  N   UNL     1      46.782   4.405  15.932  0.00  0.00    +0.000 N 
ATOM      9  O   UNL     1      47.476   3.045  14.255  0.00  0.00    +0.000 OA
ATOM     10  H   UNL     1      46.324   5.267  16.203  0.00  0.00    +0.000 HD
ATOM     11  H   UNL     1      47.151   3.783  16.636  0.00  0.00    +0.000 HD
ENDBRANCH   4   7
BRANCH   1  12
ATOM     12  N   UNL     1      44.886   7.784  10.944  0.00  0.00    +0.000 N 
ATOM     13  H   UNL     1      44.367   7.320  10.204  0.00  0.00    +0.000 HD
BRANCH  12  15
ATOM     14  C   UNL     1      45.283  10.106  11.508  0.00  0.00    +0.000 C 
ATOM     15  C   UNL     1      44.237   8.988  11.480  0.00  0.00    +0.000 C 
ATOM     16  C   UNL     1      43.032   9.447  10.657  0.00  0.00    +0.000 C 
ENDBRANCH  12  15
ENDBRANCH   1  12
BRANCH   6  17
ATOM     17  S   UNL     1      43.345   4.997  11.105  0.00  0.00    +0.000 S 
BRANCH  17  18
ATOM     18  C   UNL     1      44.119   3.663  10.094  0.00  0.00    +0.000 C 
BRANCH  18  19
ATOM     19  C   UNL     1      44.645   4.157   8.742  0.00  0.00    +0.000 C 
BRANCH  19  20
ATOM     20  C   UNL     1      45.584   3.153   8.109  0.00  0.00    +0.000 A 
ATOM     21  C   UNL     1      46.405   3.492   7.028  0.00  0.00    +0.000 A 
ATOM     22  C   UNL     1      47.257   2.537   6.476  0.00  0.00    +0.000 A 
ATOM     23  C   UNL     1      47.274   1.269   7.033  0.00  0.00    +0.000 A 
ATOM     24  N   UNL     1      46.511   0.906   8.084  0.00  0.00    +0.000 NA
ATOM     25  C   UNL     1      45.686   1.852   8.597  0.00  0.00    +0.000 A 
ENDBRANCH  19  20
ENDBRANCH  18  19
ENDBRANCH  17  18
ENDBRANCH   6  17
TORSDOF 7
ENDMDL
MODEL 2
REMARK VINA RESULT:    -7.376      1.329      1.532
REMARK INTER + INTRA:         -10.901
REMARK INTER:                 -10.336
REMARK INTRA:                  -0.565
REMARK UNBOUND:                -0.507
REMARK  Name = 
REMARK  9 active torsions:
REMARK  status: ('A' for Active; 'I' for Inactive)
REMARK    1  A    between atoms: C_1  and  C_2
REMARK    2  A    between atoms: C_2  and  C_3
REMARK    3  A    between atoms: C_2  and  N_4
REMARK    4  A    between atoms: N_4  and  C_5
REMARK    5  A    between atoms: C_8  and  C_9
REMARK    6  A    between atoms: C_13  and  S_14
REMARK    7  A    between atoms: S_14  and  C_15
REMARK    8  A    between atoms: C_15  and  C_16
REMARK    9  A    between atoms: C_16  and  C_17
REMARK                            x       y       z     vdW  Elec       q    Type
REMARK                         _______ _______ _______ _____ _____    ______ ____
ROOT
ATOM      1  C   UNL     1      44.415   7.861  11.451  0.00  0.00    +0.000 A 
ATOM      2  N   UNL     1      45.415   8.646  11.928  0.00  0.00    +0.000 NA
ATOM      3  C   UNL     1      46.405   8.036  12.621  0.00  0.00    +0.000 A 
ATOM      4  C   UNL     1      46.428   6.671  12.821  0.00  0.00    +0.000 A 
ATOM      5  N   UNL     1      45.455   5.847  12.356  0.00  0.00    +0.000 NA
ATOM      6  C   UNL     1      44.446   6.451  11.673  0.00  0.00    +0.000 A 
ENDROOT
BRANCH   4   7
ATOM      7  C   UNL     1      47.552   6.045  13.562  0.00  0.00    +0.000 C 
ATOM      8  N   UNL     1      47.209   5.316  14.671  0.00  0.00    +0.000 N 
ATOM      9  O   UNL     1      48.716   6.169  13.208  0.00  0.00    +0.000 OA
ATOM     10  H   UNL     1      46.238   5.230  14.950  0.00  0.00    +0.000 HD
ATOM     11  H   UNL     1      47.934   4.873  15.215  0.00  0.00    +0.000 HD
ENDBRANCH   4   7
BRANCH   1  12
ATOM     12  N   UNL     1      43.371   8.490  10.760  0.00  0.00    +0.000 N 
ATOM     13  H   UNL     1      42.495   8.001  10.921  0.00  0.00    +0.000 HD
BRANCH  12  15
ATOM     14  C   UNL     1      43.720  10.515   9.478  0.00  0.00    +0.000 C 
ATOM     15  C   UNL     1      43.271   9.954  10.830  0.00  0.00    +0.000 C 
ATOM     16  C   UNL     1      41.859  10.454  11.138  0.00  0.00    +0.000 C 
ENDBRANCH  12  15
ENDBRANCH   1  12
BRANCH   6  17
ATOM     17  S   UNL     1      43.192   5.318  11.039  0.00  0.00    +0.000 S 
BRANCH  17  18
ATOM     18  C   UNL     1      44.266   4.028  10.278  0.00  0.00    +0.000 C 
BRANCH  18  19
ATOM     19  C   UNL     1      44.632   4.327   8.820  0.00  0.00    +0.000 C 
BRANCH  19  20
ATOM     20  C   UNL     1      45.527   3.255   8.238  0.00  0.00    +0.000 A 
ATOM     21  C   UNL     1      46.444   3.533   7.219  0.00  0.00    +0.000 A 
ATOM     22  C   UNL     1      47.250   2.516   6.713  0.00  0.00    +0.000 A 
ATOM     23  C   UNL     1      47.127   1.247   7.254  0.00  0.00    +0.000 A 
ATOM     24  N   UNL     1      46.269   0.940   8.248  0.00  0.00    +0.000 NA
ATOM     25  C   UNL     1      45.491   1.947   8.716  0.00  0.00    +0.000 A 
ENDBRANCH  19  20
ENDBRANCH  18  19
ENDBRANCH  17  18
ENDBRANCH   6  17
TORSDOF 7
ENDMDL
MODEL 3
REMARK VINA RESULT:    -7.223      1.056      1.443
REMARK INTER + INTRA:         -10.686
REMARK INTER:                 -10.045
REMARK INTRA:                  -0.642
REMARK UNBOUND:                -0.507
REMARK  Name = 
REMARK  9 active torsions:
REMARK  status: ('A' for Active; 'I' for Inactive)
REMARK    1  A    between atoms: C_1  and  C_2
REMARK    2  A    between atoms: C_2  and  C_3
REMARK    3  A    between atoms: C_2  and  N_4
REMARK    4  A    between atoms: N_4  and  C_5
REMARK    5  A    between atoms: C_8  and  C_9
REMARK    6  A    between atoms: C_13  and  S_14
REMARK    7  A    between atoms: S_14  and  C_15
REMARK    8  A    between atoms: C_15  and  C_16
REMARK    9  A    between atoms: C_16  and  C_17
REMARK                            x       y       z     vdW  Elec       q    Type
REMARK                         _______ _______ _______ _____ _____    ______ ____
ROOT
ATOM      1  C   UNL     1      45.555   6.627  12.160  0.00  0.00    +0.000 A 
ATOM      2  N   UNL     1      46.848   6.798  12.537  0.00  0.00    +0.000 NA
ATOM      3  C   UNL     1      47.330   5.971  13.495  0.00  0.00    +0.000 A 
ATOM      4  C   UNL     1      46.561   4.973  14.057  0.00  0.00    +0.000 A 
ATOM      5  N   UNL     1      45.268   4.760  13.705  0.00  0.00    +0.000 NA
ATOM      6  C   UNL     1      44.768   5.595  12.756  0.00  0.00    +0.000 A 
ENDROOT
BRANCH   4   7
ATOM      7  C   UNL     1      47.144   4.071  15.083  0.00  0.00    +0.000 C 
ATOM      8  N   UNL     1      47.112   4.530  16.373  0.00  0.00    +0.000 N 
ATOM      9  O   UNL     1      47.624   2.983  14.797  0.00  0.00    +0.000 OA
ATOM     10  H   UNL     1      46.714   5.438  16.588  0.00  0.00    +0.000 HD
ATOM     11  H   UNL     1      47.500   3.960  17.110  0.00  0.00    +0.000 HD
ENDBRANCH   4   7
BRANCH   1  12
ATOM     12  N   UNL     1      45.041   7.499  11.191  0.00  0.00    +0.000 N 
ATOM     13  H   UNL     1      44.451   6.992  10.537  0.00  0.00    +0.000 HD
BRANCH  12  15
ATOM     14  C   UNL     1      45.645   9.788  11.705  0.00  0.00    +0.000 C 
ATOM     15  C   UNL     1      44.489   8.786  11.635  0.00  0.00    +0.000 C 
ATOM     16  C   UNL     1      43.402   9.335  10.709  0.00  0.00    +0.000 C 
ENDBRANCH  12  15
ENDBRANCH   1  12
BRANCH   6  17
ATOM     17  S   UNL     1      43.057   5.257  12.289  0.00  0.00    +0.000 S 
BRANCH  17  18
ATOM     18  C   UNL     1      43.308   4.560  10.600  0.00  0.00    +0.000 C 
BRANCH  18  19
ATOM     19  C   UNL     1      44.187   3.304  10.588  0.00  0.00    +0.000 C 
BRANCH  19  20
ATOM     20  C   UNL     1      45.084   3.263   9.371  0.00  0.00    +0.000 A 
ATOM     21  C   UNL     1      45.528   2.055   8.823  0.00  0.00    +0.000 A 
ATOM     22  C   UNL     1      46.352   2.062   7.699  0.00  0.00    +0.000 A 
ATOM     23  C   UNL     1      46.698   3.284   7.144  0.00  0.00    +0.000 A 
ATOM     24  N   UNL     1      46.279   4.469   7.631  0.00  0.00    +0.000 NA
ATOM     25  C   UNL     1      45.485   4.433   8.729  0.00  0.00    +0.000 A 
ENDBRANCH  19  20
ENDBRANCH  18  19
ENDBRANCH  17  18
ENDBRANCH   6  17
TORSDOF 7
ENDMDL
MODEL 4
REMARK VINA RESULT:    -6.684      2.360      4.675
REMARK INTER + INTRA:          -9.927
REMARK INTER:                  -9.348
REMARK INTRA:                  -0.578
REMARK UNBOUND:                -0.507
REMARK  Name = 
REMARK  9 active torsions:
REMARK  status: ('A' for Active; 'I' for Inactive)
REMARK    1  A    between atoms: C_1  and  C_2
REMARK    2  A    between atoms: C_2  and  C_3
REMARK    3  A    between atoms: C_2  and  N_4
REMARK    4  A    between atoms: N_4  and  C_5
REMARK    5  A    between atoms: C_8  and  C_9
REMARK    6  A    between atoms: C_13  and  S_14
REMARK    7  A    between atoms: S_14  and  C_15
REMARK    8  A    between atoms: C_15  and  C_16
REMARK    9  A    between atoms: C_16  and  C_17
REMARK                            x       y       z     vdW  Elec       q    Type
REMARK                         _______ _______ _______ _____ _____    ______ ____
ROOT
ATOM      1  C   UNL     1      47.257   4.891  14.583  0.00  0.00    +0.000 A 
ATOM      2  N   UNL     1      48.220   5.738  15.028  0.00  0.00    +0.000 NA
ATOM      3  C   UNL     1      48.363   6.914  14.372  0.00  0.00    +0.000 A 
ATOM      4  C   UNL     1      47.555   7.265  13.310  0.00  0.00    +0.000 A 
ATOM      5  N   UNL     1      46.576   6.454  12.837  0.00  0.00    +0.000 NA
ATOM      6  C   UNL     1      46.434   5.263  13.477  0.00  0.00    +0.000 A 
ENDROOT
BRANCH   4   7
ATOM      7  C   UNL     1      47.731   8.579  12.642  0.00  0.00    +0.000 C 
ATOM      8  N   UNL     1      47.051   9.631  13.197  0.00  0.00    +0.000 N 
ATOM      9  O   UNL     1      48.441   8.719  11.655  0.00  0.00    +0.000 OA
ATOM     10  H   UNL     1      46.464   9.493  14.011  0.00  0.00    +0.000 HD
ATOM     11  H   UNL     1      47.131  10.547  12.779  0.00  0.00    +0.000 HD
ENDBRANCH   4   7
BRANCH   1  12
ATOM     12  N   UNL     1      47.124   3.659  15.238  0.00  0.00    +0.000 N 
ATOM     13  H   UNL     1      47.129   2.898  14.564  0.00  0.00    +0.000 HD
BRANCH  12  15
ATOM     14  C   UNL     1      46.983   3.231  17.618  0.00  0.00    +0.000 C 
ATOM     15  C   UNL     1      47.939   3.415  16.436  0.00  0.00    +0.000 C 
ATOM     16  C   UNL     1      48.839   2.184  16.320  0.00  0.00    +0.000 C 
ENDBRANCH  12  15
ENDBRANCH   1  12
BRANCH   6  17
ATOM     17  S   UNL     1      45.097   4.229  12.843  0.00  0.00    +0.000 S 
BRANCH  17  18
ATOM     18  C   UNL     1      44.934   4.909  11.137  0.00  0.00    +0.000 C 
BRANCH  18  19
ATOM     19  C   UNL     1      44.165   3.983  10.187  0.00  0.00    +0.000 C 
BRANCH  19  20
ATOM     20  C   UNL     1      45.080   3.357   9.158  0.00  0.00    +0.000 A 
ATOM     21  C   UNL     1      45.745   4.127   8.197  0.00  0.00    +0.000 A 
ATOM     22  C   UNL     1      46.580   3.510   7.268  0.00  0.00    +0.000 A 
ATOM     23  C   UNL     1      46.739   2.135   7.337  0.00  0.00    +0.000 A 
ATOM     24  N   UNL     1      46.130   1.359   8.256  0.00  0.00    +0.000 NA
ATOM     25  C   UNL     1      45.318   1.984   9.142  0.00  0.00    +0.000 A 
ENDBRANCH  19  20
ENDBRANCH  18  19
ENDBRANCH  17  18
ENDBRANCH   6  17
TORSDOF 7
ENDMDL
MODEL 5
REMARK VINA RESULT:    -6.475      2.237      3.418
REMARK INTER + INTRA:          -9.632
REMARK INTER:                  -9.470
REMARK INTRA:                  -0.162
REMARK UNBOUND:                -0.507
REMARK  Name = 
REMARK  9 active torsions:
REMARK  status: ('A' for Active; 'I' for Inactive)
REMARK    1  A    between atoms: C_1  and  C_2
REMARK    2  A    between atoms: C_2  and  C_3
REMARK    3  A    between atoms: C_2  and  N_4
REMARK    4  A    between atoms: N_4  and  C_5
REMARK    5  A    between atoms: C_8  and  C_9
REMARK    6  A    between atoms: C_13  and  S_14
REMARK    7  A    between atoms: S_14  and  C_15
REMARK    8  A    between atoms: C_15  and  C_16
REMARK    9  A    between atoms: C_16  and  C_17
REMARK                            x       y       z     vdW  Elec       q    Type
REMARK                         _______ _______ _______ _____ _____    ______ ____
ROOT
ATOM      1  C   UNL     1      46.039   4.636  12.954  0.00  0.00    +0.000 A 
ATOM      2  N   UNL     1      46.841   4.448  14.032  0.00  0.00    +0.000 NA
ATOM      3  C   UNL     1      47.577   5.505  14.449  0.00  0.00    +0.000 A 
ATOM      4  C   UNL     1      47.508   6.737  13.832  0.00  0.00    +0.000 A 
ATOM      5  N   UNL     1      46.714   6.973  12.757  0.00  0.00    +0.000 NA
ATOM      6  C   UNL     1      45.983   5.913  12.319  0.00  0.00    +0.000 A 
ENDROOT
BRANCH   4   7
ATOM      7  C   UNL     1      48.313   7.875  14.345  0.00  0.00    +0.000 C 
ATOM      8  N   UNL     1      47.603   8.947  14.818  0.00  0.00    +0.000 N 
ATOM      9  O   UNL     1      49.536   7.860  14.346  0.00  0.00    +0.000 OA
ATOM     10  H   UNL     1      46.590   8.941  14.803  0.00  0.00    +0.000 HD
ATOM     11  H   UNL     1      48.100   9.750  15.174  0.00  0.00    +0.000 HD
ENDBRANCH   4   7
BRANCH   1  12
ATOM     12  N   UNL     1      45.297   3.537  12.498  0.00  0.00    +0.000 N 
ATOM     13  H   UNL     1      45.521   2.709  13.044  0.00  0.00    +0.000 HD
BRANCH  12  15
ATOM     14  C   UNL     1      43.306   2.391  11.731  0.00  0.00    +0.000 C 
ATOM     15  C   UNL     1      43.863   3.724  12.238  0.00  0.00    +0.000 C 
ATOM     16  C   UNL     1      43.072   4.164  13.471  0.00  0.00    +0.000 C 
ENDBRANCH  12  15
ENDBRANCH   1  12
BRANCH   6  17
ATOM     17  S   UNL     1      44.913   6.276  10.911  0.00  0.00    +0.000 S 
BRANCH  17  18
ATOM     18  C   UNL     1      45.803   5.368   9.576  0.00  0.00    +0.000 C 
BRANCH  18  19
ATOM     19  C   UNL     1      44.927   4.336   8.857  0.00  0.00    +0.000 C 
BRANCH  19  20
ATOM     20  C   UNL     1      45.758   3.234   8.237  0.00  0.00    +0.000 A 
ATOM     21  C   UNL     1      46.729   3.502   7.266  0.00  0.00    +0.000 A 
ATOM     22  C   UNL     1      47.474   2.458   6.722  0.00  0.00    +0.000 A 
ATOM     23  C   UNL     1      47.236   1.171   7.177  0.00  0.00    +0.000 A 
ATOM     24  N   UNL     1      46.322   0.872   8.122  0.00  0.00    +0.000 NA
ATOM     25  C   UNL     1      45.606   1.906   8.629  0.00  0.00    +0.000 A 
ENDBRANCH  19  20
ENDBRANCH  18  19
ENDBRANCH  17  18
ENDBRANCH   6  17
TORSDOF 7
ENDMDL
MODEL 6
REMARK VINA RESULT:    -5.917      3.503      6.564
REMARK INTER + INTRA:          -8.846
REMARK INTER:                  -8.241
REMARK INTRA:                  -0.605
REMARK UNBOUND:                -0.507
REMARK  Name = 
REMARK  9 active torsions:
REMARK  status: ('A' for Active; 'I' for Inactive)
REMARK    1  A    between atoms: C_1  and  C_2
REMARK    2  A    between atoms: C_2  and  C_3
REMARK    3  A    between atoms: C_2  and  N_4
REMARK    4  A    between atoms: N_4  and  C_5
REMARK    5  A    between atoms: C_8  and  C_9
REMARK    6  A    between atoms: C_13  and  S_14
REMARK    7  A    between atoms: S_14  and  C_15
REMARK    8  A    between atoms: C_15  and  C_16
REMARK    9  A    between atoms: C_16  and  C_17
REMARK                            x       y       z     vdW  Elec       q    Type
REMARK                         _______ _______ _______ _____ _____    ______ ____
ROOT
ATOM      1  C   UNL     1      45.830   6.812  12.858  0.00  0.00    +0.000 A 
ATOM      2  N   UNL     1      44.813   6.894  11.964  0.00  0.00    +0.000 NA
ATOM      3  C   UNL     1      44.250   5.731  11.556  0.00  0.00    +0.000 A 
ATOM      4  C   UNL     1      44.663   4.507  12.039  0.00  0.00    +0.000 A 
ATOM      5  N   UNL     1      45.670   4.378  12.940  0.00  0.00    +0.000 NA
ATOM      6  C   UNL     1      46.254   5.538  13.343  0.00  0.00    +0.000 A 
ENDROOT
BRANCH   4   7
ATOM      7  C   UNL     1      43.994   3.261  11.585  0.00  0.00    +0.000 C 
ATOM      8  N   UNL     1      43.767   2.315  12.550  0.00  0.00    +0.000 N 
ATOM      9  O   UNL     1      43.664   3.087  10.420  0.00  0.00    +0.000 OA
ATOM     10  H   UNL     1      44.054   2.478  13.508  0.00  0.00    +0.000 HD
ATOM     11  H   UNL     1      43.320   1.447  12.294  0.00  0.00    +0.000 HD
ENDBRANCH   4   7
BRANCH   1  12
ATOM     12  N   UNL     1      46.438   8.009  13.260  0.00  0.00    +0.000 N 
ATOM     13  H   UNL     1      46.865   7.898  14.176  0.00  0.00    +0.000 HD
BRANCH  12  15
ATOM     14  C   UNL     1      46.611  10.091  12.035  0.00  0.00    +0.000 C 
ATOM     15  C   UNL     1      47.268   8.731  12.286  0.00  0.00    +0.000 C 
ATOM     16  C   UNL     1      48.708   8.946  12.755  0.00  0.00    +0.000 C 
ENDBRANCH  12  15
ENDBRANCH   1  12
BRANCH   6  17
ATOM     17  S   UNL     1      47.564   5.327  14.568  0.00  0.00    +0.000 S 
BRANCH  17  18
ATOM     18  C   UNL     1      46.838   3.984  15.601  0.00  0.00    +0.000 C 
BRANCH  18  19
ATOM     19  C   UNL     1      47.354   3.984  17.044  0.00  0.00    +0.000 C 
BRANCH  19  20
ATOM     20  C   UNL     1      48.745   3.397  17.138  0.00  0.00    +0.000 A 
ATOM     21  C   UNL     1      49.774   4.048  17.828  0.00  0.00    +0.000 A 
ATOM     22  C   UNL     1      51.041   3.471  17.892  0.00  0.00    +0.000 A 
ATOM     23  C   UNL     1      51.239   2.247  17.274  0.00  0.00    +0.000 A 
ATOM     24  N   UNL     1      50.272   1.579  16.615  0.00  0.00    +0.000 NA
ATOM     25  C   UNL     1      49.051   2.167  16.561  0.00  0.00    +0.000 A 
ENDBRANCH  19  20
ENDBRANCH  18  19
ENDBRANCH  17  18
ENDBRANCH   6  17
TORSDOF 7
ENDMDL
MODEL 7
REMARK VINA RESULT:    -5.815      4.042      6.571
REMARK INTER + INTRA:          -8.702
REMARK INTER:                  -8.003
REMARK INTRA:                  -0.698
REMARK UNBOUND:                -0.507
REMARK  Name = 
REMARK  9 active torsions:
REMARK  status: ('A' for Active; 'I' for Inactive)
REMARK    1  A    between atoms: C_1  and  C_2
REMARK    2  A    between atoms: C_2  and  C_3
REMARK    3  A    between atoms: C_2  and  N_4
REMARK    4  A    between atoms: N_4  and  C_5
REMARK    5  A    between atoms: C_8  and  C_9
REMARK    6  A    between atoms: C_13  and  S_14
REMARK    7  A    between atoms: S_14  and  C_15
REMARK    8  A    between atoms: C_15  and  C_16
REMARK    9  A    between atoms: C_16  and  C_17
REMARK                            x       y       z     vdW  Elec       q    Type
REMARK                         _______ _______ _______ _____ _____    ______ ____
ROOT
ATOM      1  C   UNL     1      48.057   6.050  18.100  0.00  0.00    +0.000 A 
ATOM      2  N   UNL     1      47.887   4.980  18.917  0.00  0.00    +0.000 NA
ATOM      3  C   UNL     1      48.429   3.804  18.521  0.00  0.00    +0.000 A 
ATOM      4  C   UNL     1      49.150   3.686  17.350  0.00  0.00    +0.000 A 
ATOM      5  N   UNL     1      49.352   4.730  16.507  0.00  0.00    +0.000 NA
ATOM      6  C   UNL     1      48.797   5.912  16.887  0.00  0.00    +0.000 A 
ENDROOT
BRANCH   4   7
ATOM      7  C   UNL     1      49.751   2.382  16.973  0.00  0.00    +0.000 C 
ATOM      8  N   UNL     1      50.732   1.910  17.805  0.00  0.00    +0.000 N 
ATOM      9  O   UNL     1      49.395   1.763  15.980  0.00  0.00    +0.000 OA
ATOM     10  H   UNL     1      51.016   2.441  18.619  0.00  0.00    +0.000 HD
ATOM     11  H   UNL     1      51.179   1.030  17.592  0.00  0.00    +0.000 HD
ENDBRANCH   4   7
BRANCH   1  12
ATOM     12  N   UNL     1      47.472   7.262  18.489  0.00  0.00    +0.000 N 
ATOM     13  H   UNL     1      46.462   7.220  18.378  0.00  0.00    +0.000 HD
BRANCH  12  15
ATOM     14  C   UNL     1      49.419   8.160  19.616  0.00  0.00    +0.000 C 
ATOM     15  C   UNL     1      47.919   7.880  19.745  0.00  0.00    +0.000 C 
ATOM     16  C   UNL     1      47.190   9.184  20.075  0.00  0.00    +0.000 C 
ENDBRANCH  12  15
ENDBRANCH   1  12
BRANCH   6  17
ATOM     17  S   UNL     1      49.119   7.284  15.758  0.00  0.00    +0.000 S 
BRANCH  17  18
ATOM     18  C   UNL     1      48.674   6.501  14.150  0.00  0.00    +0.000 C 
BRANCH  18  19
ATOM     19  C   UNL     1      47.261   6.856  13.674  0.00  0.00    +0.000 C 
BRANCH  19  20
ATOM     20  C   UNL     1      46.544   5.650  13.107  0.00  0.00    +0.000 A 
ATOM     21  C   UNL     1      45.779   5.730  11.938  0.00  0.00    +0.000 A 
ATOM     22  C   UNL     1      45.136   4.595  11.449  0.00  0.00    +0.000 A 
ATOM     23  C   UNL     1      45.291   3.403  12.137  0.00  0.00    +0.000 A 
ATOM     24  N   UNL     1      46.032   3.279  13.256  0.00  0.00    +0.000 NA
ATOM     25  C   UNL     1      46.640   4.401  13.715  0.00  0.00    +0.000 A 
ENDBRANCH  19  20
ENDBRANCH  18  19
ENDBRANCH  17  18
ENDBRANCH   6  17
TORSDOF 7
ENDMDL
MODEL 8
REMARK VINA RESULT:    -5.714      3.827      6.520
REMARK INTER + INTRA:          -8.559
REMARK INTER:                  -7.729
REMARK INTRA:                  -0.830
REMARK UNBOUND:                -0.507
REMARK  Name = 
REMARK  9 active torsions:
REMARK  status: ('A' for Active; 'I' for Inactive)
REMARK    1  A    between atoms: C_1  and  C_2
REMARK    2  A    between atoms: C_2  and  C_3
REMARK    3  A    between atoms: C_2  and  N_4
REMARK    4  A    between atoms: N_4  and  C_5
REMARK    5  A    between atoms: C_8  and  C_9
REMARK    6  A    between atoms: C_13  and  S_14
REMARK    7  A    between atoms: S_14  and  C_15
REMARK    8  A    between atoms: C_15  and  C_16
REMARK    9  A    between atoms: C_16  and  C_17
REMARK                            x       y       z     vdW  Elec       q    Type
REMARK                         _______ _______ _______ _____ _____    ______ ____
ROOT
ATOM      1  C   UNL     1      45.841   7.855  13.098  0.00  0.00    +0.000 A 
ATOM      2  N   UNL     1      44.817   7.038  12.744  0.00  0.00    +0.000 NA
ATOM      3  C   UNL     1      45.039   5.704  12.806  0.00  0.00    +0.000 A 
ATOM      4  C   UNL     1      46.241   5.178  13.234  0.00  0.00    +0.000 A 
ATOM      5  N   UNL     1      47.289   5.957  13.604  0.00  0.00    +0.000 NA
ATOM      6  C   UNL     1      47.083   7.299  13.530  0.00  0.00    +0.000 A 
ENDROOT
BRANCH   4   7
ATOM      7  C   UNL     1      46.426   3.707  13.314  0.00  0.00    +0.000 C 
ATOM      8  N   UNL     1      45.534   2.950  12.600  0.00  0.00    +0.000 N 
ATOM      9  O   UNL     1      47.320   3.198  13.975  0.00  0.00    +0.000 OA
ATOM     10  H   UNL     1      44.798   3.392  12.063  0.00  0.00    +0.000 HD
ATOM     11  H   UNL     1      45.611   1.944  12.623  0.00  0.00    +0.000 HD
ENDBRANCH   4   7
BRANCH   1  12
ATOM     12  N   UNL     1      45.629   9.237  13.006  0.00  0.00    +0.000 N 
ATOM     13  H   UNL     1      46.153   9.724  13.728  0.00  0.00    +0.000 HD
BRANCH  12  15
ATOM     14  C   UNL     1      44.333  10.514  11.407  0.00  0.00    +0.000 C 
ATOM     15  C   UNL     1      45.693   9.866  11.680  0.00  0.00    +0.000 C 
ATOM     16  C   UNL     1      46.789  10.927  11.562  0.00  0.00    +0.000 C 
ENDBRANCH  12  15
ENDBRANCH   1  12
BRANCH   6  17
ATOM     17  S   UNL     1      48.487   8.300  14.066  0.00  0.00    +0.000 S 
BRANCH  17  18
ATOM     18  C   UNL     1      49.484   7.025  14.949  0.00  0.00    +0.000 C 
BRANCH  18  19
ATOM     19  C   UNL     1      49.197   6.969  16.454  0.00  0.00    +0.000 C 
BRANCH  19  20
ATOM     20  C   UNL     1      49.094   5.542  16.948  0.00  0.00    +0.000 A 
ATOM     21  C   UNL     1      47.873   4.861  16.984  0.00  0.00    +0.000 A 
ATOM     22  C   UNL     1      47.822   3.548  17.445  0.00  0.00    +0.000 A 
ATOM     23  C   UNL     1      49.004   2.944  17.844  0.00  0.00    +0.000 A 
ATOM     24  N   UNL     1      50.203   3.558  17.809  0.00  0.00    +0.000 NA
ATOM     25  C   UNL     1      50.222   4.838  17.364  0.00  0.00    +0.000 A 
ENDBRANCH  19  20
ENDBRANCH  18  19
ENDBRANCH  17  18
ENDBRANCH   6  17
TORSDOF 7
ENDMDL
MODEL 9
REMARK VINA RESULT:    -5.621      3.554      7.058
REMARK INTER + INTRA:          -8.428
REMARK INTER:                  -7.833
REMARK INTRA:                  -0.595
REMARK UNBOUND:                -0.507
REMARK  Name = 
REMARK  9 active torsions:
REMARK  status: ('A' for Active; 'I' for Inactive)
REMARK    1  A    between atoms: C_1  and  C_2
REMARK    2  A    between atoms: C_2  and  C_3
REMARK    3  A    between atoms: C_2  and  N_4
REMARK    4  A    between atoms: N_4  and  C_5
REMARK    5  A    between atoms: C_8  and  C_9
REMARK    6  A    between atoms: C_13  and  S_14
REMARK    7  A    between atoms: S_14  and  C_15
REMARK    8  A    between atoms: C_15  and  C_16
REMARK    9  A    between atoms: C_16  and  C_17
REMARK                            x       y       z     vdW  Elec       q    Type
REMARK                         _______ _______ _______ _____ _____    ______ ____
ROOT
ATOM      1  C   UNL     1      46.030   5.397  12.550  0.00  0.00    +0.000 A 
ATOM      2  N   UNL     1      46.103   6.508  11.773  0.00  0.00    +0.000 NA
ATOM      3  C   UNL     1      47.231   7.253  11.860  0.00  0.00    +0.000 A 
ATOM      4  C   UNL     1      48.283   6.898  12.679  0.00  0.00    +0.000 A 
ATOM      5  N   UNL     1      48.257   5.793  13.466  0.00  0.00    +0.000 NA
ATOM      6  C   UNL     1      47.122   5.047  13.400  0.00  0.00    +0.000 A 
ENDROOT
BRANCH   4   7
ATOM      7  C   UNL     1      49.512   7.731  12.717  0.00  0.00    +0.000 C 
ATOM      8  N   UNL     1      50.388   7.462  13.736  0.00  0.00    +0.000 N 
ATOM      9  O   UNL     1      49.732   8.606  11.891  0.00  0.00    +0.000 OA
ATOM     10  H   UNL     1      50.184   6.737  14.413  0.00  0.00    +0.000 HD
ATOM     11  H   UNL     1      51.237   8.003  13.812  0.00  0.00    +0.000 HD
ENDBRANCH   4   7
BRANCH   1  12
ATOM     12  N   UNL     1      44.853   4.639  12.488  0.00  0.00    +0.000 N 
ATOM     13  H   UNL     1      44.401   4.614  13.397  0.00  0.00    +0.000 HD
BRANCH  12  15
ATOM     14  C   UNL     1      43.780   3.533  10.619  0.00  0.00    +0.000 C 
ATOM     15  C   UNL     1      43.938   4.864  11.360  0.00  0.00    +0.000 C 
ATOM     16  C   UNL     1      42.559   5.370  11.786  0.00  0.00    +0.000 C 
ENDBRANCH  12  15
ENDBRANCH   1  12
BRANCH   6  17
ATOM     17  S   UNL     1      47.141   3.567  14.433  0.00  0.00    +0.000 S 
BRANCH  17  18
ATOM     18  C   UNL     1      47.200   4.334  16.109  0.00  0.00    +0.000 C 
BRANCH  18  19
ATOM     19  C   UNL     1      47.512   3.329  17.224  0.00  0.00    +0.000 C 
BRANCH  19  20
ATOM     20  C   UNL     1      49.003   3.152  17.413  0.00  0.00    +0.000 A 
ATOM     21  C   UNL     1      49.670   2.004  16.973  0.00  0.00    +0.000 A 
ATOM     22  C   UNL     1      51.045   1.883  17.166  0.00  0.00    +0.000 A 
ATOM     23  C   UNL     1      51.718   2.924  17.783  0.00  0.00    +0.000 A 
ATOM     24  N   UNL     1      51.116   4.053  18.207  0.00  0.00    +0.000 NA
ATOM     25  C   UNL     1      49.777   4.142  18.014  0.00  0.00    +0.000 A 
ENDBRANCH  19  20
ENDBRANCH  18  19
ENDBRANCH  17  18
ENDBRANCH   6  17
TORSDOF 7
ENDMDL
