MODEL 1
REMARK VINA RESULT:    -8.305      0.000      0.000
REMARK INTER + INTRA:         -11.485
REMARK INTER:                 -10.732
REMARK INTRA:                  -0.753
REMARK UNBOUND:                -0.753
REMARK  Name = 
REMARK  5 active torsions:
REMARK  status: ('A' for Active; 'I' for Inactive)
REMARK    1  A    between atoms: C_2  and  C_3
REMARK    2  A    between atoms: C_6  and  N_7
REMARK    3  A    between atoms: N_7  and  C_8
REMARK    4  A    between atoms: C_8  and  C_9
REMARK    5  A    between atoms: C_14  and  C_15
REMARK                            x       y       z     vdW  Elec       q    Type
REMARK                         _______ _______ _______ _____ _____    ______ ____
ROOT
ATOM      1  C   UNL     1      44.843   4.903  11.972  0.00  0.00    +0.000 A 
ATOM      2  C   UNL     1      45.442   4.002  12.859  0.00  0.00    +0.000 A 
ATOM      3  C   UNL     1      46.626   4.341  13.495  0.00  0.00    +0.000 A 
ATOM      4  F   UNL     1      47.194   3.469  14.338  0.00  0.00    +0.000 F 
ATOM      5  C   UNL     1      47.242   5.568  13.265  0.00  0.00    +0.000 A 
ATOM      6  C   UNL     1      46.672   6.507  12.391  0.00  0.00    +0.000 A 
ATOM      7  C   UNL     1      45.462   6.147  11.755  0.00  0.00    +0.000 A 
ENDROOT
BRANCH   6   8
ATOM      8  C   UNL     1      47.308   7.828  12.153  0.00  0.00    +0.000 A 
ATOM      9  C   UNL     1      46.598   9.033  12.330  0.00  0.00    +0.000 A 
ATOM     10  C   UNL     1      47.185  10.279  12.073  0.00  0.00    +0.000 A 
ATOM     11  C   UNL     1      48.497  10.347  11.620  0.00  0.00    +0.000 A 
ATOM     12  C   UNL     1      49.215   9.173  11.452  0.00  0.00    +0.000 A 
ATOM     13  F   UNL     1      50.480   9.228  11.015  0.00  0.00    +0.000 F 
ATOM     14  C   UNL     1      48.643   7.931  11.723  0.00  0.00    +0.000 A 
ENDBRANCH   6   8
BRANCH   1  15
ATOM     15  C   UNL     1      43.587   4.511  11.226  0.00  0.00    +0.000 C 
BRANCH  15  16
ATOM     16  N   UNL     1      43.786   4.717   9.804  0.00  0.00    +0.000 N 
ATOM     17  H   UNL     1      43.840   5.695   9.527  0.00  0.00    +0.000 HD
BRANCH  16  21
ATOM     18  C   UNL     1      46.576   2.684   7.595  0.00  0.00    +0.000 A 
ATOM     19  C   UNL     1      46.476   4.065   7.580  0.00  0.00    +0.000 A 
ATOM     20  N   UNL     1      45.573   4.746   8.339  0.00  0.00    +0.000 NA
ATOM     21  C   UNL     1      44.750   4.010   9.114  0.00  0.00    +0.000 A 
ATOM     22  C   UNL     1      44.855   2.617   9.102  0.00  0.00    +0.000 A 
ATOM     23  N   UNL     1      45.766   1.923   8.367  0.00  0.00    +0.000 NA
BRANCH  18  25
ATOM     24  N   UNL     1      48.331   1.480   6.110  0.00  0.00    +0.000 NA
ATOM     25  C   UNL     1      47.544   2.001   6.788  0.00  0.00    +0.000 C 
ENDBRANCH  18  25
ENDBRANCH  16  21
ENDBRANCH  15  16
ENDBRANCH   1  15
TORSDOF 5
ENDMDL
MODEL 2
REMARK VINA RESULT:    -7.819      3.834      7.145
REMARK INTER + INTRA:         -10.858
REMARK INTER:                 -10.423
REMARK INTRA:                  -0.435
REMARK UNBOUND:                -0.753
REMARK  Name = 
REMARK  5 active torsions:
REMARK  status: ('A' for Active; 'I' for Inactive)
REMARK    1  A    between atoms: C_2  and  C_3
REMARK    2  A    between atoms: C_6  and  N_7
REMARK    3  A    between atoms: N_7  and  C_8
REMARK    4  A    between atoms: C_8  and  C_9
REMARK    5  A    between atoms: C_14  and  C_15
REMARK                            x       y       z     vdW  Elec       q    Type
REMARK                         _______ _______ _______ _____ _____    ______ ____
ROOT
ATOM      1  C   UNL     1      45.390   6.283  11.404  0.00  0.00    +0.000 A 
ATOM      2  C   UNL     1      44.030   6.177  11.713  0.00  0.00    +0.000 A 
ATOM      3  C   UNL     1      43.236   5.259  11.045  0.00  0.00    +0.000 A 
ATOM      4  F   UNL     1      41.934   5.170  11.346  0.00  0.00    +0.000 F 
ATOM      5  C   UNL     1      43.766   4.433  10.057  0.00  0.00    +0.000 A 
ATOM      6  C   UNL     1      45.127   4.496   9.719  0.00  0.00    +0.000 A 
ATOM      7  C   UNL     1      45.922   5.435  10.415  0.00  0.00    +0.000 A 
ENDROOT
BRANCH   6   8
ATOM      8  C   UNL     1      45.709   3.607   8.682  0.00  0.00    +0.000 A 
ATOM      9  C   UNL     1      46.238   4.121   7.480  0.00  0.00    +0.000 A 
ATOM     10  C   UNL     1      46.756   3.282   6.485  0.00  0.00    +0.000 A 
ATOM     11  C   UNL     1      46.747   1.904   6.666  0.00  0.00    +0.000 A 
ATOM     12  C   UNL     1      46.243   1.381   7.847  0.00  0.00    +0.000 A 
ATOM     13  F   UNL     1      46.230   0.055   8.030  0.00  0.00    +0.000 F 
ATOM     14  C   UNL     1      45.742   2.211   8.848  0.00  0.00    +0.000 A 
ENDBRANCH   6   8
BRANCH   1  15
ATOM     15  C   UNL     1      46.244   7.329  12.084  0.00  0.00    +0.000 C 
BRANCH  15  16
ATOM     16  N   UNL     1      47.461   6.711  12.577  0.00  0.00    +0.000 N 
ATOM     17  H   UNL     1      48.268   7.330  12.590  0.00  0.00    +0.000 HD
BRANCH  16  21
ATOM     18  C   UNL     1      47.632   4.465  16.001  0.00  0.00    +0.000 A 
ATOM     19  C   UNL     1      48.392   5.609  15.821  0.00  0.00    +0.000 A 
ATOM     20  N   UNL     1      48.311   6.376  14.699  0.00  0.00    +0.000 NA
ATOM     21  C   UNL     1      47.458   5.967  13.739  0.00  0.00    +0.000 A 
ATOM     22  C   UNL     1      46.713   4.800  13.932  0.00  0.00    +0.000 A 
ATOM     23  N   UNL     1      46.765   4.035  15.056  0.00  0.00    +0.000 NA
BRANCH  18  25
ATOM     24  N   UNL     1      47.839   3.083  18.188  0.00  0.00    +0.000 NA
ATOM     25  C   UNL     1      47.737   3.684  17.199  0.00  0.00    +0.000 C 
ENDBRANCH  18  25
ENDBRANCH  16  21
ENDBRANCH  15  16
ENDBRANCH   1  15
TORSDOF 5
ENDMDL
MODEL 3
REMARK VINA RESULT:    -7.561      2.418      4.289
REMARK INTER + INTRA:         -10.524
REMARK INTER:                 -10.000
REMARK INTRA:                  -0.524
REMARK UNBOUND:                -0.753
REMARK  Name = 
REMARK  5 active torsions:
REMARK  status: ('A' for Active; 'I' for Inactive)
REMARK    1  A    between atoms: C_2  and  C_3
REMARK    2  A    between atoms: C_6  and  N_7
REMARK    3  A    between atoms: N_7  and  C_8
REMARK    4  A    between atoms: C_8  and  C_9
REMARK    5  A    between atoms: C_14  and  C_15
REMARK                            x       y       z     vdW  Elec       q    Type
REMARK                         _______ _______ _______ _____ _____    ______ ____
ROOT
ATOM      1  C   UNL     1      45.340   4.426  12.311  0.00  0.00    +0.000 A 
ATOM      2  C   UNL     1      45.589   5.676  11.733  0.00  0.00    +0.000 A 
ATOM      3  C   UNL     1      46.454   6.565  12.351  0.00  0.00    +0.000 A 
ATOM      4  F   UNL     1      46.680   7.761  11.792  0.00  0.00    +0.000 F 
ATOM      5  C   UNL     1      47.084   6.242  13.549  0.00  0.00    +0.000 A 
ATOM      6  C   UNL     1      46.874   4.995  14.161  0.00  0.00    +0.000 A 
ATOM      7  C   UNL     1      45.992   4.099  13.514  0.00  0.00    +0.000 A 
ENDROOT
BRANCH   6   8
ATOM      8  C   UNL     1      47.556   4.630  15.428  0.00  0.00    +0.000 A 
ATOM      9  C   UNL     1      47.520   3.314  15.934  0.00  0.00    +0.000 A 
ATOM     10  C   UNL     1      48.134   2.974  17.147  0.00  0.00    +0.000 A 
ATOM     11  C   UNL     1      48.789   3.949  17.889  0.00  0.00    +0.000 A 
ATOM     12  C   UNL     1      48.845   5.246  17.402  0.00  0.00    +0.000 A 
ATOM     13  F   UNL     1      49.474   6.192  18.110  0.00  0.00    +0.000 F 
ATOM     14  C   UNL     1      48.252   5.587  16.187  0.00  0.00    +0.000 A 
ENDBRANCH   6   8
BRANCH   1  15
ATOM     15  C   UNL     1      44.347   3.480  11.674  0.00  0.00    +0.000 C 
BRANCH  15  16
ATOM     16  N   UNL     1      44.104   3.886  10.303  0.00  0.00    +0.000 N 
ATOM     17  H   UNL     1      43.916   4.880  10.189  0.00  0.00    +0.000 HD
BRANCH  16  21
ATOM     18  C   UNL     1      46.702   2.602   7.405  0.00  0.00    +0.000 A 
ATOM     19  C   UNL     1      46.099   1.736   8.302  0.00  0.00    +0.000 A 
ATOM     20  N   UNL     1      45.209   2.155   9.244  0.00  0.00    +0.000 NA
ATOM     21  C   UNL     1      44.939   3.476   9.284  0.00  0.00    +0.000 A 
ATOM     22  C   UNL     1      45.571   4.336   8.381  0.00  0.00    +0.000 A 
ATOM     23  N   UNL     1      46.445   3.930   7.420  0.00  0.00    +0.000 NA
BRANCH  18  25
ATOM     24  N   UNL     1      48.370   1.700   5.634  0.00  0.00    +0.000 NA
ATOM     25  C   UNL     1      47.629   2.125   6.421  0.00  0.00    +0.000 C 
ENDBRANCH  18  25
ENDBRANCH  16  21
ENDBRANCH  15  16
ENDBRANCH   1  15
TORSDOF 5
ENDMDL
MODEL 4
REMARK VINA RESULT:    -7.533      3.658      7.035
REMARK INTER + INTRA:         -10.488
REMARK INTER:                  -9.880
REMARK INTRA:                  -0.607
REMARK UNBOUND:                -0.753
REMARK  Name = 
REMARK  5 active torsions:
REMARK  status: ('A' for Active; 'I' for Inactive)
REMARK    1  A    between atoms: C_2  and  C_3
REMARK    2  A    between atoms: C_6  and  N_7
REMARK    3  A    between atoms: N_7  and  C_8
REMARK    4  A    between atoms: C_8  and  C_9
REMARK    5  A    between atoms: C_14  and  C_15
REMARK                            x       y       z     vdW  Elec       q    Type
REMARK                         _______ _______ _______ _____ _____    ______ ____
ROOT
ATOM      1  C   UNL     1      44.607   5.116  10.981  0.00  0.00    +0.000 A 
ATOM      2  C   UNL     1      43.769   4.265  11.708  0.00  0.00    +0.000 A 
ATOM      3  C   UNL     1      43.603   2.948  11.308  0.00  0.00    +0.000 A 
ATOM      4  F   UNL     1      42.793   2.144  12.009  0.00  0.00    +0.000 F 
ATOM      5  C   UNL     1      44.253   2.450  10.183  0.00  0.00    +0.000 A 
ATOM      6  C   UNL     1      45.113   3.264   9.428  0.00  0.00    +0.000 A 
ATOM      7  C   UNL     1      45.274   4.602   9.854  0.00  0.00    +0.000 A 
ENDROOT
BRANCH   6   8
ATOM      8  C   UNL     1      45.829   2.739   8.238  0.00  0.00    +0.000 A 
ATOM      9  C   UNL     1      46.370   1.437   8.216  0.00  0.00    +0.000 A 
ATOM     10  C   UNL     1      47.076   0.951   7.107  0.00  0.00    +0.000 A 
ATOM     11  C   UNL     1      47.267   1.764   5.997  0.00  0.00    +0.000 A 
ATOM     12  C   UNL     1      46.732   3.043   5.996  0.00  0.00    +0.000 A 
ATOM     13  F   UNL     1      46.912   3.834   4.930  0.00  0.00    +0.000 F 
ATOM     14  C   UNL     1      46.014   3.526   7.088  0.00  0.00    +0.000 A 
ENDBRANCH   6   8
BRANCH   1  15
ATOM     15  C   UNL     1      44.740   6.570  11.375  0.00  0.00    +0.000 C 
BRANCH  15  16
ATOM     16  N   UNL     1      46.144   6.931  11.422  0.00  0.00    +0.000 N 
ATOM     17  H   UNL     1      46.359   7.831  11.000  0.00  0.00    +0.000 HD
BRANCH  16  21
ATOM     18  C   UNL     1      48.445   6.638  14.802  0.00  0.00    +0.000 A 
ATOM     19  C   UNL     1      48.167   7.850  14.192  0.00  0.00    +0.000 A 
ATOM     20  N   UNL     1      47.374   7.954  13.089  0.00  0.00    +0.000 NA
ATOM     21  C   UNL     1      46.870   6.808  12.590  0.00  0.00    +0.000 A 
ATOM     22  C   UNL     1      47.176   5.593  13.209  0.00  0.00    +0.000 A 
ATOM     23  N   UNL     1      47.947   5.474  14.324  0.00  0.00    +0.000 NA
BRANCH  18  25
ATOM     24  N   UNL     1      49.935   6.473  16.920  0.00  0.00    +0.000 NA
ATOM     25  C   UNL     1      49.277   6.567  15.966  0.00  0.00    +0.000 C 
ENDBRANCH  18  25
ENDBRANCH  16  21
ENDBRANCH  15  16
ENDBRANCH   1  15
TORSDOF 5
ENDMDL
MODEL 5
REMARK VINA RESULT:    -7.260      2.203      3.130
REMARK INTER + INTRA:         -10.135
REMARK INTER:                  -9.445
REMARK INTRA:                  -0.690
REMARK UNBOUND:                -0.753
REMARK  Name = 
REMARK  5 active torsions:
REMARK  status: ('A' for Active; 'I' for Inactive)
REMARK    1  A    between atoms: C_2  and  C_3
REMARK    2  A    between atoms: C_6  and  N_7
REMARK    3  A    between atoms: N_7  and  C_8
REMARK    4  A    between atoms: C_8  and  C_9
REMARK    5  A    between atoms: C_14  and  C_15
REMARK                            x       y       z     vdW  Elec       q    Type
REMARK                         _______ _______ _______ _____ _____    ______ ____
ROOT
ATOM      1  C   UNL     1      45.091   5.436  11.845  0.00  0.00    +0.000 A 
ATOM      2  C   UNL     1      44.358   6.533  11.380  0.00  0.00    +0.000 A 
ATOM      3  C   UNL     1      44.829   7.820  11.588  0.00  0.00    +0.000 A 
ATOM      4  F   UNL     1      44.117   8.863  11.143  0.00  0.00    +0.000 F 
ATOM      5  C   UNL     1      46.025   8.048  12.263  0.00  0.00    +0.000 A 
ATOM      6  C   UNL     1      46.799   6.978  12.739  0.00  0.00    +0.000 A 
ATOM      7  C   UNL     1      46.306   5.673  12.513  0.00  0.00    +0.000 A 
ENDROOT
BRANCH   6   8
ATOM      8  C   UNL     1      48.087   7.208  13.442  0.00  0.00    +0.000 A 
ATOM      9  C   UNL     1      49.140   7.928  12.840  0.00  0.00    +0.000 A 
ATOM     10  C   UNL     1      50.368   8.116  13.488  0.00  0.00    +0.000 A 
ATOM     11  C   UNL     1      50.575   7.576  14.752  0.00  0.00    +0.000 A 
ATOM     12  C   UNL     1      49.547   6.876  15.364  0.00  0.00    +0.000 A 
ATOM     13  F   UNL     1      49.738   6.352  16.581  0.00  0.00    +0.000 F 
ATOM     14  C   UNL     1      48.317   6.700  14.733  0.00  0.00    +0.000 A 
ENDBRANCH   6   8
BRANCH   1  15
ATOM     15  C   UNL     1      44.548   4.035  11.677  0.00  0.00    +0.000 C 
BRANCH  15  16
ATOM     16  N   UNL     1      44.055   3.868  10.323  0.00  0.00    +0.000 N 
ATOM     17  H   UNL     1      43.490   4.644   9.985  0.00  0.00    +0.000 HD
BRANCH  16  21
ATOM     18  C   UNL     1      46.671   2.590   7.438  0.00  0.00    +0.000 A 
ATOM     19  C   UNL     1      46.057   1.722   8.325  0.00  0.00    +0.000 A 
ATOM     20  N   UNL     1      45.161   2.138   9.262  0.00  0.00    +0.000 NA
ATOM     21  C   UNL     1      44.897   3.460   9.308  0.00  0.00    +0.000 A 
ATOM     22  C   UNL     1      45.539   4.323   8.416  0.00  0.00    +0.000 A 
ATOM     23  N   UNL     1      46.420   3.919   7.460  0.00  0.00    +0.000 NA
BRANCH  18  25
ATOM     24  N   UNL     1      48.332   1.735   5.637  0.00  0.00    +0.000 NA
ATOM     25  C   UNL     1      47.604   2.115   6.459  0.00  0.00    +0.000 C 
ENDBRANCH  18  25
ENDBRANCH  16  21
ENDBRANCH  15  16
ENDBRANCH   1  15
TORSDOF 5
ENDMDL
MODEL 6
REMARK VINA RESULT:    -6.960      3.793      6.836
REMARK INTER + INTRA:          -9.747
REMARK INTER:                  -9.063
REMARK INTRA:                  -0.685
REMARK UNBOUND:                -0.753
REMARK  Name = 
REMARK  5 active torsions:
REMARK  status: ('A' for Active; 'I' for Inactive)
REMARK    1  A    between atoms: C_2  and  C_3
REMARK    2  A    between atoms: C_6  and  N_7
REMARK    3  A    between atoms: N_7  and  C_8
REMARK    4  A    between atoms: C_8  and  C_9
REMARK    5  A    between atoms: C_14  and  C_15
REMARK                            x       y       z     vdW  Elec       q    Type
REMARK                         _______ _______ _______ _____ _____    ______ ____
ROOT
ATOM      1  C   UNL     1      45.230   4.343  12.498  0.00  0.00    +0.000 A 
ATOM      2  C   UNL     1      43.912   4.809  12.462  0.00  0.00    +0.000 A 
ATOM      3  C   UNL     1      43.186   4.745  11.282  0.00  0.00    +0.000 A 
ATOM      4  F   UNL     1      41.926   5.199  11.259  0.00  0.00    +0.000 F 
ATOM      5  C   UNL     1      43.748   4.229  10.118  0.00  0.00    +0.000 A 
ATOM      6  C   UNL     1      45.064   3.741  10.109  0.00  0.00    +0.000 A 
ATOM      7  C   UNL     1      45.787   3.809  11.322  0.00  0.00    +0.000 A 
ENDROOT
BRANCH   6   8
ATOM      8  C   UNL     1      45.669   3.169   8.879  0.00  0.00    +0.000 A 
ATOM      9  C   UNL     1      45.988   3.976   7.768  0.00  0.00    +0.000 A 
ATOM     10  C   UNL     1      46.527   3.433   6.593  0.00  0.00    +0.000 A 
ATOM     11  C   UNL     1      46.748   2.064   6.500  0.00  0.00    +0.000 A 
ATOM     12  C   UNL     1      46.451   1.257   7.587  0.00  0.00    +0.000 A 
ATOM     13  F   UNL     1      46.661  -0.064   7.506  0.00  0.00    +0.000 F 
ATOM     14  C   UNL     1      45.932   1.792   8.764  0.00  0.00    +0.000 A 
ENDBRANCH   6   8
BRANCH   1  15
ATOM     15  C   UNL     1      46.046   4.471  13.765  0.00  0.00    +0.000 C 
BRANCH  15  16
ATOM     16  N   UNL     1      46.347   5.869  14.005  0.00  0.00    +0.000 N 
ATOM     17  H   UNL     1      46.254   6.156  14.977  0.00  0.00    +0.000 HD
BRANCH  16  21
ATOM     18  C   UNL     1      49.712   7.726  12.581  0.00  0.00    +0.000 A 
ATOM     19  C   UNL     1      49.623   7.232  13.871  0.00  0.00    +0.000 A 
ATOM     20  N   UNL     1      48.520   6.584  14.337  0.00  0.00    +0.000 NA
ATOM     21  C   UNL     1      47.485   6.450  13.482  0.00  0.00    +0.000 A 
ATOM     22  C   UNL     1      47.587   6.971  12.189  0.00  0.00    +0.000 A 
ATOM     23  N   UNL     1      48.691   7.601  11.703  0.00  0.00    +0.000 NA
BRANCH  18  25
ATOM     24  N   UNL     1      51.833   8.945  11.714  0.00  0.00    +0.000 NA
ATOM     25  C   UNL     1      50.893   8.397  12.122  0.00  0.00    +0.000 C 
ENDBRANCH  18  25
ENDBRANCH  16  21
ENDBRANCH  15  16
ENDBRANCH   1  15
TORSDOF 5
ENDMDL
MODEL 7
REMARK VINA RESULT:    -6.557      5.193      7.844
REMARK INTER + INTRA:          -9.228
REMARK INTER:                  -8.694
REMARK INTRA:                  -0.533
REMARK UNBOUND:                -0.753
REMARK  Name = 
REMARK  5 active torsions:
REMARK  status: ('A' for Active; 'I' for Inactive)
REMARK    1  A    between atoms: C_2  and  C_3
REMARK    2  A    between atoms: C_6  and  N_7
REMARK    3  A    between atoms: N_7  and  C_8
REMARK    4  A    between atoms: C_8  and  C_9
REMARK    5  A    between atoms: C_14  and  C_15
REMARK                            x       y       z     vdW  Elec       q    Type
REMARK                         _______ _______ _______ _____ _____    ______ ____
ROOT
ATOM      1  C   UNL     1      47.110   6.983  13.207  0.00  0.00    +0.000 A 
ATOM      2  C   UNL     1      46.405   8.189  13.133  0.00  0.00    +0.000 A 
ATOM      3  C   UNL     1      45.351   8.321  12.242  0.00  0.00    +0.000 A 
ATOM      4  F   UNL     1      44.686   9.482  12.175  0.00  0.00    +0.000 F 
ATOM      5  C   UNL     1      44.978   7.272  11.407  0.00  0.00    +0.000 A 
ATOM      6  C   UNL     1      45.650   6.040  11.453  0.00  0.00    +0.000 A 
ATOM      7  C   UNL     1      46.718   5.921  12.371  0.00  0.00    +0.000 A 
ENDROOT
BRANCH   6   8
ATOM      8  C   UNL     1      45.249   4.906  10.583  0.00  0.00    +0.000 A 
ATOM      9  C   UNL     1      44.523   3.808  11.087  0.00  0.00    +0.000 A 
ATOM     10  C   UNL     1      44.173   2.720  10.275  0.00  0.00    +0.000 A 
ATOM     11  C   UNL     1      44.553   2.703   8.938  0.00  0.00    +0.000 A 
ATOM     12  C   UNL     1      45.257   3.779   8.422  0.00  0.00    +0.000 A 
ATOM     13  F   UNL     1      45.628   3.771   7.136  0.00  0.00    +0.000 F 
ATOM     14  C   UNL     1      45.593   4.872   9.220  0.00  0.00    +0.000 A 
ENDBRANCH   6   8
BRANCH   1  15
ATOM     15  C   UNL     1      48.301   6.857  14.131  0.00  0.00    +0.000 C 
BRANCH  15  16
ATOM     16  N   UNL     1      47.907   6.143  15.331  0.00  0.00    +0.000 N 
ATOM     17  H   UNL     1      47.188   5.439  15.182  0.00  0.00    +0.000 HD
BRANCH  16  21
ATOM     18  C   UNL     1      50.832   4.584  17.742  0.00  0.00    +0.000 A 
ATOM     19  C   UNL     1      51.030   5.713  16.965  0.00  0.00    +0.000 A 
ATOM     20  N   UNL     1      50.050   6.253  16.190  0.00  0.00    +0.000 NA
ATOM     21  C   UNL     1      48.855   5.629  16.193  0.00  0.00    +0.000 A 
ATOM     22  C   UNL     1      48.679   4.481  16.971  0.00  0.00    +0.000 A 
ATOM     23  N   UNL     1      49.642   3.941  17.768  0.00  0.00    +0.000 NA
BRANCH  18  25
ATOM     24  N   UNL     1      52.757   3.599  19.177  0.00  0.00    +0.000 NA
ATOM     25  C   UNL     1      51.885   4.046  18.553  0.00  0.00    +0.000 C 
ENDBRANCH  18  25
ENDBRANCH  16  21
ENDBRANCH  15  16
ENDBRANCH   1  15
TORSDOF 5
ENDMDL
MODEL 8
REMARK VINA RESULT:    -5.951      4.662      7.899
REMARK INTER + INTRA:          -8.444
REMARK INTER:                  -7.775
REMARK INTRA:                  -0.669
REMARK UNBOUND:                -0.753
REMARK  Name = 
REMARK  5 active torsions:
REMARK  status: ('A' for Active; 'I' for Inactive)
REMARK    1  A    between atoms: C_2  and  C_3
REMARK    2  A    between atoms: C_6  and  N_7
REMARK    3  A    between atoms: N_7  and  C_8
REMARK    4  A    between atoms: C_8  and  C_9
REMARK    5  A    between atoms: C_14  and  C_15
REMARK                            x       y       z     vdW  Elec       q    Type
REMARK                         _______ _______ _______ _____ _____    ______ ____
ROOT
ATOM      1  C   UNL     1      46.653   8.168  13.005  0.00  0.00    +0.000 A 
ATOM      2  C   UNL     1      45.996   9.275  12.458  0.00  0.00    +0.000 A 
ATOM      3  C   UNL     1      44.891   9.091  11.641  0.00  0.00    +0.000 A 
ATOM      4  F   UNL     1      44.273  10.158  11.118  0.00  0.00    +0.000 F 
ATOM      5  C   UNL     1      44.418   7.816  11.346  0.00  0.00    +0.000 A 
ATOM      6  C   UNL     1      45.039   6.676  11.880  0.00  0.00    +0.000 A 
ATOM      7  C   UNL     1      46.161   6.882  12.715  0.00  0.00    +0.000 A 
ENDROOT
BRANCH   6   8
ATOM      8  C   UNL     1      44.532   5.311  11.590  0.00  0.00    +0.000 A 
ATOM      9  C   UNL     1      43.958   4.505  12.595  0.00  0.00    +0.000 A 
ATOM     10  C   UNL     1      43.510   3.204  12.331  0.00  0.00    +0.000 A 
ATOM     11  C   UNL     1      43.637   2.673  11.053  0.00  0.00    +0.000 A 
ATOM     12  C   UNL     1      44.188   3.455  10.049  0.00  0.00    +0.000 A 
ATOM     13  F   UNL     1      44.314   2.951   8.814  0.00  0.00    +0.000 F 
ATOM     14  C   UNL     1      44.619   4.756  10.301  0.00  0.00    +0.000 A 
ENDBRANCH   6   8
BRANCH   1  15
ATOM     15  C   UNL     1      47.897   8.361  13.842  0.00  0.00    +0.000 C 
BRANCH  15  16
ATOM     16  N   UNL     1      48.563   7.085  14.018  0.00  0.00    +0.000 N 
ATOM     17  H   UNL     1      49.456   7.009  13.536  0.00  0.00    +0.000 HD
BRANCH  16  21
ATOM     18  C   UNL     1      48.751   5.399  17.749  0.00  0.00    +0.000 A 
ATOM     19  C   UNL     1      48.129   4.776  16.681  0.00  0.00    +0.000 A 
ATOM     20  N   UNL     1      48.095   5.317  15.432  0.00  0.00    +0.000 NA
ATOM     21  C   UNL     1      48.690   6.517  15.270  0.00  0.00    +0.000 A 
ATOM     22  C   UNL     1      49.297   7.138  16.365  0.00  0.00    +0.000 A 
ATOM     23  N   UNL     1      49.359   6.600  17.613  0.00  0.00    +0.000 NA
BRANCH  18  25
ATOM     24  N   UNL     1      48.831   4.299  20.098  0.00  0.00    +0.000 NA
ATOM     25  C   UNL     1      48.774   4.797  19.050  0.00  0.00    +0.000 C 
ENDBRANCH  18  25
ENDBRANCH  16  21
ENDBRANCH  15  16
ENDBRANCH   1  15
TORSDOF 5
ENDMDL
MODEL 9
REMARK VINA RESULT:    -5.916      2.192      4.536
REMARK INTER + INTRA:          -8.399
REMARK INTER:                  -7.672
REMARK INTRA:                  -0.726
REMARK UNBOUND:                -0.753
REMARK  Name = 
REMARK  5 active torsions:
REMARK  status: ('A' for Active; 'I' for Inactive)
REMARK    1  A    between atoms: C_2  and  C_3
REMARK    2  A    between atoms: C_6  and  N_7
REMARK    3  A    between atoms: N_7  and  C_8
REMARK    4  A    between atoms: C_8  and  C_9
REMARK    5  A    between atoms: C_14  and  C_15
REMARK                            x       y       z     vdW  Elec       q    Type
REMARK                         _______ _______ _______ _____ _____    ______ ____
ROOT
ATOM      1  C   UNL     1      45.614   6.683  12.205  0.00  0.00    +0.000 A 
ATOM      2  C   UNL     1      46.617   7.140  11.345  0.00  0.00    +0.000 A 
ATOM      3  C   UNL     1      47.947   7.059  11.727  0.00  0.00    +0.000 A 
ATOM      4  F   UNL     1      48.900   7.504  10.897  0.00  0.00    +0.000 F 
ATOM      5  C   UNL     1      48.310   6.533  12.963  0.00  0.00    +0.000 A 
ATOM      6  C   UNL     1      47.339   6.053  13.856  0.00  0.00    +0.000 A 
ATOM      7  C   UNL     1      45.988   6.139  13.447  0.00  0.00    +0.000 A 
ENDROOT
BRANCH   6   8
ATOM      8  C   UNL     1      47.714   5.471  15.169  0.00  0.00    +0.000 A 
ATOM      9  C   UNL     1      48.655   6.095  16.013  0.00  0.00    +0.000 A 
ATOM     10  C   UNL     1      49.037   5.530  17.237  0.00  0.00    +0.000 A 
ATOM     11  C   UNL     1      48.492   4.317  17.641  0.00  0.00    +0.000 A 
ATOM     12  C   UNL     1      47.556   3.695  16.829  0.00  0.00    +0.000 A 
ATOM     13  F   UNL     1      47.025   2.525  17.210  0.00  0.00    +0.000 F 
ATOM     14  C   UNL     1      47.159   4.260  15.619  0.00  0.00    +0.000 A 
ENDBRANCH   6   8
BRANCH   1  15
ATOM     15  C   UNL     1      44.158   6.830  11.820  0.00  0.00    +0.000 C 
BRANCH  15  16
ATOM     16  N   UNL     1      43.540   5.519  11.763  0.00  0.00    +0.000 N 
ATOM     17  H   UNL     1      42.527   5.538  11.670  0.00  0.00    +0.000 HD
BRANCH  16  21
ATOM     18  C   UNL     1      45.192   2.620   9.382  0.00  0.00    +0.000 A 
ATOM     19  C   UNL     1      45.152   2.518  10.763  0.00  0.00    +0.000 A 
ATOM     20  N   UNL     1      44.573   3.462  11.554  0.00  0.00    +0.000 NA
ATOM     21  C   UNL     1      44.040   4.535  10.934  0.00  0.00    +0.000 A 
ATOM     22  C   UNL     1      44.105   4.628   9.541  0.00  0.00    +0.000 A 
ATOM     23  N   UNL     1      44.660   3.683   8.735  0.00  0.00    +0.000 NA
BRANCH  18  25
ATOM     24  N   UNL     1      46.262   0.763   7.920  0.00  0.00    +0.000 NA
ATOM     25  C   UNL     1      45.803   1.602   8.579  0.00  0.00    +0.000 C 
ENDBRANCH  18  25
ENDBRANCH  16  21
ENDBRANCH  15  16
ENDBRANCH   1  15
TORSDOF 5
ENDMDL
