MODEL 1
REMARK VINA RESULT:    -8.286      0.000      0.000
REMARK INTER + INTRA:         -10.700
REMARK INTER:                 -10.223
REMARK INTRA:                  -0.476
REMARK UNBOUND:                -0.476
REMARK  Name = 
REMARK  4 active torsions:
REMARK  status: ('A' for Active; 'I' for Inactive)
REMARK    1  A    between atoms: C_2  and  C_4
REMARK    2  A    between atoms: C_7  and  C_8
REMARK    3  A    between atoms: C_8  and  N_9
REMARK    4  A    between atoms: C_14  and  N_15
REMARK                            x       y       z     vdW  Elec       q    Type
REMARK                         _______ _______ _______ _____ _____    ______ ____
ROOT
ATOM      1  C   UNL     1      43.865   2.775  10.360  0.00  0.00    +0.000 C 
ENDROOT
BRANCH   1   2
ATOM      2  N   UNL     1      43.897   3.861  11.330  0.00  0.00    +0.000 N 
ATOM      3  C   UNL     1      43.154   5.016  11.193  0.00  0.00    +0.000 A 
ATOM      4  C   UNL     1      43.553   5.909  12.161  0.00  0.00    +0.000 A 
ATOM      5  C   UNL     1      44.718   5.370  12.760  0.00  0.00    +0.000 A 
ATOM      6  C   UNL     1      45.711   5.892  13.604  0.00  0.00    +0.000 A 
ATOM      7  C   UNL     1      46.779   5.045  13.909  0.00  0.00    +0.000 A 
ATOM      8  C   UNL     1      46.763   3.724  13.475  0.00  0.00    +0.000 A 
ATOM      9  N   UNL     1      45.829   3.183  12.648  0.00  0.00    +0.000 NA
ATOM     10  C   UNL     1      44.864   4.061  12.293  0.00  0.00    +0.000 A 
BRANCH   7  11
ATOM     11  N   UNL     1      47.959   5.572  14.578  0.00  0.00    +0.000 N 
ATOM     12  O   UNL     1      48.695   6.333  13.932  0.00  0.00    +0.000 OA
ATOM     13  O   UNL     1      48.180   5.200  15.739  0.00  0.00    +0.000 OA
ENDBRANCH   7  11
ENDBRANCH   1   2
BRANCH   1  17
ATOM     14  C   UNL     1      46.704   2.593   7.176  0.00  0.00    +0.000 A 
ATOM     15  C   UNL     1      46.129   3.822   7.493  0.00  0.00    +0.000 A 
ATOM     16  C   UNL     1      45.265   3.917   8.594  0.00  0.00    +0.000 A 
ATOM     17  C   UNL     1      44.984   2.775   9.345  0.00  0.00    +0.000 A 
ATOM     18  N   UNL     1      45.563   1.584   9.066  0.00  0.00    +0.000 NA
ATOM     19  C   UNL     1      46.405   1.519   7.996  0.00  0.00    +0.000 A 
BRANCH  14  21
ATOM     20  N   UNL     1      47.427   3.146   4.885  0.00  0.00    +0.000 N 
ATOM     21  C   UNL     1      47.566   2.338   5.981  0.00  0.00    +0.000 C 
ATOM     22  O   UNL     1      48.374   1.430   5.969  0.00  0.00    +0.000 OA
ATOM     23  H   UNL     1      48.018   2.931   4.089  0.00  0.00    +0.000 HD
ATOM     24  H   UNL     1      46.804   3.931   4.803  0.00  0.00    +0.000 HD
ENDBRANCH  14  21
ENDBRANCH   1  17
TORSDOF 4
ENDMDL
MODEL 2
REMARK VINA RESULT:    -8.162      1.486      1.889
REMARK INTER + INTRA:         -10.546
REMARK INTER:                 -10.045
REMARK INTRA:                  -0.501
REMARK UNBOUND:                -0.476
REMARK  Name = 
REMARK  4 active torsions:
REMARK  status: ('A' for Active; 'I' for Inactive)
REMARK    1  A    between atoms: C_2  and  C_4
REMARK    2  A    between atoms: C_7  and  C_8
REMARK    3  A    between atoms: C_8  and  N_9
REMARK    4  A    between atoms: C_14  and  N_15
REMARK                            x       y       z     vdW  Elec       q    Type
REMARK                         _______ _______ _______ _____ _____    ______ ____
ROOT
ATOM      1  C   UNL     1      43.786   4.767  10.212  0.00  0.00    +0.000 C 
ENDROOT
BRANCH   1   2
ATOM      2  N   UNL     1      44.580   5.565  11.137  0.00  0.00    +0.000 N 
ATOM      3  C   UNL     1      45.134   6.783  10.797  0.00  0.00    +0.000 A 
ATOM      4  C   UNL     1      45.973   7.179  11.813  0.00  0.00    +0.000 A 
ATOM      5  C   UNL     1      46.104   6.075  12.690  0.00  0.00    +0.000 A 
ATOM      6  C   UNL     1      46.983   5.761  13.738  0.00  0.00    +0.000 A 
ATOM      7  C   UNL     1      46.843   4.496  14.314  0.00  0.00    +0.000 A 
ATOM      8  C   UNL     1      45.800   3.666  13.918  0.00  0.00    +0.000 A 
ATOM      9  N   UNL     1      44.936   3.925  12.901  0.00  0.00    +0.000 NA
ATOM     10  C   UNL     1      45.165   5.115  12.301  0.00  0.00    +0.000 A 
BRANCH   7  11
ATOM     11  N   UNL     1      47.851   4.000  15.239  0.00  0.00    +0.000 N 
ATOM     12  O   UNL     1      48.468   4.834  15.918  0.00  0.00    +0.000 OA
ATOM     13  O   UNL     1      48.059   2.779  15.266  0.00  0.00    +0.000 OA
ENDBRANCH   7  11
ENDBRANCH   1   2
BRANCH   1  17
ATOM     14  C   UNL     1      46.405   2.454   7.759  0.00  0.00    +0.000 A 
ATOM     15  C   UNL     1      45.606   1.797   8.692  0.00  0.00    +0.000 A 
ATOM     16  C   UNL     1      44.675   2.531   9.441  0.00  0.00    +0.000 A 
ATOM     17  C   UNL     1      44.574   3.910   9.250  0.00  0.00    +0.000 A 
ATOM     18  N   UNL     1      45.322   4.551   8.321  0.00  0.00    +0.000 NA
ATOM     19  C   UNL     1      46.214   3.815   7.601  0.00  0.00    +0.000 A 
BRANCH  14  21
ATOM     20  N   UNL     1      48.484   2.596   6.441  0.00  0.00    +0.000 N 
ATOM     21  C   UNL     1      47.495   1.807   6.964  0.00  0.00    +0.000 C 
ATOM     22  O   UNL     1      47.509   0.608   6.773  0.00  0.00    +0.000 OA
ATOM     23  H   UNL     1      49.196   2.124   5.895  0.00  0.00    +0.000 HD
ATOM     24  H   UNL     1      48.572   3.592   6.557  0.00  0.00    +0.000 HD
ENDBRANCH  14  21
ENDBRANCH   1  17
TORSDOF 4
ENDMDL
MODEL 3
REMARK VINA RESULT:    -7.796      1.093      1.556
REMARK INTER + INTRA:         -10.095
REMARK INTER:                  -9.832
REMARK INTRA:                  -0.263
REMARK UNBOUND:                -0.476
REMARK  Name = 
REMARK  4 active torsions:
REMARK  status: ('A' for Active; 'I' for Inactive)
REMARK    1  A    between atoms: C_2  and  C_4
REMARK    2  A    between atoms: C_7  and  C_8
REMARK    3  A    between atoms: C_8  and  N_9
REMARK    4  A    between atoms: C_14  and  N_15
REMARK                            x       y       z     vdW  Elec       q    Type
REMARK                         _______ _______ _______ _____ _____    ______ ____
ROOT
ATOM      1  C   UNL     1      43.768   3.408  10.901  0.00  0.00    +0.000 C 
ENDROOT
BRANCH   1   2
ATOM      2  N   UNL     1      44.039   4.718  11.476  0.00  0.00    +0.000 N 
ATOM      3  C   UNL     1      43.482   5.885  10.989  0.00  0.00    +0.000 A 
ATOM      4  C   UNL     1      44.084   6.951  11.618  0.00  0.00    +0.000 A 
ATOM      5  C   UNL     1      45.184   6.431  12.343  0.00  0.00    +0.000 A 
ATOM      6  C   UNL     1      46.302   7.009  12.964  0.00  0.00    +0.000 A 
ATOM      7  C   UNL     1      47.238   6.128  13.509  0.00  0.00    +0.000 A 
ATOM      8  C   UNL     1      46.983   4.760  13.517  0.00  0.00    +0.000 A 
ATOM      9  N   UNL     1      45.920   4.160  12.916  0.00  0.00    +0.000 NA
ATOM     10  C   UNL     1      45.087   5.037  12.313  0.00  0.00    +0.000 A 
BRANCH   7  11
ATOM     11  N   UNL     1      48.530   6.623  13.962  0.00  0.00    +0.000 N 
ATOM     12  O   UNL     1      48.995   6.143  15.006  0.00  0.00    +0.000 OA
ATOM     13  O   UNL     1      49.070   7.520  13.300  0.00  0.00    +0.000 OA
ENDBRANCH   7  11
ENDBRANCH   1   2
BRANCH   1  17
ATOM     14  C   UNL     1      46.354   2.561   7.610  0.00  0.00    +0.000 A 
ATOM     15  C   UNL     1      45.804   1.498   8.322  0.00  0.00    +0.000 A 
ATOM     16  C   UNL     1      44.882   1.756   9.347  0.00  0.00    +0.000 A 
ATOM     17  C   UNL     1      44.540   3.076   9.646  0.00  0.00    +0.000 A 
ATOM     18  N   UNL     1      45.043   4.114   8.937  0.00  0.00    +0.000 NA
ATOM     19  C   UNL     1      45.931   3.837   7.942  0.00  0.00    +0.000 A 
BRANCH  14  21
ATOM     20  N   UNL     1      47.362   3.256   5.470  0.00  0.00    +0.000 N 
ATOM     21  C   UNL     1      47.411   2.429   6.560  0.00  0.00    +0.000 C 
ATOM     22  O   UNL     1      48.297   1.605   6.658  0.00  0.00    +0.000 OA
ATOM     23  H   UNL     1      48.086   3.125   4.772  0.00  0.00    +0.000 HD
ATOM     24  H   UNL     1      46.682   3.980   5.305  0.00  0.00    +0.000 HD
ENDBRANCH  14  21
ENDBRANCH   1  17
TORSDOF 4
ENDMDL
MODEL 4
REMARK VINA RESULT:    -7.764      1.905      6.925
REMARK INTER + INTRA:         -10.056
REMARK INTER:                  -9.774
REMARK INTRA:                  -0.283
REMARK UNBOUND:                -0.476
REMARK  Name = 
REMARK  4 active torsions:
REMARK  status: ('A' for Active; 'I' for Inactive)
REMARK    1  A    between atoms: C_2  and  C_4
REMARK    2  A    between atoms: C_7  and  C_8
REMARK    3  A    between atoms: C_8  and  N_9
REMARK    4  A    between atoms: C_14  and  N_15
REMARK                            x       y       z     vdW  Elec       q    Type
REMARK                         _______ _______ _______ _____ _____    ______ ____
ROOT
ATOM      1  C   UNL     1      44.640   6.048  10.843  0.00  0.00    +0.000 C 
ENDROOT
BRANCH   1   2
ATOM      2  N   UNL     1      44.388   4.681  10.411  0.00  0.00    +0.000 N 
ATOM      3  C   UNL     1      43.748   3.747  11.202  0.00  0.00    +0.000 A 
ATOM      4  C   UNL     1      43.841   2.518  10.588  0.00  0.00    +0.000 A 
ATOM      5  C   UNL     1      44.748   2.667   9.511  0.00  0.00    +0.000 A 
ATOM      6  C   UNL     1      45.436   1.765   8.685  0.00  0.00    +0.000 A 
ATOM      7  C   UNL     1      46.338   2.316   7.772  0.00  0.00    +0.000 A 
ATOM      8  C   UNL     1      46.433   3.698   7.639  0.00  0.00    +0.000 A 
ATOM      9  N   UNL     1      45.795   4.605   8.426  0.00  0.00    +0.000 NA
ATOM     10  C   UNL     1      45.007   4.032   9.364  0.00  0.00    +0.000 A 
BRANCH   7  11
ATOM     11  N   UNL     1      47.259   1.455   7.044  0.00  0.00    +0.000 N 
ATOM     12  O   UNL     1      46.989   0.246   6.985  0.00  0.00    +0.000 OA
ATOM     13  O   UNL     1      48.274   1.973   6.561  0.00  0.00    +0.000 OA
ENDBRANCH   7  11
ENDBRANCH   1   2
BRANCH   1  17
ATOM     14  C   UNL     1      47.693   6.771  13.740  0.00  0.00    +0.000 A 
ATOM     15  C   UNL     1      47.182   5.482  13.611  0.00  0.00    +0.000 A 
ATOM     16  C   UNL     1      46.245   5.207  12.604  0.00  0.00    +0.000 A 
ATOM     17  C   UNL     1      45.830   6.234  11.755  0.00  0.00    +0.000 A 
ATOM     18  N   UNL     1      46.346   7.482  11.851  0.00  0.00    +0.000 NA
ATOM     19  C   UNL     1      47.260   7.722  12.832  0.00  0.00    +0.000 A 
BRANCH  14  21
ATOM     20  N   UNL     1      48.276   8.299  15.586  0.00  0.00    +0.000 N 
ATOM     21  C   UNL     1      48.623   7.216  14.823  0.00  0.00    +0.000 C 
ATOM     22  O   UNL     1      49.673   6.641  15.028  0.00  0.00    +0.000 OA
ATOM     23  H   UNL     1      48.939   8.580  16.299  0.00  0.00    +0.000 HD
ATOM     24  H   UNL     1      47.424   8.829  15.507  0.00  0.00    +0.000 HD
ENDBRANCH  14  21
ENDBRANCH   1  17
TORSDOF 4
ENDMDL
MODEL 5
REMARK VINA RESULT:    -7.343      2.024      2.658
REMARK INTER + INTRA:          -9.536
REMARK INTER:                  -9.028
REMARK INTRA:                  -0.509
REMARK UNBOUND:                -0.476
REMARK  Name = 
REMARK  4 active torsions:
REMARK  status: ('A' for Active; 'I' for Inactive)
REMARK    1  A    between atoms: C_2  and  C_4
REMARK    2  A    between atoms: C_7  and  C_8
REMARK    3  A    between atoms: C_8  and  N_9
REMARK    4  A    between atoms: C_14  and  N_15
REMARK                            x       y       z     vdW  Elec       q    Type
REMARK                         _______ _______ _______ _____ _____    ______ ____
ROOT
ATOM      1  C   UNL     1      44.648   4.927  10.719  0.00  0.00    +0.000 C 
ENDROOT
BRANCH   1   2
ATOM      2  N   UNL     1      45.518   4.890  11.886  0.00  0.00    +0.000 N 
ATOM      3  C   UNL     1      45.214   4.179  13.030  0.00  0.00    +0.000 A 
ATOM      4  C   UNL     1      46.132   4.505  14.003  0.00  0.00    +0.000 A 
ATOM      5  C   UNL     1      46.878   5.603  13.510  0.00  0.00    +0.000 A 
ATOM      6  C   UNL     1      47.759   6.525  14.097  0.00  0.00    +0.000 A 
ATOM      7  C   UNL     1      48.232   7.548  13.273  0.00  0.00    +0.000 A 
ATOM      8  C   UNL     1      47.916   7.551  11.918  0.00  0.00    +0.000 A 
ATOM      9  N   UNL     1      47.059   6.685  11.313  0.00  0.00    +0.000 NA
ATOM     10  C   UNL     1      46.542   5.770  12.163  0.00  0.00    +0.000 A 
BRANCH   7  11
ATOM     11  N   UNL     1      48.956   8.672  13.848  0.00  0.00    +0.000 N 
ATOM     12  O   UNL     1      50.184   8.713  13.676  0.00  0.00    +0.000 OA
ATOM     13  O   UNL     1      48.312   9.500  14.505  0.00  0.00    +0.000 OA
ENDBRANCH   7  11
ENDBRANCH   1   2
BRANCH   1  17
ATOM     14  C   UNL     1      46.519   2.845   7.494  0.00  0.00    +0.000 A 
ATOM     15  C   UNL     1      45.806   2.113   8.441  0.00  0.00    +0.000 A 
ATOM     16  C   UNL     1      45.110   2.788   9.454  0.00  0.00    +0.000 A 
ATOM     17  C   UNL     1      45.154   4.182   9.505  0.00  0.00    +0.000 A 
ATOM     18  N   UNL     1      45.816   4.903   8.570  0.00  0.00    +0.000 NA
ATOM     19  C   UNL     1      46.479   4.225   7.592  0.00  0.00    +0.000 A 
BRANCH  14  21
ATOM     20  N   UNL     1      47.357   2.815   5.176  0.00  0.00    +0.000 N 
ATOM     21  C   UNL     1      47.374   2.248   6.422  0.00  0.00    +0.000 C 
ATOM     22  O   UNL     1      48.070   1.277   6.638  0.00  0.00    +0.000 OA
ATOM     23  H   UNL     1      47.937   2.373   4.471  0.00  0.00    +0.000 HD
ATOM     24  H   UNL     1      46.832   3.629   4.902  0.00  0.00    +0.000 HD
ENDBRANCH  14  21
ENDBRANCH   1  17
TORSDOF 4
ENDMDL
MODEL 6
REMARK VINA RESULT:    -6.797      4.139      7.873
REMARK INTER + INTRA:          -8.863
REMARK INTER:                  -8.404
REMARK INTRA:                  -0.458
REMARK UNBOUND:                -0.476
REMARK  Name = 
REMARK  4 active torsions:
REMARK  status: ('A' for Active; 'I' for Inactive)
REMARK    1  A    between atoms: C_2  and  C_4
REMARK    2  A    between atoms: C_7  and  C_8
REMARK    3  A    between atoms: C_8  and  N_9
REMARK    4  A    between atoms: C_14  and  N_15
REMARK                            x       y       z     vdW  Elec       q    Type
REMARK                         _______ _______ _______ _____ _____    ______ ____
ROOT
ATOM      1  C   UNL     1      47.212   4.534  16.283  0.00  0.00    +0.000 C 
ENDROOT
BRANCH   1   2
ATOM      2  N   UNL     1      47.430   5.094  14.956  0.00  0.00    +0.000 N 
ATOM      3  C   UNL     1      48.126   6.267  14.739  0.00  0.00    +0.000 A 
ATOM      4  C   UNL     1      47.987   6.617  13.415  0.00  0.00    +0.000 A 
ATOM      5  C   UNL     1      47.003   5.760  12.866  0.00  0.00    +0.000 A 
ATOM      6  C   UNL     1      46.254   5.770  11.678  0.00  0.00    +0.000 A 
ATOM      7  C   UNL     1      45.288   4.771  11.541  0.00  0.00    +0.000 A 
ATOM      8  C   UNL     1      45.185   3.768  12.500  0.00  0.00    +0.000 A 
ATOM      9  N   UNL     1      45.880   3.729  13.668  0.00  0.00    +0.000 NA
ATOM     10  C   UNL     1      46.734   4.767  13.812  0.00  0.00    +0.000 A 
BRANCH   7  11
ATOM     11  N   UNL     1      44.315   4.840  10.460  0.00  0.00    +0.000 N 
ATOM     12  O   UNL     1      44.703   4.549   9.319  0.00  0.00    +0.000 OA
ATOM     13  O   UNL     1      43.170   5.221  10.737  0.00  0.00    +0.000 OA
ENDBRANCH   7  11
ENDBRANCH   1   2
BRANCH   1  17
ATOM     14  C   UNL     1      50.688   2.352  17.459  0.00  0.00    +0.000 A 
ATOM     15  C   UNL     1      50.451   3.597  18.037  0.00  0.00    +0.000 A 
ATOM     16  C   UNL     1      49.268   4.286  17.731  0.00  0.00    +0.000 A 
ATOM     17  C   UNL     1      48.354   3.718  16.841  0.00  0.00    +0.000 A 
ATOM     18  N   UNL     1      48.561   2.494  16.301  0.00  0.00    +0.000 NA
ATOM     19  C   UNL     1      49.714   1.841  16.620  0.00  0.00    +0.000 A 
BRANCH  14  21
ATOM     20  N   UNL     1      51.849   0.255  18.039  0.00  0.00    +0.000 N 
ATOM     21  C   UNL     1      51.945   1.558  17.630  0.00  0.00    +0.000 C 
ATOM     22  O   UNL     1      53.035   2.050  17.420  0.00  0.00    +0.000 OA
ATOM     23  H   UNL     1      52.722  -0.245  18.159  0.00  0.00    +0.000 HD
ATOM     24  H   UNL     1      50.996  -0.248  18.220  0.00  0.00    +0.000 HD
ENDBRANCH  14  21
ENDBRANCH   1  17
TORSDOF 4
ENDMDL
MODEL 7
REMARK VINA RESULT:    -6.143      4.734      8.643
REMARK INTER + INTRA:          -8.056
REMARK INTER:                  -7.592
REMARK INTRA:                  -0.464
REMARK UNBOUND:                -0.476
REMARK  Name = 
REMARK  4 active torsions:
REMARK  status: ('A' for Active; 'I' for Inactive)
REMARK    1  A    between atoms: C_2  and  C_4
REMARK    2  A    between atoms: C_7  and  C_8
REMARK    3  A    between atoms: C_8  and  N_9
REMARK    4  A    between atoms: C_14  and  N_15
REMARK                            x       y       z     vdW  Elec       q    Type
REMARK                         _______ _______ _______ _____ _____    ______ ____
ROOT
ATOM      1  C   UNL     1      49.301   7.007  14.697  0.00  0.00    +0.000 C 
ENDROOT
BRANCH   1   2
ATOM      2  N   UNL     1      48.145   7.243  13.843  0.00  0.00    +0.000 N 
ATOM      3  C   UNL     1      47.662   8.506  13.561  0.00  0.00    +0.000 A 
ATOM      4  C   UNL     1      46.464   8.376  12.896  0.00  0.00    +0.000 A 
ATOM      5  C   UNL     1      46.101   7.010  12.969  0.00  0.00    +0.000 A 
ATOM      6  C   UNL     1      44.916   6.300  12.717  0.00  0.00    +0.000 A 
ATOM      7  C   UNL     1      44.932   4.934  13.005  0.00  0.00    +0.000 A 
ATOM      8  C   UNL     1      46.115   4.324  13.409  0.00  0.00    +0.000 A 
ATOM      9  N   UNL     1      47.279   4.974  13.677  0.00  0.00    +0.000 NA
ATOM     10  C   UNL     1      47.197   6.310  13.483  0.00  0.00    +0.000 A 
BRANCH   7  11
ATOM     11  N   UNL     1      43.692   4.172  12.997  0.00  0.00    +0.000 N 
ATOM     12  O   UNL     1      43.766   2.958  12.752  0.00  0.00    +0.000 OA
ATOM     13  O   UNL     1      42.635   4.785  13.196  0.00  0.00    +0.000 OA
ENDBRANCH   7  11
ENDBRANCH   1   2
BRANCH   1  17
ATOM     14  C   UNL     1      48.896   5.815  18.777  0.00  0.00    +0.000 A 
ATOM     15  C   UNL     1      48.647   7.143  18.439  0.00  0.00    +0.000 A 
ATOM     16  C   UNL     1      48.686   7.531  17.092  0.00  0.00    +0.000 A 
ATOM     17  C   UNL     1      48.987   6.583  16.113  0.00  0.00    +0.000 A 
ATOM     18  N   UNL     1      49.197   5.283  16.429  0.00  0.00    +0.000 NA
ATOM     19  C   UNL     1      49.146   4.929  17.744  0.00  0.00    +0.000 A 
BRANCH  14  21
ATOM     20  N   UNL     1      48.657   3.979  20.406  0.00  0.00    +0.000 N 
ATOM     21  C   UNL     1      48.974   5.291  20.176  0.00  0.00    +0.000 C 
ATOM     22  O   UNL     1      49.306   6.007  21.100  0.00  0.00    +0.000 OA
ATOM     23  H   UNL     1      48.706   3.666  21.369  0.00  0.00    +0.000 HD
ATOM     24  H   UNL     1      48.390   3.304  19.710  0.00  0.00    +0.000 HD
ENDBRANCH  14  21
ENDBRANCH   1  17
TORSDOF 4
ENDMDL
MODEL 8
REMARK VINA RESULT:    -5.719      4.388      6.148
REMARK INTER + INTRA:          -7.532
REMARK INTER:                  -7.070
REMARK INTRA:                  -0.462
REMARK UNBOUND:                -0.476
REMARK  Name = 
REMARK  4 active torsions:
REMARK  status: ('A' for Active; 'I' for Inactive)
REMARK    1  A    between atoms: C_2  and  C_4
REMARK    2  A    between atoms: C_7  and  C_8
REMARK    3  A    between atoms: C_8  and  N_9
REMARK    4  A    between atoms: C_14  and  N_15
REMARK                            x       y       z     vdW  Elec       q    Type
REMARK                         _______ _______ _______ _____ _____    ______ ____
ROOT
ATOM      1  C   UNL     1      48.424   6.670  13.138  0.00  0.00    +0.000 C 
ENDROOT
BRANCH   1   2
ATOM      2  N   UNL     1      48.322   7.326  14.434  0.00  0.00    +0.000 N 
ATOM      3  C   UNL     1      48.196   8.694  14.579  0.00  0.00    +0.000 A 
ATOM      4  C   UNL     1      48.320   9.004  15.914  0.00  0.00    +0.000 A 
ATOM      5  C   UNL     1      48.752   7.826  16.570  0.00  0.00    +0.000 A 
ATOM      6  C   UNL     1      49.282   7.556  17.841  0.00  0.00    +0.000 A 
ATOM      7  C   UNL     1      49.683   6.241  18.085  0.00  0.00    +0.000 A 
ATOM      8  C   UNL     1      49.444   5.255  17.133  0.00  0.00    +0.000 A 
ATOM      9  N   UNL     1      48.945   5.475  15.887  0.00  0.00    +0.000 NA
ATOM     10  C   UNL     1      48.662   6.776  15.651  0.00  0.00    +0.000 A 
BRANCH   7  11
ATOM     11  N   UNL     1      50.452   5.921  19.278  0.00  0.00    +0.000 N 
ATOM     12  O   UNL     1      50.792   4.739  19.443  0.00  0.00    +0.000 OA
ATOM     13  O   UNL     1      50.690   6.838  20.076  0.00  0.00    +0.000 OA
ENDBRANCH   7  11
ENDBRANCH   1   2
BRANCH   1  17
ATOM     14  C   UNL     1      44.544   5.442  11.846  0.00  0.00    +0.000 A 
ATOM     15  C   UNL     1      45.310   6.240  11.001  0.00  0.00    +0.000 A 
ATOM     16  C   UNL     1      46.621   6.577  11.369  0.00  0.00    +0.000 A 
ATOM     17  C   UNL     1      47.131   6.117  12.585  0.00  0.00    +0.000 A 
ATOM     18  N   UNL     1      46.406   5.313  13.397  0.00  0.00    +0.000 NA
ATOM     19  C   UNL     1      45.138   4.994  13.013  0.00  0.00    +0.000 A 
BRANCH  14  21
ATOM     20  N   UNL     1      42.162   6.070  11.727  0.00  0.00    +0.000 N 
ATOM     21  C   UNL     1      43.109   5.087  11.616  0.00  0.00    +0.000 C 
ATOM     22  O   UNL     1      42.776   3.952  11.341  0.00  0.00    +0.000 OA
ATOM     23  H   UNL     1      41.200   5.788  11.579  0.00  0.00    +0.000 HD
ATOM     24  H   UNL     1      42.337   7.040  11.931  0.00  0.00    +0.000 HD
ENDBRANCH  14  21
ENDBRANCH   1  17
TORSDOF 4
ENDMDL
MODEL 9
REMARK VINA RESULT:    -5.559      3.124      4.387
REMARK INTER + INTRA:          -7.335
REMARK INTER:                  -7.053
REMARK INTRA:                  -0.282
REMARK UNBOUND:                -0.476
REMARK  Name = 
REMARK  4 active torsions:
REMARK  status: ('A' for Active; 'I' for Inactive)
REMARK    1  A    between atoms: C_2  and  C_4
REMARK    2  A    between atoms: C_7  and  C_8
REMARK    3  A    between atoms: C_8  and  N_9
REMARK    4  A    between atoms: C_14  and  N_15
REMARK                            x       y       z     vdW  Elec       q    Type
REMARK                         _______ _______ _______ _____ _____    ______ ____
ROOT
ATOM      1  C   UNL     1      44.841   6.609  12.901  0.00  0.00    +0.000 C 
ENDROOT
BRANCH   1   2
ATOM      2  N   UNL     1      45.668   7.794  12.718  0.00  0.00    +0.000 N 
ATOM      3  C   UNL     1      45.214   8.939  12.093  0.00  0.00    +0.000 A 
ATOM      4  C   UNL     1      46.283   9.788  11.910  0.00  0.00    +0.000 A 
ATOM      5  C   UNL     1      47.450   9.052  12.229  0.00  0.00    +0.000 A 
ATOM      6  C   UNL     1      48.821   9.257  12.013  0.00  0.00    +0.000 A 
ATOM      7  C   UNL     1      49.677   8.225  12.404  0.00  0.00    +0.000 A 
ATOM      8  C   UNL     1      49.168   7.118  13.075  0.00  0.00    +0.000 A 
ATOM      9  N   UNL     1      47.847   6.874  13.292  0.00  0.00    +0.000 NA
ATOM     10  C   UNL     1      47.042   7.848  12.811  0.00  0.00    +0.000 A 
BRANCH   7  11
ATOM     11  N   UNL     1      51.078   8.249  12.011  0.00  0.00    +0.000 N 
ATOM     12  O   UNL     1      51.340   8.083  10.810  0.00  0.00    +0.000 OA
ATOM     13  O   UNL     1      51.926   8.397  12.901  0.00  0.00    +0.000 OA
ENDBRANCH   7  11
ENDBRANCH   1   2
BRANCH   1  17
ATOM     14  C   UNL     1      44.817   3.853   9.640  0.00  0.00    +0.000 A 
ATOM     15  C   UNL     1      43.893   3.682  10.669  0.00  0.00    +0.000 A 
ATOM     16  C   UNL     1      43.827   4.630  11.701  0.00  0.00    +0.000 A 
ATOM     17  C   UNL     1      44.697   5.721  11.687  0.00  0.00    +0.000 A 
ATOM     18  N   UNL     1      45.574   5.913  10.674  0.00  0.00    +0.000 NA
ATOM     19  C   UNL     1      45.615   4.983   9.680  0.00  0.00    +0.000 A 
BRANCH  14  21
ATOM     20  N   UNL     1      45.166   1.545   8.845  0.00  0.00    +0.000 N 
ATOM     21  C   UNL     1      45.051   2.874   8.534  0.00  0.00    +0.000 C 
ATOM     22  O   UNL     1      45.146   3.238   7.379  0.00  0.00    +0.000 OA
ATOM     23  H   UNL     1      45.341   0.914   8.070  0.00  0.00    +0.000 HD
ATOM     24  H   UNL     1      45.084   1.143   9.763  0.00  0.00    +0.000 HD
ENDBRANCH  14  21
ENDBRANCH   1  17
TORSDOF 4
ENDMDL
