MODEL 1
REMARK VINA RESULT:    -8.112      0.000      0.000
REMARK INTER + INTRA:         -10.344
REMARK INTER:                 -10.009
REMARK INTRA:                  -0.335
REMARK UNBOUND:                -0.335
REMARK  Name = 
REMARK  6 active torsions:
REMARK  status: ('A' for Active; 'I' for Inactive)
REMARK    1  A    between atoms: C_1  and  C_2
REMARK    2  A    between atoms: C_5  and  C_6
REMARK    3  A    between atoms: C_6  and  N_7
REMARK    4  A    between atoms: N_7  and  C_8
REMARK    5  A    between atoms: C_11  and  C_12
REMARK    6  A    between atoms: C_16  and  C_17
REMARK                            x       y       z     vdW  Elec       q    Type
REMARK                         _______ _______ _______ _____ _____    ______ ____
ROOT
ATOM      1  N   UNL     1      43.777   4.778   9.878  0.00  0.00    +0.000 N 
ATOM      2  H   UNL     1      43.085   5.274   9.330  0.00  0.00    +0.000 HD
ENDROOT
BRANCH   1   3
ATOM      3  C   UNL     1      44.738   4.085   9.119  0.00  0.00    +0.000 A 
ATOM      4  C   UNL     1      45.678   4.740   8.315  0.00  0.00    +0.000 A 
ATOM      5  C   UNL     1      46.648   4.029   7.597  0.00  0.00    +0.000 A 
ATOM      6  C   UNL     1      46.721   2.635   7.686  0.00  0.00    +0.000 A 
ATOM      7  C   UNL     1      45.819   1.969   8.517  0.00  0.00    +0.000 A 
ATOM      8  C   UNL     1      44.836   2.679   9.239  0.00  0.00    +0.000 A 
ATOM      9  C   UNL     1      43.926   1.904  10.159  0.00  0.00    +0.000 C 
BRANCH   6  10
ATOM     10  C   UNL     1      47.769   1.934   6.886  0.00  0.00    +0.000 C 
ATOM     11  N   UNL     1      48.636   2.682   6.137  0.00  0.00    +0.000 N 
ATOM     12  O   UNL     1      47.870   0.716   6.893  0.00  0.00    +0.000 OA
ATOM     13  H   UNL     1      48.655   3.687   6.089  0.00  0.00    +0.000 HD
ATOM     14  H   UNL     1      49.343   2.172   5.623  0.00  0.00    +0.000 HD
ENDBRANCH   6  10
ENDBRANCH   1   3
BRANCH   1  15
ATOM     15  C   UNL     1      43.850   5.120  11.305  0.00  0.00    +0.000 C 
ATOM     16  C   UNL     1      42.636   5.583  12.088  0.00  0.00    +0.000 C 
ATOM     17  C   UNL     1      43.086   4.169  12.230  0.00  0.00    +0.000 C 
BRANCH  15  22
ATOM     18  C   UNL     1      49.056   6.948  13.311  0.00  0.00    +0.000 C 
ATOM     19  C   UNL     1      47.756   6.464  12.743  0.00  0.00    +0.000 A 
ATOM     20  C   UNL     1      47.045   7.223  11.811  0.00  0.00    +0.000 A 
ATOM     21  C   UNL     1      45.805   6.782  11.336  0.00  0.00    +0.000 A 
ATOM     22  C   UNL     1      45.233   5.574  11.771  0.00  0.00    +0.000 A 
ATOM     23  C   UNL     1      45.988   4.805  12.676  0.00  0.00    +0.000 A 
ATOM     24  C   UNL     1      47.222   5.244  13.166  0.00  0.00    +0.000 A 
ENDBRANCH  15  22
ENDBRANCH   1  15
TORSDOF 4
ENDMDL
MODEL 2
REMARK VINA RESULT:    -7.704      3.330      6.588
REMARK INTER + INTRA:          -9.840
REMARK INTER:                  -9.206
REMARK INTRA:                  -0.634
REMARK UNBOUND:                -0.335
REMARK  Name = 
REMARK  6 active torsions:
REMARK  status: ('A' for Active; 'I' for Inactive)
REMARK    1  A    between atoms: C_1  and  C_2
REMARK    2  A    between atoms: C_5  and  C_6
REMARK    3  A    between atoms: C_6  and  N_7
REMARK    4  A    between atoms: N_7  and  C_8
REMARK    5  A    between atoms: C_11  and  C_12
REMARK    6  A    between atoms: C_16  and  C_17
REMARK                            x       y       z     vdW  Elec       q    Type
REMARK                         _______ _______ _______ _____ _____    ______ ____
ROOT
ATOM      1  N   UNL     1      44.990   6.217  10.649  0.00  0.00    +0.000 N 
ATOM      2  H   UNL     1      44.528   6.853  10.011  0.00  0.00    +0.000 HD
ENDROOT
BRANCH   1   3
ATOM      3  C   UNL     1      45.756   6.846  11.649  0.00  0.00    +0.000 A 
ATOM      4  C   UNL     1      46.859   6.231  12.250  0.00  0.00    +0.000 A 
ATOM      5  C   UNL     1      47.627   6.893  13.217  0.00  0.00    +0.000 A 
ATOM      6  C   UNL     1      47.325   8.206  13.591  0.00  0.00    +0.000 A 
ATOM      7  C   UNL     1      46.254   8.850  12.969  0.00  0.00    +0.000 A 
ATOM      8  C   UNL     1      45.473   8.187  11.998  0.00  0.00    +0.000 A 
ATOM      9  C   UNL     1      44.363   8.956  11.327  0.00  0.00    +0.000 C 
BRANCH   6  10
ATOM     10  C   UNL     1      48.173   8.851  14.637  0.00  0.00    +0.000 C 
ATOM     11  N   UNL     1      47.589   9.245  15.810  0.00  0.00    +0.000 N 
ATOM     12  O   UNL     1      49.372   9.027  14.468  0.00  0.00    +0.000 OA
ATOM     13  H   UNL     1      46.622   9.117  16.056  0.00  0.00    +0.000 HD
ATOM     14  H   UNL     1      48.201   9.662  16.499  0.00  0.00    +0.000 HD
ENDBRANCH   6  10
ENDBRANCH   1   3
BRANCH   1  15
ATOM     15  C   UNL     1      44.539   4.819  10.622  0.00  0.00    +0.000 C 
ATOM     16  C   UNL     1      44.024   4.112  11.861  0.00  0.00    +0.000 C 
ATOM     17  C   UNL     1      43.040   4.627  10.866  0.00  0.00    +0.000 C 
BRANCH  15  22
ATOM     18  C   UNL     1      47.167   1.547   6.517  0.00  0.00    +0.000 C 
ATOM     19  C   UNL     1      46.448   2.393   7.523  0.00  0.00    +0.000 A 
ATOM     20  C   UNL     1      46.464   3.787   7.441  0.00  0.00    +0.000 A 
ATOM     21  C   UNL     1      45.835   4.562   8.422  0.00  0.00    +0.000 A 
ATOM     22  C   UNL     1      45.171   3.977   9.514  0.00  0.00    +0.000 A 
ATOM     23  C   UNL     1      45.130   2.571   9.551  0.00  0.00    +0.000 A 
ATOM     24  C   UNL     1      45.766   1.789   8.583  0.00  0.00    +0.000 A 
ENDBRANCH  15  22
ENDBRANCH   1  15
TORSDOF 4
ENDMDL
MODEL 3
REMARK VINA RESULT:    -7.545      3.245      6.534
REMARK INTER + INTRA:          -9.643
REMARK INTER:                  -9.240
REMARK INTRA:                  -0.403
REMARK UNBOUND:                -0.335
REMARK  Name = 
REMARK  6 active torsions:
REMARK  status: ('A' for Active; 'I' for Inactive)
REMARK    1  A    between atoms: C_1  and  C_2
REMARK    2  A    between atoms: C_5  and  C_6
REMARK    3  A    between atoms: C_6  and  N_7
REMARK    4  A    between atoms: N_7  and  C_8
REMARK    5  A    between atoms: C_11  and  C_12
REMARK    6  A    between atoms: C_16  and  C_17
REMARK                            x       y       z     vdW  Elec       q    Type
REMARK                         _______ _______ _______ _____ _____    ______ ____
ROOT
ATOM      1  N   UNL     1      45.637   5.640  11.365  0.00  0.00    +0.000 N 
ATOM      2  H   UNL     1      45.648   6.559  10.939  0.00  0.00    +0.000 HD
ENDROOT
BRANCH   1   3
ATOM      3  C   UNL     1      46.284   5.568  12.613  0.00  0.00    +0.000 A 
ATOM      4  C   UNL     1      46.121   4.486  13.484  0.00  0.00    +0.000 A 
ATOM      5  C   UNL     1      46.806   4.420  14.705  0.00  0.00    +0.000 A 
ATOM      6  C   UNL     1      47.698   5.431  15.076  0.00  0.00    +0.000 A 
ATOM      7  C   UNL     1      47.907   6.496  14.199  0.00  0.00    +0.000 A 
ATOM      8  C   UNL     1      47.217   6.571  12.970  0.00  0.00    +0.000 A 
ATOM      9  C   UNL     1      47.526   7.720  12.045  0.00  0.00    +0.000 C 
BRANCH   6  10
ATOM     10  C   UNL     1      48.387   5.309  16.396  0.00  0.00    +0.000 C 
ATOM     11  N   UNL     1      47.973   6.102  17.431  0.00  0.00    +0.000 N 
ATOM     12  O   UNL     1      49.302   4.516  16.568  0.00  0.00    +0.000 OA
ATOM     13  H   UNL     1      47.212   6.760  17.399  0.00  0.00    +0.000 HD
ATOM     14  H   UNL     1      48.453   5.977  18.313  0.00  0.00    +0.000 HD
ENDBRANCH   6  10
ENDBRANCH   1   3
BRANCH   1  15
ATOM     15  C   UNL     1      44.706   4.661  10.789  0.00  0.00    +0.000 C 
ATOM     16  C   UNL     1      43.594   4.028  11.602  0.00  0.00    +0.000 C 
ATOM     17  C   UNL     1      43.259   5.146  10.675  0.00  0.00    +0.000 C 
BRANCH  15  22
ATOM     18  C   UNL     1      47.080   1.634   6.354  0.00  0.00    +0.000 C 
ATOM     19  C   UNL     1      46.423   2.421   7.448  0.00  0.00    +0.000 A 
ATOM     20  C   UNL     1      46.439   3.817   7.447  0.00  0.00    +0.000 A 
ATOM     21  C   UNL     1      45.871   4.533   8.506  0.00  0.00    +0.000 A 
ATOM     22  C   UNL     1      45.270   3.885   9.598  0.00  0.00    +0.000 A 
ATOM     23  C   UNL     1      45.226   2.480   9.556  0.00  0.00    +0.000 A 
ATOM     24  C   UNL     1      45.802   1.756   8.508  0.00  0.00    +0.000 A 
ENDBRANCH  15  22
ENDBRANCH   1  15
TORSDOF 4
ENDMDL
MODEL 4
REMARK VINA RESULT:    -7.411      1.257      2.149
REMARK INTER + INTRA:          -9.479
REMARK INTER:                  -8.879
REMARK INTRA:                  -0.600
REMARK UNBOUND:                -0.335
REMARK  Name = 
REMARK  6 active torsions:
REMARK  status: ('A' for Active; 'I' for Inactive)
REMARK    1  A    between atoms: C_1  and  C_2
REMARK    2  A    between atoms: C_5  and  C_6
REMARK    3  A    between atoms: C_6  and  N_7
REMARK    4  A    between atoms: N_7  and  C_8
REMARK    5  A    between atoms: C_11  and  C_12
REMARK    6  A    between atoms: C_16  and  C_17
REMARK                            x       y       z     vdW  Elec       q    Type
REMARK                         _______ _______ _______ _____ _____    ______ ____
ROOT
ATOM      1  N   UNL     1      43.795   4.712  10.231  0.00  0.00    +0.000 N 
ATOM      2  H   UNL     1      43.291   5.340   9.617  0.00  0.00    +0.000 HD
ENDROOT
BRANCH   1   3
ATOM      3  C   UNL     1      44.577   3.748   9.568  0.00  0.00    +0.000 A 
ATOM      4  C   UNL     1      44.226   2.394   9.526  0.00  0.00    +0.000 A 
ATOM      5  C   UNL     1      45.002   1.459   8.828  0.00  0.00    +0.000 A 
ATOM      6  C   UNL     1      46.142   1.863   8.125  0.00  0.00    +0.000 A 
ATOM      7  C   UNL     1      46.482   3.216   8.120  0.00  0.00    +0.000 A 
ATOM      8  C   UNL     1      45.708   4.162   8.826  0.00  0.00    +0.000 A 
ATOM      9  C   UNL     1      46.099   5.615   8.736  0.00  0.00    +0.000 C 
BRANCH   6  10
ATOM     10  C   UNL     1      46.934   0.816   7.412  0.00  0.00    +0.000 C 
ATOM     11  N   UNL     1      46.658  -0.501   7.657  0.00  0.00    +0.000 N 
ATOM     12  O   UNL     1      47.813   1.113   6.615  0.00  0.00    +0.000 OA
ATOM     13  H   UNL     1      45.937  -0.846   8.269  0.00  0.00    +0.000 HD
ATOM     14  H   UNL     1      47.204  -1.179   7.142  0.00  0.00    +0.000 HD
ENDBRANCH   6  10
ENDBRANCH   1   3
BRANCH   1  15
ATOM     15  C   UNL     1      43.880   5.107  11.643  0.00  0.00    +0.000 C 
ATOM     16  C   UNL     1      42.658   5.166  12.540  0.00  0.00    +0.000 C 
ATOM     17  C   UNL     1      43.566   3.987  12.639  0.00  0.00    +0.000 C 
BRANCH  15  22
ATOM     18  C   UNL     1      48.487   8.601  12.658  0.00  0.00    +0.000 C 
ATOM     19  C   UNL     1      47.305   7.701  12.463  0.00  0.00    +0.000 A 
ATOM     20  C   UNL     1      47.421   6.315  12.584  0.00  0.00    +0.000 A 
ATOM     21  C   UNL     1      46.319   5.487  12.342  0.00  0.00    +0.000 A 
ATOM     22  C   UNL     1      45.068   6.010  11.973  0.00  0.00    +0.000 A 
ATOM     23  C   UNL     1      44.963   7.411  11.900  0.00  0.00    +0.000 A 
ATOM     24  C   UNL     1      46.062   8.245  12.128  0.00  0.00    +0.000 A 
ENDBRANCH  15  22
ENDBRANCH   1  15
TORSDOF 4
ENDMDL
MODEL 5
REMARK VINA RESULT:    -7.287      1.079      1.685
REMARK INTER + INTRA:          -9.326
REMARK INTER:                  -8.242
REMARK INTRA:                  -1.084
REMARK UNBOUND:                -0.335
REMARK  Name = 
REMARK  6 active torsions:
REMARK  status: ('A' for Active; 'I' for Inactive)
REMARK    1  A    between atoms: C_1  and  C_2
REMARK    2  A    between atoms: C_5  and  C_6
REMARK    3  A    between atoms: C_6  and  N_7
REMARK    4  A    between atoms: N_7  and  C_8
REMARK    5  A    between atoms: C_11  and  C_12
REMARK    6  A    between atoms: C_16  and  C_17
REMARK                            x       y       z     vdW  Elec       q    Type
REMARK                         _______ _______ _______ _____ _____    ______ ____
ROOT
ATOM      1  N   UNL     1      43.952   5.090  10.040  0.00  0.00    +0.000 N 
ATOM      2  H   UNL     1      43.007   5.201   9.693  0.00  0.00    +0.000 HD
ENDROOT
BRANCH   1   3
ATOM      3  C   UNL     1      44.757   4.226   9.274  0.00  0.00    +0.000 A 
ATOM      4  C   UNL     1      45.689   4.695   8.342  0.00  0.00    +0.000 A 
ATOM      5  C   UNL     1      46.506   3.815   7.619  0.00  0.00    +0.000 A 
ATOM      6  C   UNL     1      46.428   2.435   7.831  0.00  0.00    +0.000 A 
ATOM      7  C   UNL     1      45.535   1.953   8.788  0.00  0.00    +0.000 A 
ATOM      8  C   UNL     1      44.706   2.833   9.516  0.00  0.00    +0.000 A 
ATOM      9  C   UNL     1      43.800   2.253  10.572  0.00  0.00    +0.000 C 
BRANCH   6  10
ATOM     10  C   UNL     1      47.316   1.549   7.019  0.00  0.00    +0.000 C 
ATOM     11  N   UNL     1      48.407   2.097   6.402  0.00  0.00    +0.000 N 
ATOM     12  O   UNL     1      47.090   0.353   6.901  0.00  0.00    +0.000 OA
ATOM     13  H   UNL     1      48.695   3.060   6.462  0.00  0.00    +0.000 HD
ATOM     14  H   UNL     1      48.993   1.461   5.876  0.00  0.00    +0.000 HD
ENDBRANCH   6  10
ENDBRANCH   1   3
BRANCH   1  15
ATOM     15  C   UNL     1      44.398   6.061  11.048  0.00  0.00    +0.000 C 
ATOM     16  C   UNL     1      44.517   7.542  10.747  0.00  0.00    +0.000 C 
ATOM     17  C   UNL     1      43.324   7.055  11.496  0.00  0.00    +0.000 C 
BRANCH  15  22
ATOM     18  C   UNL     1      47.697   3.928  15.411  0.00  0.00    +0.000 C 
ATOM     19  C   UNL     1      46.889   4.436  14.256  0.00  0.00    +0.000 A 
ATOM     20  C   UNL     1      47.394   5.408  13.390  0.00  0.00    +0.000 A 
ATOM     21  C   UNL     1      46.603   5.912  12.351  0.00  0.00    +0.000 A 
ATOM     22  C   UNL     1      45.287   5.466  12.140  0.00  0.00    +0.000 A 
ATOM     23  C   UNL     1      44.816   4.455  12.997  0.00  0.00    +0.000 A 
ATOM     24  C   UNL     1      45.594   3.955  14.045  0.00  0.00    +0.000 A 
ENDBRANCH  15  22
ENDBRANCH   1  15
TORSDOF 4
ENDMDL
MODEL 6
REMARK VINA RESULT:    -6.352      3.143      5.451
REMARK INTER + INTRA:          -8.172
REMARK INTER:                  -7.470
REMARK INTRA:                  -0.702
REMARK UNBOUND:                -0.335
REMARK  Name = 
REMARK  6 active torsions:
REMARK  status: ('A' for Active; 'I' for Inactive)
REMARK    1  A    between atoms: C_1  and  C_2
REMARK    2  A    between atoms: C_5  and  C_6
REMARK    3  A    between atoms: C_6  and  N_7
REMARK    4  A    between atoms: N_7  and  C_8
REMARK    5  A    between atoms: C_11  and  C_12
REMARK    6  A    between atoms: C_16  and  C_17
REMARK                            x       y       z     vdW  Elec       q    Type
REMARK                         _______ _______ _______ _____ _____    ______ ____
ROOT
ATOM      1  N   UNL     1      46.752   7.182  13.525  0.00  0.00    +0.000 N 
ATOM      2  H   UNL     1      46.137   7.826  14.008  0.00  0.00    +0.000 HD
ENDROOT
BRANCH   1   3
ATOM      3  C   UNL     1      46.095   6.105  12.900  0.00  0.00    +0.000 A 
ATOM      4  C   UNL     1      46.278   4.777  13.301  0.00  0.00    +0.000 A 
ATOM      5  C   UNL     1      45.584   3.726  12.687  0.00  0.00    +0.000 A 
ATOM      6  C   UNL     1      44.664   3.982  11.665  0.00  0.00    +0.000 A 
ATOM      7  C   UNL     1      44.437   5.304  11.283  0.00  0.00    +0.000 A 
ATOM      8  C   UNL     1      45.136   6.367  11.894  0.00  0.00    +0.000 A 
ATOM      9  C   UNL     1      44.807   7.776  11.471  0.00  0.00    +0.000 C 
BRANCH   6  10
ATOM     10  C   UNL     1      43.967   2.817  11.042  0.00  0.00    +0.000 C 
ATOM     11  N   UNL     1      44.482   2.277   9.895  0.00  0.00    +0.000 N 
ATOM     12  O   UNL     1      42.956   2.338  11.536  0.00  0.00    +0.000 OA
ATOM     13  H   UNL     1      45.323   2.578   9.430  0.00  0.00    +0.000 HD
ATOM     14  H   UNL     1      43.992   1.478   9.513  0.00  0.00    +0.000 HD
ENDBRANCH   6  10
ENDBRANCH   1   3
BRANCH   1  15
ATOM     15  C   UNL     1      48.128   7.640  13.293  0.00  0.00    +0.000 C 
ATOM     16  C   UNL     1      48.692   7.830  11.898  0.00  0.00    +0.000 C 
ATOM     17  C   UNL     1      48.241   9.029  12.661  0.00  0.00    +0.000 C 
BRANCH  15  22
ATOM     18  C   UNL     1      51.939   6.217  17.526  0.00  0.00    +0.000 C 
ATOM     19  C   UNL     1      50.941   6.626  16.485  0.00  0.00    +0.000 A 
ATOM     20  C   UNL     1      49.603   6.236  16.570  0.00  0.00    +0.000 A 
ATOM     21  C   UNL     1      48.699   6.579  15.559  0.00  0.00    +0.000 A 
ATOM     22  C   UNL     1      49.096   7.319  14.432  0.00  0.00    +0.000 A 
ATOM     23  C   UNL     1      50.438   7.739  14.390  0.00  0.00    +0.000 A 
ATOM     24  C   UNL     1      51.351   7.390  15.390  0.00  0.00    +0.000 A 
ENDBRANCH  15  22
ENDBRANCH   1  15
TORSDOF 4
ENDMDL
MODEL 7
REMARK VINA RESULT:    -6.266      3.709      6.017
REMARK INTER + INTRA:          -8.066
REMARK INTER:                  -7.169
REMARK INTRA:                  -0.897
REMARK UNBOUND:                -0.335
REMARK  Name = 
REMARK  6 active torsions:
REMARK  status: ('A' for Active; 'I' for Inactive)
REMARK    1  A    between atoms: C_1  and  C_2
REMARK    2  A    between atoms: C_5  and  C_6
REMARK    3  A    between atoms: C_6  and  N_7
REMARK    4  A    between atoms: N_7  and  C_8
REMARK    5  A    between atoms: C_11  and  C_12
REMARK    6  A    between atoms: C_16  and  C_17
REMARK                            x       y       z     vdW  Elec       q    Type
REMARK                         _______ _______ _______ _____ _____    ______ ____
ROOT
ATOM      1  N   UNL     1      48.464   6.293  12.943  0.00  0.00    +0.000 N 
ATOM      2  H   UNL     1      49.076   5.486  12.967  0.00  0.00    +0.000 HD
ENDROOT
BRANCH   1   3
ATOM      3  C   UNL     1      47.122   5.999  12.638  0.00  0.00    +0.000 A 
ATOM      4  C   UNL     1      46.505   6.434  11.460  0.00  0.00    +0.000 A 
ATOM      5  C   UNL     1      45.178   6.097  11.163  0.00  0.00    +0.000 A 
ATOM      6  C   UNL     1      44.437   5.289  12.030  0.00  0.00    +0.000 A 
ATOM      7  C   UNL     1      45.051   4.810  13.188  0.00  0.00    +0.000 A 
ATOM      8  C   UNL     1      46.385   5.149  13.496  0.00  0.00    +0.000 A 
ATOM      9  C   UNL     1      47.006   4.557  14.736  0.00  0.00    +0.000 C 
BRANCH   6  10
ATOM     10  C   UNL     1      43.023   4.977  11.662  0.00  0.00    +0.000 C 
ATOM     11  N   UNL     1      42.091   5.977  11.718  0.00  0.00    +0.000 N 
ATOM     12  O   UNL     1      42.688   3.855  11.309  0.00  0.00    +0.000 OA
ATOM     13  H   UNL     1      42.273   6.935  11.965  0.00  0.00    +0.000 HD
ATOM     14  H   UNL     1      41.149   5.729  11.445  0.00  0.00    +0.000 HD
ENDBRANCH   6  10
ENDBRANCH   1   3
BRANCH   1  15
ATOM     15  C   UNL     1      48.993   7.533  13.526  0.00  0.00    +0.000 C 
ATOM     16  C   UNL     1      48.482   8.089  14.842  0.00  0.00    +0.000 C 
ATOM     17  C   UNL     1      49.773   7.344  14.829  0.00  0.00    +0.000 C 
BRANCH  15  22
ATOM     18  C   UNL     1      51.423  11.342   9.777  0.00  0.00    +0.000 C 
ATOM     19  C   UNL     1      50.757  10.356  10.690  0.00  0.00    +0.000 A 
ATOM     20  C   UNL     1      49.579  10.675  11.366  0.00  0.00    +0.000 A 
ATOM     21  C   UNL     1      49.004   9.763  12.258  0.00  0.00    +0.000 A 
ATOM     22  C   UNL     1      49.581   8.506  12.505  0.00  0.00    +0.000 A 
ATOM     23  C   UNL     1      50.743   8.189  11.778  0.00  0.00    +0.000 A 
ATOM     24  C   UNL     1      51.332   9.099  10.895  0.00  0.00    +0.000 A 
ENDBRANCH  15  22
ENDBRANCH   1  15
TORSDOF 4
ENDMDL
MODEL 8
REMARK VINA RESULT:    -6.249      3.106      5.311
REMARK INTER + INTRA:          -8.045
REMARK INTER:                  -7.198
REMARK INTRA:                  -0.847
REMARK UNBOUND:                -0.335
REMARK  Name = 
REMARK  6 active torsions:
REMARK  status: ('A' for Active; 'I' for Inactive)
REMARK    1  A    between atoms: C_1  and  C_2
REMARK    2  A    between atoms: C_5  and  C_6
REMARK    3  A    between atoms: C_6  and  N_7
REMARK    4  A    between atoms: N_7  and  C_8
REMARK    5  A    between atoms: C_11  and  C_12
REMARK    6  A    between atoms: C_16  and  C_17
REMARK                            x       y       z     vdW  Elec       q    Type
REMARK                         _______ _______ _______ _____ _____    ______ ____
ROOT
ATOM      1  N   UNL     1      46.439   7.377  13.373  0.00  0.00    +0.000 N 
ATOM      2  H   UNL     1      45.818   8.018  13.852  0.00  0.00    +0.000 HD
ENDROOT
BRANCH   1   3
ATOM      3  C   UNL     1      45.799   6.262  12.799  0.00  0.00    +0.000 A 
ATOM      4  C   UNL     1      45.023   6.355  11.639  0.00  0.00    +0.000 A 
ATOM      5  C   UNL     1      44.427   5.223  11.066  0.00  0.00    +0.000 A 
ATOM      6  C   UNL     1      44.615   3.957  11.629  0.00  0.00    +0.000 A 
ATOM      7  C   UNL     1      45.421   3.841  12.762  0.00  0.00    +0.000 A 
ATOM      8  C   UNL     1      46.021   4.977  13.347  0.00  0.00    +0.000 A 
ATOM      9  C   UNL     1      46.923   4.775  14.538  0.00  0.00    +0.000 C 
BRANCH   6  10
ATOM     10  C   UNL     1      43.941   2.793  10.979  0.00  0.00    +0.000 C 
ATOM     11  N   UNL     1      44.494   2.259   9.847  0.00  0.00    +0.000 N 
ATOM     12  O   UNL     1      42.917   2.309  11.440  0.00  0.00    +0.000 OA
ATOM     13  H   UNL     1      45.348   2.565   9.410  0.00  0.00    +0.000 HD
ATOM     14  H   UNL     1      44.018   1.461   9.447  0.00  0.00    +0.000 HD
ENDBRANCH   6  10
ENDBRANCH   1   3
BRANCH   1  15
ATOM     15  C   UNL     1      47.795   7.867  13.091  0.00  0.00    +0.000 C 
ATOM     16  C   UNL     1      48.460   7.672  11.742  0.00  0.00    +0.000 C 
ATOM     17  C   UNL     1      47.864   9.000  12.064  0.00  0.00    +0.000 C 
BRANCH  15  22
ATOM     18  C   UNL     1      51.285   8.608  17.753  0.00  0.00    +0.000 C 
ATOM     19  C   UNL     1      50.379   8.359  16.585  0.00  0.00    +0.000 A 
ATOM     20  C   UNL     1      50.776   7.549  15.520  0.00  0.00    +0.000 A 
ATOM     21  C   UNL     1      49.939   7.375  14.411  0.00  0.00    +0.000 A 
ATOM     22  C   UNL     1      48.684   8.001  14.327  0.00  0.00    +0.000 A 
ATOM     23  C   UNL     1      48.287   8.777  15.432  0.00  0.00    +0.000 A 
ATOM     24  C   UNL     1      49.122   8.966  16.537  0.00  0.00    +0.000 A 
ENDBRANCH  15  22
ENDBRANCH   1  15
TORSDOF 4
ENDMDL
MODEL 9
REMARK VINA RESULT:    -6.140      4.253      7.481
REMARK INTER + INTRA:          -7.910
REMARK INTER:                  -7.337
REMARK INTRA:                  -0.573
REMARK UNBOUND:                -0.335
REMARK  Name = 
REMARK  6 active torsions:
REMARK  status: ('A' for Active; 'I' for Inactive)
REMARK    1  A    between atoms: C_1  and  C_2
REMARK    2  A    between atoms: C_5  and  C_6
REMARK    3  A    between atoms: C_6  and  N_7
REMARK    4  A    between atoms: N_7  and  C_8
REMARK    5  A    between atoms: C_11  and  C_12
REMARK    6  A    between atoms: C_16  and  C_17
REMARK                            x       y       z     vdW  Elec       q    Type
REMARK                         _______ _______ _______ _____ _____    ______ ____
ROOT
ATOM      1  N   UNL     1      47.490   5.952  12.989  0.00  0.00    +0.000 N 
ATOM      2  H   UNL     1      48.360   6.150  12.509  0.00  0.00    +0.000 HD
ENDROOT
BRANCH   1   3
ATOM      3  C   UNL     1      47.634   5.641  14.354  0.00  0.00    +0.000 A 
ATOM      4  C   UNL     1      47.053   4.507  14.933  0.00  0.00    +0.000 A 
ATOM      5  C   UNL     1      47.242   4.200  16.287  0.00  0.00    +0.000 A 
ATOM      6  C   UNL     1      48.045   5.010  17.096  0.00  0.00    +0.000 A 
ATOM      7  C   UNL     1      48.668   6.120  16.525  0.00  0.00    +0.000 A 
ATOM      8  C   UNL     1      48.477   6.438  15.163  0.00  0.00    +0.000 A 
ATOM      9  C   UNL     1      49.220   7.621  14.595  0.00  0.00    +0.000 C 
BRANCH   6  10
ATOM     10  C   UNL     1      48.195   4.635  18.534  0.00  0.00    +0.000 C 
ATOM     11  N   UNL     1      47.310   5.144  19.445  0.00  0.00    +0.000 N 
ATOM     12  O   UNL     1      49.085   3.883  18.909  0.00  0.00    +0.000 OA
ATOM     13  H   UNL     1      46.529   5.744  19.233  0.00  0.00    +0.000 HD
ATOM     14  H   UNL     1      47.435   4.853  20.406  0.00  0.00    +0.000 HD
ENDBRANCH   6  10
ENDBRANCH   1   3
BRANCH   1  15
ATOM     15  C   UNL     1      46.255   6.328  12.289  0.00  0.00    +0.000 C 
ATOM     16  C   UNL     1      45.280   7.341  12.857  0.00  0.00    +0.000 C 
ATOM     17  C   UNL     1      46.222   7.773  11.785  0.00  0.00    +0.000 C 
BRANCH  15  22
ATOM     18  C   UNL     1      44.415   2.079   8.680  0.00  0.00    +0.000 C 
ATOM     19  C   UNL     1      44.830   3.196   9.589  0.00  0.00    +0.000 A 
ATOM     20  C   UNL     1      45.305   4.406   9.081  0.00  0.00    +0.000 A 
ATOM     21  C   UNL     1      45.741   5.416   9.946  0.00  0.00    +0.000 A 
ATOM     22  C   UNL     1      45.719   5.254  11.342  0.00  0.00    +0.000 A 
ATOM     23  C   UNL     1      45.195   4.044  11.832  0.00  0.00    +0.000 A 
ATOM     24  C   UNL     1      44.768   3.025  10.975  0.00  0.00    +0.000 A 
ENDBRANCH  15  22
ENDBRANCH   1  15
TORSDOF 4
ENDMDL
