MODEL 1
REMARK VINA RESULT:    -8.320      0.000      0.000
REMARK INTER + INTRA:         -12.535
REMARK INTER:                 -11.725
REMARK INTRA:                  -0.810
REMARK UNBOUND:                -0.810
REMARK  Name = 
REMARK  7 active torsions:
REMARK  status: ('A' for Active; 'I' for Inactive)
REMARK    1  A    between atoms: C_2  and  C_3
REMARK    2  A    between atoms: C_3  and  N_4
REMARK    3  A    between atoms: C_3  and  C_22
REMARK    4  A    between atoms: C_5  and  C_7
REMARK    5  A    between atoms: C_10  and  C_11
REMARK    6  A    between atoms: C_11  and  N_12
REMARK    7  A    between atoms: C_13  and  C_15
REMARK                            x       y       z     vdW  Elec       q    Type
REMARK                         _______ _______ _______ _____ _____    ______ ____
ROOT
ATOM      1  N   UNL     1      47.061   6.750  14.042  0.00  0.00    +0.000 N 
ATOM      2  C   UNL     1      46.623   6.534  12.762  0.00  0.00    +0.000 C 
ATOM      3  O   UNL     1      47.422   6.322  11.849  0.00  0.00    +0.000 OA
ATOM      4  H   UNL     1      46.428   6.680  14.833  0.00  0.00    +0.000 HD
ENDROOT
BRANCH   2   5
ATOM      5  C   UNL     1      45.119   6.683  12.486  0.00  0.00    +0.000 C 
ATOM      6  C   UNL     1      44.875   6.770  10.970  0.00  0.00    +0.000 C 
ATOM      7  C   UNL     1      45.105   5.421  10.283  0.00  0.00    +0.000 C 
ATOM      8  C   UNL     1      44.230   4.310  10.891  0.00  0.00    +0.000 C 
ATOM      9  C   UNL     1      44.392   4.251  12.417  0.00  0.00    +0.000 C 
ATOM     10  C   UNL     1      44.202   5.612  13.080  0.00  0.00    +0.000 C 
BRANCH   8  11
ATOM     11  C   UNL     1      44.563   2.933  10.293  0.00  0.00    +0.000 C 
BRANCH  11  12
ATOM     12  N   UNL     1      45.401   3.023   9.119  0.00  0.00    +0.000 N 
ATOM     13  C   UNL     1      45.814   1.913   8.423  0.00  0.00    +0.000 C 
ATOM     14  O   UNL     1      45.527   0.769   8.761  0.00  0.00    +0.000 OA
ATOM     15  H   UNL     1      45.622   3.941   8.763  0.00  0.00    +0.000 HD
BRANCH  13  16
ATOM     16  C   UNL     1      46.619   2.192   7.264  0.00  0.00    +0.000 A 
ATOM     17  C   UNL     1      46.548   3.148   6.268  0.00  0.00    +0.000 A 
ATOM     18  C   UNL     1      47.633   2.873   5.416  0.00  0.00    +0.000 A 
ATOM     19  N   UNL     1      48.352   1.830   5.832  0.00  0.00    +0.000 NA
ATOM     20  N   UNL     1      47.725   1.444   6.958  0.00  0.00    +0.000 N 
ATOM     21  H   UNL     1      48.097   0.661   7.487  0.00  0.00    +0.000 HD
ENDBRANCH  13  16
ENDBRANCH  11  12
ENDBRANCH   8  11
ENDBRANCH   2   5
BRANCH   1  22
ATOM     22  C   UNL     1      48.478   6.638  14.352  0.00  0.00    +0.000 C 
BRANCH  22  23
ATOM     23  C   UNL     1      48.628   6.296  15.821  0.00  0.00    +0.000 A 
ATOM     24  C   UNL     1      49.246   7.139  16.733  0.00  0.00    +0.000 A 
ATOM     25  S   UNL     1      49.330   6.485  18.309  0.00  0.00    +0.000 S 
ATOM     26  C   UNL     1      48.537   5.059  17.827  0.00  0.00    +0.000 A 
ATOM     27  N   UNL     1      48.296   4.050  18.704  0.00  0.00    +0.000 NA
ATOM     28  C   UNL     1      47.651   3.050  18.200  0.00  0.00    +0.000 A 
ATOM     29  N   UNL     1      47.239   2.960  16.892  0.00  0.00    +0.000 N 
ATOM     30  C   UNL     1      47.554   3.908  15.948  0.00  0.00    +0.000 A 
ATOM     31  O   UNL     1      47.353   3.742  14.749  0.00  0.00    +0.000 OA
ATOM     32  C   UNL     1      48.214   5.083  16.485  0.00  0.00    +0.000 A 
ATOM     33  H   UNL     1      46.767   2.130  16.562  0.00  0.00    +0.000 HD
ENDBRANCH  22  23
BRANCH  22  35
ATOM     34  N   UNL     1      49.801   8.821  13.678  0.00  0.00    +0.000 NA
ATOM     35  C   UNL     1      49.239   7.853  13.979  0.00  0.00    +0.000 C 
ENDBRANCH  22  35
ENDBRANCH   1  22
TORSDOF 7
ENDMDL
MODEL 2
REMARK VINA RESULT:    -7.287      1.747      2.543
REMARK INTER + INTRA:         -11.080
REMARK INTER:                 -10.635
REMARK INTRA:                  -0.445
REMARK UNBOUND:                -0.810
REMARK  Name = 
REMARK  7 active torsions:
REMARK  status: ('A' for Active; 'I' for Inactive)
REMARK    1  A    between atoms: C_2  and  C_3
REMARK    2  A    between atoms: C_3  and  N_4
REMARK    3  A    between atoms: C_3  and  C_22
REMARK    4  A    between atoms: C_5  and  C_7
REMARK    5  A    between atoms: C_10  and  C_11
REMARK    6  A    between atoms: C_11  and  N_12
REMARK    7  A    between atoms: C_13  and  C_15
REMARK                            x       y       z     vdW  Elec       q    Type
REMARK                         _______ _______ _______ _____ _____    ______ ____
ROOT
ATOM      1  N   UNL     1      47.593   7.132  14.013  0.00  0.00    +0.000 N 
ATOM      2  C   UNL     1      46.856   6.230  13.292  0.00  0.00    +0.000 C 
ATOM      3  O   UNL     1      47.311   5.119  13.018  0.00  0.00    +0.000 OA
ATOM      4  H   UNL     1      47.156   7.936  14.452  0.00  0.00    +0.000 HD
ENDROOT
BRANCH   2   5
ATOM      5  C   UNL     1      45.500   6.694  12.740  0.00  0.00    +0.000 C 
ATOM      6  C   UNL     1      45.587   6.853  11.213  0.00  0.00    +0.000 C 
ATOM      7  C   UNL     1      45.674   5.496  10.508  0.00  0.00    +0.000 C 
ATOM      8  C   UNL     1      44.490   4.582  10.872  0.00  0.00    +0.000 C 
ATOM      9  C   UNL     1      44.327   4.468  12.395  0.00  0.00    +0.000 C 
ATOM     10  C   UNL     1      44.285   5.828  13.084  0.00  0.00    +0.000 C 
BRANCH   8  11
ATOM     11  C   UNL     1      44.652   3.175  10.273  0.00  0.00    +0.000 C 
BRANCH  11  12
ATOM     12  N   UNL     1      45.513   3.160   9.112  0.00  0.00    +0.000 N 
ATOM     13  C   UNL     1      45.796   2.007   8.420  0.00  0.00    +0.000 C 
ATOM     14  O   UNL     1      45.364   0.908   8.753  0.00  0.00    +0.000 OA
ATOM     15  H   UNL     1      45.851   4.044   8.760  0.00  0.00    +0.000 HD
BRANCH  13  16
ATOM     16  C   UNL     1      46.646   2.184   7.274  0.00  0.00    +0.000 A 
ATOM     17  C   UNL     1      46.599   3.025   6.179  0.00  0.00    +0.000 A 
ATOM     18  C   UNL     1      47.728   2.692   5.409  0.00  0.00    +0.000 A 
ATOM     19  N   UNL     1      48.452   1.720   5.966  0.00  0.00    +0.000 NA
ATOM     20  N   UNL     1      47.782   1.439   7.098  0.00  0.00    +0.000 N 
ATOM     21  H   UNL     1      48.148   0.727   7.724  0.00  0.00    +0.000 HD
ENDBRANCH  13  16
ENDBRANCH  11  12
ENDBRANCH   8  11
ENDBRANCH   2   5
BRANCH   1  22
ATOM     22  C   UNL     1      48.892   6.748  14.542  0.00  0.00    +0.000 C 
BRANCH  22  23
ATOM     23  C   UNL     1      48.807   6.706  16.055  0.00  0.00    +0.000 A 
ATOM     24  C   UNL     1      48.966   5.540  16.789  0.00  0.00    +0.000 A 
ATOM     25  S   UNL     1      48.764   5.765  18.470  0.00  0.00    +0.000 S 
ATOM     26  C   UNL     1      48.465   7.429  18.274  0.00  0.00    +0.000 A 
ATOM     27  N   UNL     1      48.196   8.232  19.338  0.00  0.00    +0.000 NA
ATOM     28  C   UNL     1      48.030   9.477  19.035  0.00  0.00    +0.000 A 
ATOM     29  N   UNL     1      48.092   9.991  17.762  0.00  0.00    +0.000 N 
ATOM     30  C   UNL     1      48.255   9.200  16.649  0.00  0.00    +0.000 A 
ATOM     31  O   UNL     1      48.123   9.627  15.506  0.00  0.00    +0.000 OA
ATOM     32  C   UNL     1      48.519   7.805  16.947  0.00  0.00    +0.000 A 
ATOM     33  H   UNL     1      47.918  10.972  17.598  0.00  0.00    +0.000 HD
ENDBRANCH  22  23
BRANCH  22  35
ATOM     34  N   UNL     1      50.814   8.350  13.699  0.00  0.00    +0.000 NA
ATOM     35  C   UNL     1      49.984   7.630  14.067  0.00  0.00    +0.000 C 
ENDBRANCH  22  35
ENDBRANCH   1  22
TORSDOF 7
ENDMDL
MODEL 3
REMARK VINA RESULT:    -7.250      4.059      8.933
REMARK INTER + INTRA:         -11.027
REMARK INTER:                 -10.219
REMARK INTRA:                  -0.808
REMARK UNBOUND:                -0.810
REMARK  Name = 
REMARK  7 active torsions:
REMARK  status: ('A' for Active; 'I' for Inactive)
REMARK    1  A    between atoms: C_2  and  C_3
REMARK    2  A    between atoms: C_3  and  N_4
REMARK    3  A    between atoms: C_3  and  C_22
REMARK    4  A    between atoms: C_5  and  C_7
REMARK    5  A    between atoms: C_10  and  C_11
REMARK    6  A    between atoms: C_11  and  N_12
REMARK    7  A    between atoms: C_13  and  C_15
REMARK                            x       y       z     vdW  Elec       q    Type
REMARK                         _______ _______ _______ _____ _____    ______ ____
ROOT
ATOM      1  N   UNL     1      46.353   4.802  14.823  0.00  0.00    +0.000 N 
ATOM      2  C   UNL     1      47.146   3.921  15.510  0.00  0.00    +0.000 C 
ATOM      3  O   UNL     1      47.767   3.038  14.918  0.00  0.00    +0.000 OA
ATOM      4  H   UNL     1      46.038   5.668  15.249  0.00  0.00    +0.000 HD
ENDROOT
BRANCH   2   5
ATOM      5  C   UNL     1      47.137   3.998  17.044  0.00  0.00    +0.000 C 
ATOM      6  C   UNL     1      47.688   2.688  17.633  0.00  0.00    +0.000 C 
ATOM      7  C   UNL     1      49.198   2.562  17.415  0.00  0.00    +0.000 C 
ATOM      8  C   UNL     1      49.965   3.761  17.999  0.00  0.00    +0.000 C 
ATOM      9  C   UNL     1      49.386   5.090  17.491  0.00  0.00    +0.000 C 
ATOM     10  C   UNL     1      47.874   5.180  17.677  0.00  0.00    +0.000 C 
BRANCH   8  11
ATOM     11  C   UNL     1      51.463   3.699  17.658  0.00  0.00    +0.000 C 
BRANCH  11  12
ATOM     12  N   UNL     1      52.075   2.452  18.059  0.00  0.00    +0.000 N 
ATOM     13  C   UNL     1      53.422   2.217  17.929  0.00  0.00    +0.000 C 
ATOM     14  O   UNL     1      54.196   3.034  17.441  0.00  0.00    +0.000 OA
ATOM     15  H   UNL     1      51.495   1.766  18.519  0.00  0.00    +0.000 HD
BRANCH  13  16
ATOM     16  C   UNL     1      53.860   0.934  18.406  0.00  0.00    +0.000 A 
ATOM     17  C   UNL     1      55.056   0.471  18.922  0.00  0.00    +0.000 A 
ATOM     18  C   UNL     1      54.838  -0.892  19.191  0.00  0.00    +0.000 A 
ATOM     19  N   UNL     1      53.599  -1.278  18.884  0.00  0.00    +0.000 NA
ATOM     20  N   UNL     1      53.025  -0.152  18.422  0.00  0.00    +0.000 N 
ATOM     21  H   UNL     1      52.052  -0.177  18.132  0.00  0.00    +0.000 HD
ENDBRANCH  13  16
ENDBRANCH  11  12
ENDBRANCH   8  11
ENDBRANCH   2   5
BRANCH   1  22
ATOM     22  C   UNL     1      46.312   4.758  13.369  0.00  0.00    +0.000 C 
BRANCH  22  23
ATOM     23  C   UNL     1      46.117   6.167  12.847  0.00  0.00    +0.000 A 
ATOM     24  C   UNL     1      44.963   6.580  12.197  0.00  0.00    +0.000 A 
ATOM     25  S   UNL     1      45.030   8.201  11.662  0.00  0.00    +0.000 S 
ATOM     26  C   UNL     1      46.599   8.407  12.287  0.00  0.00    +0.000 A 
ATOM     27  N   UNL     1      47.266   9.585  12.156  0.00  0.00    +0.000 NA
ATOM     28  C   UNL     1      48.430   9.601  12.716  0.00  0.00    +0.000 A 
ATOM     29  N   UNL     1      48.997   8.541  13.381  0.00  0.00    +0.000 N 
ATOM     30  C   UNL     1      48.404   7.302  13.445  0.00  0.00    +0.000 A 
ATOM     31  O   UNL     1      48.986   6.310  13.871  0.00  0.00    +0.000 OA
ATOM     32  C   UNL     1      47.063   7.258  12.894  0.00  0.00    +0.000 A 
ATOM     33  H   UNL     1      49.927   8.618  13.766  0.00  0.00    +0.000 HD
ENDBRANCH  22  23
BRANCH  22  35
ATOM     34  N   UNL     1      44.502   3.064  12.462  0.00  0.00    +0.000 NA
ATOM     35  C   UNL     1      45.283   3.824  12.857  0.00  0.00    +0.000 C 
ENDBRANCH  22  35
ENDBRANCH   1  22
TORSDOF 7
ENDMDL
MODEL 4
REMARK VINA RESULT:    -7.183      3.887      8.122
REMARK INTER + INTRA:         -10.933
REMARK INTER:                  -8.952
REMARK INTRA:                  -1.981
REMARK UNBOUND:                -0.810
REMARK  Name = 
REMARK  7 active torsions:
REMARK  status: ('A' for Active; 'I' for Inactive)
REMARK    1  A    between atoms: C_2  and  C_3
REMARK    2  A    between atoms: C_3  and  N_4
REMARK    3  A    between atoms: C_3  and  C_22
REMARK    4  A    between atoms: C_5  and  C_7
REMARK    5  A    between atoms: C_10  and  C_11
REMARK    6  A    between atoms: C_11  and  N_12
REMARK    7  A    between atoms: C_13  and  C_15
REMARK                            x       y       z     vdW  Elec       q    Type
REMARK                         _______ _______ _______ _____ _____    ______ ____
ROOT
ATOM      1  N   UNL     1      46.566   4.756  14.937  0.00  0.00    +0.000 N 
ATOM      2  C   UNL     1      47.268   3.794  15.613  0.00  0.00    +0.000 C 
ATOM      3  O   UNL     1      47.829   2.880  15.007  0.00  0.00    +0.000 OA
ATOM      4  H   UNL     1      46.313   5.633  15.383  0.00  0.00    +0.000 HD
ENDROOT
BRANCH   2   5
ATOM      5  C   UNL     1      47.229   3.825  17.148  0.00  0.00    +0.000 C 
ATOM      6  C   UNL     1      48.208   2.783  17.714  0.00  0.00    +0.000 C 
ATOM      7  C   UNL     1      49.664   3.207  17.509  0.00  0.00    +0.000 C 
ATOM      8  C   UNL     1      49.954   4.587  18.128  0.00  0.00    +0.000 C 
ATOM      9  C   UNL     1      48.941   5.634  17.642  0.00  0.00    +0.000 C 
ATOM     10  C   UNL     1      47.496   5.177  17.814  0.00  0.00    +0.000 C 
BRANCH   8  11
ATOM     11  C   UNL     1      51.377   5.069  17.801  0.00  0.00    +0.000 C 
BRANCH  11  12
ATOM     12  N   UNL     1      51.388   6.247  16.964  0.00  0.00    +0.000 N 
ATOM     13  C   UNL     1      52.479   6.606  16.211  0.00  0.00    +0.000 C 
ATOM     14  O   UNL     1      53.528   5.970  16.214  0.00  0.00    +0.000 OA
ATOM     15  H   UNL     1      50.533   6.777  16.880  0.00  0.00    +0.000 HD
BRANCH  13  16
ATOM     16  C   UNL     1      52.302   7.791  15.416  0.00  0.00    +0.000 A 
ATOM     17  C   UNL     1      52.314   9.141  15.711  0.00  0.00    +0.000 A 
ATOM     18  C   UNL     1      52.065   9.788  14.487  0.00  0.00    +0.000 A 
ATOM     19  N   UNL     1      51.913   8.926  13.481  0.00  0.00    +0.000 NA
ATOM     20  N   UNL     1      52.072   7.726  14.067  0.00  0.00    +0.000 N 
ATOM     21  H   UNL     1      52.020   6.887  13.497  0.00  0.00    +0.000 HD
ENDBRANCH  13  16
ENDBRANCH  11  12
ENDBRANCH   8  11
ENDBRANCH   2   5
BRANCH   1  22
ATOM     22  C   UNL     1      46.556   4.759  13.482  0.00  0.00    +0.000 C 
BRANCH  22  23
ATOM     23  C   UNL     1      46.260   6.166  13.002  0.00  0.00    +0.000 A 
ATOM     24  C   UNL     1      45.116   6.497  12.290  0.00  0.00    +0.000 A 
ATOM     25  S   UNL     1      45.060   8.139  11.823  0.00  0.00    +0.000 S 
ATOM     26  C   UNL     1      46.557   8.464  12.563  0.00  0.00    +0.000 A 
ATOM     27  N   UNL     1      47.113   9.704  12.524  0.00  0.00    +0.000 NA
ATOM     28  C   UNL     1      48.231   9.805  13.163  0.00  0.00    +0.000 A 
ATOM     29  N   UNL     1      48.854   8.775  13.825  0.00  0.00    +0.000 N 
ATOM     30  C   UNL     1      48.381   7.484  13.801  0.00  0.00    +0.000 A 
ATOM     31  O   UNL     1      49.028   6.533  14.228  0.00  0.00    +0.000 OA
ATOM     32  C   UNL     1      47.090   7.337  13.156  0.00  0.00    +0.000 A 
ATOM     33  H   UNL     1      49.745   8.922  14.276  0.00  0.00    +0.000 HD
ENDBRANCH  22  23
BRANCH  22  35
ATOM     34  N   UNL     1      44.859   2.986  12.510  0.00  0.00    +0.000 NA
ATOM     35  C   UNL     1      45.614   3.765  12.918  0.00  0.00    +0.000 C 
ENDBRANCH  22  35
ENDBRANCH   1  22
TORSDOF 7
ENDMDL
MODEL 5
REMARK VINA RESULT:    -6.838      3.992      5.963
REMARK INTER + INTRA:         -10.447
REMARK INTER:                  -8.982
REMARK INTRA:                  -1.465
REMARK UNBOUND:                -0.810
REMARK  Name = 
REMARK  7 active torsions:
REMARK  status: ('A' for Active; 'I' for Inactive)
REMARK    1  A    between atoms: C_2  and  C_3
REMARK    2  A    between atoms: C_3  and  N_4
REMARK    3  A    between atoms: C_3  and  C_22
REMARK    4  A    between atoms: C_5  and  C_7
REMARK    5  A    between atoms: C_10  and  C_11
REMARK    6  A    between atoms: C_11  and  N_12
REMARK    7  A    between atoms: C_13  and  C_15
REMARK                            x       y       z     vdW  Elec       q    Type
REMARK                         _______ _______ _______ _____ _____    ______ ____
ROOT
ATOM      1  N   UNL     1      48.816   7.410  17.907  0.00  0.00    +0.000 N 
ATOM      2  C   UNL     1      49.907   7.999  17.324  0.00  0.00    +0.000 C 
ATOM      3  O   UNL     1      51.049   7.685  17.662  0.00  0.00    +0.000 OA
ATOM      4  H   UNL     1      47.897   7.470  17.481  0.00  0.00    +0.000 HD
ENDROOT
BRANCH   2   5
ATOM      5  C   UNL     1      49.657   9.141  16.328  0.00  0.00    +0.000 C 
ATOM      6  C   UNL     1      50.693   9.078  15.193  0.00  0.00    +0.000 C 
ATOM      7  C   UNL     1      50.433   7.893  14.259  0.00  0.00    +0.000 C 
ATOM      8  C   UNL     1      49.012   7.926  13.668  0.00  0.00    +0.000 C 
ATOM      9  C   UNL     1      47.957   8.070  14.775  0.00  0.00    +0.000 C 
ATOM     10  C   UNL     1      48.254   9.229  15.722  0.00  0.00    +0.000 C 
BRANCH   8  11
ATOM     11  C   UNL     1      48.710   6.665  12.842  0.00  0.00    +0.000 C 
BRANCH  11  12
ATOM     12  N   UNL     1      47.302   6.342  12.812  0.00  0.00    +0.000 N 
ATOM     13  C   UNL     1      46.817   5.126  13.227  0.00  0.00    +0.000 C 
ATOM     14  O   UNL     1      47.542   4.220  13.625  0.00  0.00    +0.000 OA
ATOM     15  H   UNL     1      46.654   7.069  12.547  0.00  0.00    +0.000 HD
BRANCH  13  16
ATOM     16  C   UNL     1      45.387   4.990  13.156  0.00  0.00    +0.000 A 
ATOM     17  C   UNL     1      44.360   5.884  12.917  0.00  0.00    +0.000 A 
ATOM     18  C   UNL     1      43.181   5.118  12.992  0.00  0.00    +0.000 A 
ATOM     19  N   UNL     1      43.427   3.833  13.249  0.00  0.00    +0.000 NA
ATOM     20  N   UNL     1      44.769   3.780  13.331  0.00  0.00    +0.000 N 
ATOM     21  H   UNL     1      45.218   2.886  13.506  0.00  0.00    +0.000 HD
ENDBRANCH  13  16
ENDBRANCH  11  12
ENDBRANCH   8  11
ENDBRANCH   2   5
BRANCH   1  22
ATOM     22  C   UNL     1      49.001   6.336  18.871  0.00  0.00    +0.000 C 
BRANCH  22  23
ATOM     23  C   UNL     1      48.840   5.010  18.155  0.00  0.00    +0.000 A 
ATOM     24  C   UNL     1      47.640   4.592  17.599  0.00  0.00    +0.000 A 
ATOM     25  S   UNL     1      47.722   3.034  16.904  0.00  0.00    +0.000 S 
ATOM     26  C   UNL     1      49.364   2.869  17.316  0.00  0.00    +0.000 A 
ATOM     27  N   UNL     1      50.061   1.740  17.019  0.00  0.00    +0.000 NA
ATOM     28  C   UNL     1      51.307   1.779  17.359  0.00  0.00    +0.000 A 
ATOM     29  N   UNL     1      51.917   2.839  17.986  0.00  0.00    +0.000 N 
ATOM     30  C   UNL     1      51.227   3.954  18.400  0.00  0.00    +0.000 A 
ATOM     31  O   UNL     1      51.726   4.812  19.121  0.00  0.00    +0.000 OA
ATOM     32  C   UNL     1      49.841   3.986  17.973  0.00  0.00    +0.000 A 
ATOM     33  H   UNL     1      52.890   2.783  18.252  0.00  0.00    +0.000 HD
ENDBRANCH  22  23
BRANCH  22  35
ATOM     34  N   UNL     1      47.395   6.589  20.951  0.00  0.00    +0.000 NA
ATOM     35  C   UNL     1      48.096   6.457  20.037  0.00  0.00    +0.000 C 
ENDBRANCH  22  35
ENDBRANCH   1  22
TORSDOF 7
ENDMDL
MODEL 6
REMARK VINA RESULT:    -6.748      2.598      4.334
REMARK INTER + INTRA:         -10.319
REMARK INTER:                  -9.408
REMARK INTRA:                  -0.912
REMARK UNBOUND:                -0.810
REMARK  Name = 
REMARK  7 active torsions:
REMARK  status: ('A' for Active; 'I' for Inactive)
REMARK    1  A    between atoms: C_2  and  C_3
REMARK    2  A    between atoms: C_3  and  N_4
REMARK    3  A    between atoms: C_3  and  C_22
REMARK    4  A    between atoms: C_5  and  C_7
REMARK    5  A    between atoms: C_10  and  C_11
REMARK    6  A    between atoms: C_11  and  N_12
REMARK    7  A    between atoms: C_13  and  C_15
REMARK                            x       y       z     vdW  Elec       q    Type
REMARK                         _______ _______ _______ _____ _____    ______ ____
ROOT
ATOM      1  N   UNL     1      48.873   7.468  16.210  0.00  0.00    +0.000 N 
ATOM      2  C   UNL     1      49.856   7.532  15.258  0.00  0.00    +0.000 C 
ATOM      3  O   UNL     1      50.961   7.027  15.457  0.00  0.00    +0.000 OA
ATOM      4  H   UNL     1      47.902   7.653  15.977  0.00  0.00    +0.000 HD
ENDROOT
BRANCH   2   5
ATOM      5  C   UNL     1      49.572   8.354  13.991  0.00  0.00    +0.000 C 
ATOM      6  C   UNL     1      49.540   7.425  12.765  0.00  0.00    +0.000 C 
ATOM      7  C   UNL     1      48.288   6.545  12.757  0.00  0.00    +0.000 C 
ATOM      8  C   UNL     1      46.997   7.380  12.813  0.00  0.00    +0.000 C 
ATOM      9  C   UNL     1      47.033   8.375  13.983  0.00  0.00    +0.000 C 
ATOM     10  C   UNL     1      48.307   9.214  14.000  0.00  0.00    +0.000 C 
BRANCH   8  11
ATOM     11  C   UNL     1      45.749   6.491  12.943  0.00  0.00    +0.000 C 
BRANCH  11  12
ATOM     12  N   UNL     1      45.498   5.706  11.756  0.00  0.00    +0.000 N 
ATOM     13  C   UNL     1      45.258   4.354  11.804  0.00  0.00    +0.000 C 
ATOM     14  O   UNL     1      45.265   3.713  12.851  0.00  0.00    +0.000 OA
ATOM     15  H   UNL     1      45.425   6.190  10.873  0.00  0.00    +0.000 HD
BRANCH  13  16
ATOM     16  C   UNL     1      45.000   3.741  10.530  0.00  0.00    +0.000 A 
ATOM     17  C   UNL     1      44.968   4.222   9.235  0.00  0.00    +0.000 A 
ATOM     18  C   UNL     1      44.644   3.109   8.436  0.00  0.00    +0.000 A 
ATOM     19  N   UNL     1      44.488   1.998   9.156  0.00  0.00    +0.000 NA
ATOM     20  N   UNL     1      44.720   2.404  10.417  0.00  0.00    +0.000 N 
ATOM     21  H   UNL     1      44.679   1.724  11.171  0.00  0.00    +0.000 HD
ENDBRANCH  13  16
ENDBRANCH  11  12
ENDBRANCH   8  11
ENDBRANCH   2   5
BRANCH   1  22
ATOM     22  C   UNL     1      49.099   6.718  17.436  0.00  0.00    +0.000 C 
BRANCH  22  23
ATOM     23  C   UNL     1      48.921   5.242  17.141  0.00  0.00    +0.000 A 
ATOM     24  C   UNL     1      47.724   4.700  16.696  0.00  0.00    +0.000 A 
ATOM     25  S   UNL     1      47.781   3.004  16.497  0.00  0.00    +0.000 S 
ATOM     26  C   UNL     1      49.409   2.940  16.989  0.00  0.00    +0.000 A 
ATOM     27  N   UNL     1      50.082   1.761  17.061  0.00  0.00    +0.000 NA
ATOM     28  C   UNL     1      51.320   1.877  17.412  0.00  0.00    +0.000 A 
ATOM     29  N   UNL     1      51.943   3.063  17.716  0.00  0.00    +0.000 N 
ATOM     30  C   UNL     1      51.273   4.264  17.759  0.00  0.00    +0.000 A 
ATOM     31  O   UNL     1      51.777   5.288  18.210  0.00  0.00    +0.000 OA
ATOM     32  C   UNL     1      49.899   4.192  17.300  0.00  0.00    +0.000 A 
ATOM     33  H   UNL     1      52.907   3.072  18.016  0.00  0.00    +0.000 HD
ENDBRANCH  22  23
BRANCH  22  35
ATOM     34  N   UNL     1      47.593   7.546  19.439  0.00  0.00    +0.000 NA
ATOM     35  C   UNL     1      48.237   7.175  18.550  0.00  0.00    +0.000 C 
ENDBRANCH  22  35
ENDBRANCH   1  22
TORSDOF 7
ENDMDL
MODEL 7
REMARK VINA RESULT:    -6.740      3.889      7.541
REMARK INTER + INTRA:         -10.308
REMARK INTER:                  -8.732
REMARK INTRA:                  -1.576
REMARK UNBOUND:                -0.810
REMARK  Name = 
REMARK  7 active torsions:
REMARK  status: ('A' for Active; 'I' for Inactive)
REMARK    1  A    between atoms: C_2  and  C_3
REMARK    2  A    between atoms: C_3  and  N_4
REMARK    3  A    between atoms: C_3  and  C_22
REMARK    4  A    between atoms: C_5  and  C_7
REMARK    5  A    between atoms: C_10  and  C_11
REMARK    6  A    between atoms: C_11  and  N_12
REMARK    7  A    between atoms: C_13  and  C_15
REMARK                            x       y       z     vdW  Elec       q    Type
REMARK                         _______ _______ _______ _____ _____    ______ ____
ROOT
ATOM      1  N   UNL     1      46.738   8.135  11.911  0.00  0.00    +0.000 N 
ATOM      2  C   UNL     1      47.442   9.283  12.160  0.00  0.00    +0.000 C 
ATOM      3  O   UNL     1      46.869  10.302  12.548  0.00  0.00    +0.000 OA
ATOM      4  H   UNL     1      47.207   7.237  11.833  0.00  0.00    +0.000 HD
ENDROOT
BRANCH   2   5
ATOM      5  C   UNL     1      48.940   9.291  11.824  0.00  0.00    +0.000 C 
ATOM      6  C   UNL     1      49.661  10.341  12.686  0.00  0.00    +0.000 C 
ATOM      7  C   UNL     1      49.752   9.904  14.150  0.00  0.00    +0.000 C 
ATOM      8  C   UNL     1      50.448   8.539  14.300  0.00  0.00    +0.000 C 
ATOM      9  C   UNL     1      49.800   7.485  13.389  0.00  0.00    +0.000 C 
ATOM     10  C   UNL     1      49.678   7.955  11.943  0.00  0.00    +0.000 C 
BRANCH   8  11
ATOM     11  C   UNL     1      50.415   8.040  15.754  0.00  0.00    +0.000 C 
BRANCH  11  12
ATOM     12  N   UNL     1      49.739   6.770  15.892  0.00  0.00    +0.000 N 
ATOM     13  C   UNL     1      49.194   6.351  17.081  0.00  0.00    +0.000 C 
ATOM     14  O   UNL     1      49.264   7.009  18.114  0.00  0.00    +0.000 OA
ATOM     15  H   UNL     1      49.603   6.212  15.062  0.00  0.00    +0.000 HD
BRANCH  13  16
ATOM     16  C   UNL     1      48.535   5.074  17.027  0.00  0.00    +0.000 A 
ATOM     17  C   UNL     1      48.989   3.770  17.074  0.00  0.00    +0.000 A 
ATOM     18  C   UNL     1      47.834   2.974  16.963  0.00  0.00    +0.000 A 
ATOM     19  N   UNL     1      46.723   3.704  16.861  0.00  0.00    +0.000 NA
ATOM     20  N   UNL     1      47.173   4.971  16.914  0.00  0.00    +0.000 N 
ATOM     21  H   UNL     1      46.505   5.734  16.874  0.00  0.00    +0.000 HD
ENDBRANCH  13  16
ENDBRANCH  11  12
ENDBRANCH   8  11
ENDBRANCH   2   5
BRANCH   1  22
ATOM     22  C   UNL     1      45.312   8.082  12.194  0.00  0.00    +0.000 C 
BRANCH  22  23
ATOM     23  C   UNL     1      44.824   6.666  11.964  0.00  0.00    +0.000 A 
ATOM     24  C   UNL     1      43.712   6.367  11.190  0.00  0.00    +0.000 A 
ATOM     25  S   UNL     1      43.348   4.699  11.143  0.00  0.00    +0.000 S 
ATOM     26  C   UNL     1      44.668   4.320  12.147  0.00  0.00    +0.000 A 
ATOM     27  N   UNL     1      44.931   3.039  12.521  0.00  0.00    +0.000 NA
ATOM     28  C   UNL     1      45.989   2.906  13.252  0.00  0.00    +0.000 A 
ATOM     29  N   UNL     1      46.799   3.939  13.658  0.00  0.00    +0.000 N 
ATOM     30  C   UNL     1      46.511   5.257  13.392  0.00  0.00    +0.000 A 
ATOM     31  O   UNL     1      47.124   6.186  13.908  0.00  0.00    +0.000 OA
ATOM     32  C   UNL     1      45.374   5.449  12.512  0.00  0.00    +0.000 A 
ATOM     33  H   UNL     1      47.592   3.760  14.257  0.00  0.00    +0.000 HD
ENDBRANCH  22  23
BRANCH  22  35
ATOM     34  N   UNL     1      43.938   9.877  10.831  0.00  0.00    +0.000 NA
ATOM     35  C   UNL     1      44.540   9.075  11.413  0.00  0.00    +0.000 C 
ENDBRANCH  22  35
ENDBRANCH   1  22
TORSDOF 7
ENDMDL
MODEL 8
REMARK VINA RESULT:    -6.521      2.395      3.834
REMARK INTER + INTRA:         -10.000
REMARK INTER:                  -8.611
REMARK INTRA:                  -1.389
REMARK UNBOUND:                -0.810
REMARK  Name = 
REMARK  7 active torsions:
REMARK  status: ('A' for Active; 'I' for Inactive)
REMARK    1  A    between atoms: C_2  and  C_3
REMARK    2  A    between atoms: C_3  and  N_4
REMARK    3  A    between atoms: C_3  and  C_22
REMARK    4  A    between atoms: C_5  and  C_7
REMARK    5  A    between atoms: C_10  and  C_11
REMARK    6  A    between atoms: C_11  and  N_12
REMARK    7  A    between atoms: C_13  and  C_15
REMARK                            x       y       z     vdW  Elec       q    Type
REMARK                         _______ _______ _______ _____ _____    ______ ____
ROOT
ATOM      1  N   UNL     1      49.774   9.013  15.175  0.00  0.00    +0.000 N 
ATOM      2  C   UNL     1      50.074   8.825  13.851  0.00  0.00    +0.000 C 
ATOM      3  O   UNL     1      51.117   8.264  13.515  0.00  0.00    +0.000 OA
ATOM      4  H   UNL     1      48.830   9.242  15.473  0.00  0.00    +0.000 HD
ENDROOT
BRANCH   2   5
ATOM      5  C   UNL     1      49.128   9.441  12.810  0.00  0.00    +0.000 C 
ATOM      6  C   UNL     1      49.026   8.513  11.587  0.00  0.00    +0.000 C 
ATOM      7  C   UNL     1      48.228   7.246  11.906  0.00  0.00    +0.000 C 
ATOM      8  C   UNL     1      46.819   7.571  12.434  0.00  0.00    +0.000 C 
ATOM      9  C   UNL     1      46.883   8.561  13.607  0.00  0.00    +0.000 C 
ATOM     10  C   UNL     1      47.718   9.797  13.286  0.00  0.00    +0.000 C 
BRANCH   8  11
ATOM     11  C   UNL     1      46.073   6.304  12.882  0.00  0.00    +0.000 C 
BRANCH  11  12
ATOM     12  N   UNL     1      45.952   5.326  11.825  0.00  0.00    +0.000 N 
ATOM     13  C   UNL     1      44.788   5.144  11.119  0.00  0.00    +0.000 C 
ATOM     14  O   UNL     1      43.762   5.776  11.351  0.00  0.00    +0.000 OA
ATOM     15  H   UNL     1      46.780   4.816  11.553  0.00  0.00    +0.000 HD
BRANCH  13  16
ATOM     16  C   UNL     1      44.858   4.148  10.084  0.00  0.00    +0.000 A 
ATOM     17  C   UNL     1      44.996   4.215   8.711  0.00  0.00    +0.000 A 
ATOM     18  C   UNL     1      44.986   2.877   8.274  0.00  0.00    +0.000 A 
ATOM     19  N   UNL     1      44.860   2.015   9.284  0.00  0.00    +0.000 NA
ATOM     20  N   UNL     1      44.797   2.809  10.368  0.00  0.00    +0.000 N 
ATOM     21  H   UNL     1      44.716   2.383  11.287  0.00  0.00    +0.000 HD
ENDBRANCH  13  16
ENDBRANCH  11  12
ENDBRANCH   8  11
ENDBRANCH   2   5
BRANCH   1  22
ATOM     22  C   UNL     1      50.647   8.465  16.201  0.00  0.00    +0.000 C 
BRANCH  22  23
ATOM     23  C   UNL     1      49.792   7.945  17.339  0.00  0.00    +0.000 A 
ATOM     24  C   UNL     1      49.822   8.489  18.615  0.00  0.00    +0.000 A 
ATOM     25  S   UNL     1      48.803   7.677  19.720  0.00  0.00    +0.000 S 
ATOM     26  C   UNL     1      48.283   6.579  18.529  0.00  0.00    +0.000 A 
ATOM     27  N   UNL     1      47.398   5.587  18.816  0.00  0.00    +0.000 NA
ATOM     28  C   UNL     1      47.069   4.859  17.801  0.00  0.00    +0.000 A 
ATOM     29  N   UNL     1      47.558   5.020  16.526  0.00  0.00    +0.000 N 
ATOM     30  C   UNL     1      48.532   5.939  16.216  0.00  0.00    +0.000 A 
ATOM     31  O   UNL     1      49.103   5.959  15.130  0.00  0.00    +0.000 OA
ATOM     32  C   UNL     1      48.878   6.828  17.309  0.00  0.00    +0.000 A 
ATOM     33  H   UNL     1      47.279   4.389  15.789  0.00  0.00    +0.000 HD
ENDBRANCH  22  23
BRANCH  22  35
ATOM     34  N   UNL     1      52.434  10.212  17.053  0.00  0.00    +0.000 NA
ATOM     35  C   UNL     1      51.663   9.439  16.663  0.00  0.00    +0.000 C 
ENDBRANCH  22  35
ENDBRANCH   1  22
TORSDOF 7
ENDMDL
MODEL 9
REMARK VINA RESULT:    -6.447      2.452      4.500
REMARK INTER + INTRA:          -9.895
REMARK INTER:                  -9.212
REMARK INTRA:                  -0.684
REMARK UNBOUND:                -0.810
REMARK  Name = 
REMARK  7 active torsions:
REMARK  status: ('A' for Active; 'I' for Inactive)
REMARK    1  A    between atoms: C_2  and  C_3
REMARK    2  A    between atoms: C_3  and  N_4
REMARK    3  A    between atoms: C_3  and  C_22
REMARK    4  A    between atoms: C_5  and  C_7
REMARK    5  A    between atoms: C_10  and  C_11
REMARK    6  A    between atoms: C_11  and  N_12
REMARK    7  A    between atoms: C_13  and  C_15
REMARK                            x       y       z     vdW  Elec       q    Type
REMARK                         _______ _______ _______ _____ _____    ______ ____
ROOT
ATOM      1  N   UNL     1      48.527   6.151  16.390  0.00  0.00    +0.000 N 
ATOM      2  C   UNL     1      48.641   7.500  16.179  0.00  0.00    +0.000 C 
ATOM      3  O   UNL     1      48.203   8.306  17.001  0.00  0.00    +0.000 OA
ATOM      4  H   UNL     1      49.086   5.488  15.862  0.00  0.00    +0.000 HD
ENDROOT
BRANCH   2   5
ATOM      5  C   UNL     1      49.222   7.967  14.836  0.00  0.00    +0.000 C 
ATOM      6  C   UNL     1      49.228   6.798  13.837  0.00  0.00    +0.000 C 
ATOM      7  C   UNL     1      47.813   6.448  13.370  0.00  0.00    +0.000 C 
ATOM      8  C   UNL     1      47.095   7.661  12.751  0.00  0.00    +0.000 C 
ATOM      9  C   UNL     1      47.142   8.872  13.694  0.00  0.00    +0.000 C 
ATOM     10  C   UNL     1      48.554   9.180  14.184  0.00  0.00    +0.000 C 
BRANCH   8  11
ATOM     11  C   UNL     1      45.630   7.342  12.409  0.00  0.00    +0.000 C 
BRANCH  11  12
ATOM     12  N   UNL     1      45.504   6.410  11.312  0.00  0.00    +0.000 N 
ATOM     13  C   UNL     1      44.993   5.145  11.474  0.00  0.00    +0.000 C 
ATOM     14  O   UNL     1      44.634   4.707  12.562  0.00  0.00    +0.000 OA
ATOM     15  H   UNL     1      45.732   6.736  10.384  0.00  0.00    +0.000 HD
BRANCH  13  16
ATOM     16  C   UNL     1      44.914   4.366  10.268  0.00  0.00    +0.000 A 
ATOM     17  C   UNL     1      44.510   3.072   9.999  0.00  0.00    +0.000 A 
ATOM     18  C   UNL     1      44.685   2.913   8.612  0.00  0.00    +0.000 A 
ATOM     19  N   UNL     1      45.155   4.016   8.031  0.00  0.00    +0.000 NA
ATOM     20  N   UNL     1      45.274   4.884   9.052  0.00  0.00    +0.000 N 
ATOM     21  H   UNL     1      45.604   5.826   8.863  0.00  0.00    +0.000 HD
ENDBRANCH  13  16
ENDBRANCH  11  12
ENDBRANCH   8  11
ENDBRANCH   2   5
BRANCH   1  22
ATOM     22  C   UNL     1      47.966   5.657  17.638  0.00  0.00    +0.000 C 
BRANCH  22  23
ATOM     23  C   UNL     1      49.066   5.610  18.679  0.00  0.00    +0.000 A 
ATOM     24  C   UNL     1      49.086   6.435  19.795  0.00  0.00    +0.000 A 
ATOM     25  S   UNL     1      50.468   6.214  20.774  0.00  0.00    +0.000 S 
ATOM     26  C   UNL     1      51.081   5.006  19.746  0.00  0.00    +0.000 A 
ATOM     27  N   UNL     1      52.268   4.392  19.999  0.00  0.00    +0.000 NA
ATOM     28  C   UNL     1      52.581   3.470  19.151  0.00  0.00    +0.000 A 
ATOM     29  N   UNL     1      51.824   3.115  18.060  0.00  0.00    +0.000 N 
ATOM     30  C   UNL     1      50.673   3.780  17.708  0.00  0.00    +0.000 A 
ATOM     31  O   UNL     1      50.100   3.593  16.639  0.00  0.00    +0.000 OA
ATOM     32  C   UNL     1      50.244   4.775  18.672  0.00  0.00    +0.000 A 
ATOM     33  H   UNL     1      52.150   2.405  17.421  0.00  0.00    +0.000 HD
ENDBRANCH  22  23
BRANCH  22  35
ATOM     34  N   UNL     1      46.774   3.315  17.389  0.00  0.00    +0.000 NA
ATOM     35  C   UNL     1      47.289   4.349  17.479  0.00  0.00    +0.000 C 
ENDBRANCH  22  35
ENDBRANCH   1  22
TORSDOF 7
ENDMDL
