MODEL 1
REMARK VINA RESULT:    -7.234      0.000      0.000
REMARK INTER + INTRA:          -9.886
REMARK INTER:                  -9.137
REMARK INTRA:                  -0.749
REMARK UNBOUND:                -0.749
REMARK  Name = 
REMARK  5 active torsions:
REMARK  status: ('A' for Active; 'I' for Inactive)
REMARK    1  A    between atoms: N_1  and  C_2
REMARK    2  A    between atoms: C_2  and  C_3
REMARK    3  A    between atoms: C_6  and  O_7
REMARK    4  A    between atoms: O_7  and  C_8
REMARK    5  A    between atoms: C_8  and  C_9
REMARK                            x       y       z     vdW  Elec       q    Type
REMARK                         _______ _______ _______ _____ _____    ______ ____
ROOT
ATOM      1  C   UNL     1      46.558   2.385   7.673  0.00  0.00    +0.000 A 
ATOM      2  C   UNL     1      46.442   3.776   7.543  0.00  0.00    +0.000 A 
ATOM      3  C   UNL     1      45.451   4.476   8.238  0.00  0.00    +0.000 A 
ATOM      4  C   UNL     1      44.557   3.794   9.063  0.00  0.00    +0.000 A 
ATOM      5  C   UNL     1      44.700   2.415   9.236  0.00  0.00    +0.000 A 
ATOM      6  C   UNL     1      45.684   1.715   8.537  0.00  0.00    +0.000 A 
ENDROOT
BRANCH   1   7
ATOM      7  C   UNL     1      47.584   1.614   6.885  0.00  0.00    +0.000 C 
BRANCH   7   8
ATOM      8  N   UNL     1      48.699   2.460   6.482  0.00  0.00    +0.000 NA
ATOM      9  H   UNL     1      49.499   2.261   7.080  0.00  0.00    +0.000 HD
ATOM     10  H   UNL     1      48.447   3.433   6.650  0.00  0.00    +0.000 HD
ENDBRANCH   7   8
ENDBRANCH   1   7
BRANCH   4  11
ATOM     11  O   UNL     1      43.580   4.557   9.648  0.00  0.00    +0.000 OA
BRANCH  11  12
ATOM     12  C   UNL     1      43.537   4.472  11.079  0.00  0.00    +0.000 C 
BRANCH  12  13
ATOM     13  C   UNL     1      44.565   5.378  11.719  0.00  0.00    +0.000 A 
ATOM     14  C   UNL     1      44.494   6.769  11.536  0.00  0.00    +0.000 A 
ATOM     15  C   UNL     1      45.442   7.617  12.114  0.00  0.00    +0.000 A 
ATOM     16  C   UNL     1      46.483   7.090  12.873  0.00  0.00    +0.000 A 
ATOM     17  C   UNL     1      46.588   5.711  13.040  0.00  0.00    +0.000 A 
ATOM     18  C   UNL     1      45.645   4.859  12.457  0.00  0.00    +0.000 A 
ATOM     19 CL   UNL     1      45.885   3.158  12.668  0.00  0.00    +0.000 Cl
ENDBRANCH  12  13
ENDBRANCH  11  12
ENDBRANCH   4  11
TORSDOF 5
ENDMDL
MODEL 2
REMARK VINA RESULT:    -7.197      1.291      1.843
REMARK INTER + INTRA:          -9.839
REMARK INTER:                  -9.254
REMARK INTRA:                  -0.585
REMARK UNBOUND:                -0.749
REMARK  Name = 
REMARK  5 active torsions:
REMARK  status: ('A' for Active; 'I' for Inactive)
REMARK    1  A    between atoms: N_1  and  C_2
REMARK    2  A    between atoms: C_2  and  C_3
REMARK    3  A    between atoms: C_6  and  O_7
REMARK    4  A    between atoms: O_7  and  C_8
REMARK    5  A    between atoms: C_8  and  C_9
REMARK                            x       y       z     vdW  Elec       q    Type
REMARK                         _______ _______ _______ _____ _____    ______ ____
ROOT
ATOM      1  C   UNL     1      46.617   2.337   7.585  0.00  0.00    +0.000 A 
ATOM      2  C   UNL     1      46.485   3.732   7.555  0.00  0.00    +0.000 A 
ATOM      3  C   UNL     1      45.511   4.373   8.325  0.00  0.00    +0.000 A 
ATOM      4  C   UNL     1      44.648   3.627   9.127  0.00  0.00    +0.000 A 
ATOM      5  C   UNL     1      44.807   2.241   9.201  0.00  0.00    +0.000 A 
ATOM      6  C   UNL     1      45.775   1.600   8.427  0.00  0.00    +0.000 A 
ENDROOT
BRANCH   1   7
ATOM      7  C   UNL     1      47.626   1.632   6.717  0.00  0.00    +0.000 C 
BRANCH   7   8
ATOM      8  N   UNL     1      48.702   2.525   6.309  0.00  0.00    +0.000 NA
ATOM      9  H   UNL     1      49.579   2.188   6.702  0.00  0.00    +0.000 HD
ATOM     10  H   UNL     1      48.535   3.443   6.718  0.00  0.00    +0.000 HD
ENDBRANCH   7   8
ENDBRANCH   1   7
BRANCH   4  11
ATOM     11  O   UNL     1      43.682   4.338   9.791  0.00  0.00    +0.000 OA
BRANCH  11  12
ATOM     12  C   UNL     1      43.542   3.997  11.177  0.00  0.00    +0.000 C 
BRANCH  12  13
ATOM     13  C   UNL     1      44.752   4.421  11.978  0.00  0.00    +0.000 A 
ATOM     14  C   UNL     1      45.523   3.464  12.658  0.00  0.00    +0.000 A 
ATOM     15  C   UNL     1      46.638   3.843  13.408  0.00  0.00    +0.000 A 
ATOM     16  C   UNL     1      46.994   5.186  13.504  0.00  0.00    +0.000 A 
ATOM     17  C   UNL     1      46.224   6.153  12.862  0.00  0.00    +0.000 A 
ATOM     18  C   UNL     1      45.103   5.777  12.115  0.00  0.00    +0.000 A 
ATOM     19 CL   UNL     1      44.173   7.049  11.401  0.00  0.00    +0.000 Cl
ENDBRANCH  12  13
ENDBRANCH  11  12
ENDBRANCH   4  11
TORSDOF 5
ENDMDL
MODEL 3
REMARK VINA RESULT:    -6.595      2.595      5.608
REMARK INTER + INTRA:          -9.079
REMARK INTER:                  -8.577
REMARK INTRA:                  -0.502
REMARK UNBOUND:                -0.749
REMARK  Name = 
REMARK  5 active torsions:
REMARK  status: ('A' for Active; 'I' for Inactive)
REMARK    1  A    between atoms: N_1  and  C_2
REMARK    2  A    between atoms: C_2  and  C_3
REMARK    3  A    between atoms: C_6  and  O_7
REMARK    4  A    between atoms: O_7  and  C_8
REMARK    5  A    between atoms: C_8  and  C_9
REMARK                            x       y       z     vdW  Elec       q    Type
REMARK                         _______ _______ _______ _____ _____    ______ ____
ROOT
ATOM      1  C   UNL     1      46.431   4.783  13.359  0.00  0.00    +0.000 A 
ATOM      2  C   UNL     1      46.805   5.944  12.667  0.00  0.00    +0.000 A 
ATOM      3  C   UNL     1      46.403   6.145  11.343  0.00  0.00    +0.000 A 
ATOM      4  C   UNL     1      45.631   5.183  10.691  0.00  0.00    +0.000 A 
ATOM      5  C   UNL     1      45.212   4.050  11.391  0.00  0.00    +0.000 A 
ATOM      6  C   UNL     1      45.620   3.845  12.710  0.00  0.00    +0.000 A 
ENDROOT
BRANCH   1   7
ATOM      7  C   UNL     1      46.905   4.530  14.766  0.00  0.00    +0.000 C 
BRANCH   7   8
ATOM      8  N   UNL     1      47.547   3.229  14.891  0.00  0.00    +0.000 NA
ATOM      9  H   UNL     1      47.278   2.811  15.780  0.00  0.00    +0.000 HD
ATOM     10  H   UNL     1      48.556   3.365  14.929  0.00  0.00    +0.000 HD
ENDBRANCH   7   8
ENDBRANCH   1   7
BRANCH   4  11
ATOM     11  O   UNL     1      45.345   5.438   9.375  0.00  0.00    +0.000 OA
BRANCH  11  12
ATOM     12  C   UNL     1      44.712   4.352   8.684  0.00  0.00    +0.000 C 
BRANCH  12  13
ATOM     13  C   UNL     1      45.730   3.393   8.108  0.00  0.00    +0.000 A 
ATOM     14  C   UNL     1      46.755   3.866   7.272  0.00  0.00    +0.000 A 
ATOM     15  C   UNL     1      47.696   2.990   6.726  0.00  0.00    +0.000 A 
ATOM     16  C   UNL     1      47.623   1.626   6.996  0.00  0.00    +0.000 A 
ATOM     17  C   UNL     1      46.595   1.134   7.798  0.00  0.00    +0.000 A 
ATOM     18  C   UNL     1      45.647   2.007   8.341  0.00  0.00    +0.000 A 
ATOM     19 CL   UNL     1      44.375   1.303   9.277  0.00  0.00    +0.000 Cl
ENDBRANCH  12  13
ENDBRANCH  11  12
ENDBRANCH   4  11
TORSDOF 5
ENDMDL
MODEL 4
REMARK VINA RESULT:    -6.167      2.788      5.987
REMARK INTER + INTRA:          -8.538
REMARK INTER:                  -7.850
REMARK INTRA:                  -0.688
REMARK UNBOUND:                -0.749
REMARK  Name = 
REMARK  5 active torsions:
REMARK  status: ('A' for Active; 'I' for Inactive)
REMARK    1  A    between atoms: N_1  and  C_2
REMARK    2  A    between atoms: C_2  and  C_3
REMARK    3  A    between atoms: C_6  and  O_7
REMARK    4  A    between atoms: O_7  and  C_8
REMARK    5  A    between atoms: C_8  and  C_9
REMARK                            x       y       z     vdW  Elec       q    Type
REMARK                         _______ _______ _______ _____ _____    ______ ____
ROOT
ATOM      1  C   UNL     1      45.259   6.563  12.413  0.00  0.00    +0.000 A 
ATOM      2  C   UNL     1      44.237   6.295  11.491  0.00  0.00    +0.000 A 
ATOM      3  C   UNL     1      44.044   5.001  10.999  0.00  0.00    +0.000 A 
ATOM      4  C   UNL     1      44.876   3.962  11.413  0.00  0.00    +0.000 A 
ATOM      5  C   UNL     1      45.862   4.212  12.370  0.00  0.00    +0.000 A 
ATOM      6  C   UNL     1      46.060   5.505  12.856  0.00  0.00    +0.000 A 
ENDROOT
BRANCH   1   7
ATOM      7  C   UNL     1      45.512   7.964  12.907  0.00  0.00    +0.000 C 
BRANCH   7   8
ATOM      8  N   UNL     1      44.627   8.928  12.267  0.00  0.00    +0.000 NA
ATOM      9  H   UNL     1      45.020   9.861  12.374  0.00  0.00    +0.000 HD
ATOM     10  H   UNL     1      43.737   8.931  12.763  0.00  0.00    +0.000 HD
ENDBRANCH   7   8
ENDBRANCH   1   7
BRANCH   4  11
ATOM     11  O   UNL     1      44.652   2.744  10.824  0.00  0.00    +0.000 OA
BRANCH  11  12
ATOM     12  C   UNL     1      44.311   2.811   9.433  0.00  0.00    +0.000 C 
BRANCH  12  13
ATOM     13  C   UNL     1      45.465   2.376   8.558  0.00  0.00    +0.000 A 
ATOM     14  C   UNL     1      45.739   1.011   8.372  0.00  0.00    +0.000 A 
ATOM     15  C   UNL     1      46.807   0.596   7.574  0.00  0.00    +0.000 A 
ATOM     16  C   UNL     1      47.628   1.537   6.958  0.00  0.00    +0.000 A 
ATOM     17  C   UNL     1      47.391   2.895   7.154  0.00  0.00    +0.000 A 
ATOM     18  C   UNL     1      46.327   3.314   7.958  0.00  0.00    +0.000 A 
ATOM     19 CL   UNL     1      46.143   5.018   8.193  0.00  0.00    +0.000 Cl
ENDBRANCH  12  13
ENDBRANCH  11  12
ENDBRANCH   4  11
TORSDOF 5
ENDMDL
MODEL 5
REMARK VINA RESULT:    -5.584      2.821      5.849
REMARK INTER + INTRA:          -7.802
REMARK INTER:                  -7.362
REMARK INTRA:                  -0.440
REMARK UNBOUND:                -0.749
REMARK  Name = 
REMARK  5 active torsions:
REMARK  status: ('A' for Active; 'I' for Inactive)
REMARK    1  A    between atoms: N_1  and  C_2
REMARK    2  A    between atoms: C_2  and  C_3
REMARK    3  A    between atoms: C_6  and  O_7
REMARK    4  A    between atoms: O_7  and  C_8
REMARK    5  A    between atoms: C_8  and  C_9
REMARK                            x       y       z     vdW  Elec       q    Type
REMARK                         _______ _______ _______ _____ _____    ______ ____
ROOT
ATOM      1  C   UNL     1      48.138   6.886  14.057  0.00  0.00    +0.000 A 
ATOM      2  C   UNL     1      47.882   7.950  13.181  0.00  0.00    +0.000 A 
ATOM      3  C   UNL     1      46.929   7.825  12.166  0.00  0.00    +0.000 A 
ATOM      4  C   UNL     1      46.228   6.630  12.007  0.00  0.00    +0.000 A 
ATOM      5  C   UNL     1      46.440   5.585  12.909  0.00  0.00    +0.000 A 
ATOM      6  C   UNL     1      47.397   5.707  13.917  0.00  0.00    +0.000 A 
ENDROOT
BRANCH   1   7
ATOM      7  C   UNL     1      49.202   6.991  15.118  0.00  0.00    +0.000 C 
BRANCH   7   8
ATOM      8  N   UNL     1      50.527   7.156  14.535  0.00  0.00    +0.000 NA
ATOM      9  H   UNL     1      50.811   6.279  14.104  0.00  0.00    +0.000 HD
ATOM     10  H   UNL     1      51.192   7.338  15.285  0.00  0.00    +0.000 HD
ENDBRANCH   7   8
ENDBRANCH   1   7
BRANCH   4  11
ATOM     11  O   UNL     1      45.364   6.580  10.943  0.00  0.00    +0.000 OA
BRANCH  11  12
ATOM     12  C   UNL     1      44.446   5.478  10.975  0.00  0.00    +0.000 C 
BRANCH  12  13
ATOM     13  C   UNL     1      44.838   4.401   9.989  0.00  0.00    +0.000 A 
ATOM     14  C   UNL     1      45.599   4.722   8.854  0.00  0.00    +0.000 A 
ATOM     15  C   UNL     1      45.961   3.739   7.930  0.00  0.00    +0.000 A 
ATOM     16  C   UNL     1      45.557   2.419   8.119  0.00  0.00    +0.000 A 
ATOM     17  C   UNL     1      44.776   2.086   9.224  0.00  0.00    +0.000 A 
ATOM     18  C   UNL     1      44.407   3.070  10.146  0.00  0.00    +0.000 A 
ATOM     19 CL   UNL     1      43.389   2.577  11.455  0.00  0.00    +0.000 Cl
ENDBRANCH  12  13
ENDBRANCH  11  12
ENDBRANCH   4  11
TORSDOF 5
ENDMDL
MODEL 6
REMARK VINA RESULT:    -5.276      4.793      6.650
REMARK INTER + INTRA:          -7.413
REMARK INTER:                  -6.946
REMARK INTRA:                  -0.467
REMARK UNBOUND:                -0.749
REMARK  Name = 
REMARK  5 active torsions:
REMARK  status: ('A' for Active; 'I' for Inactive)
REMARK    1  A    between atoms: N_1  and  C_2
REMARK    2  A    between atoms: C_2  and  C_3
REMARK    3  A    between atoms: C_6  and  O_7
REMARK    4  A    between atoms: O_7  and  C_8
REMARK    5  A    between atoms: C_8  and  C_9
REMARK                            x       y       z     vdW  Elec       q    Type
REMARK                         _______ _______ _______ _____ _____    ______ ____
ROOT
ATOM      1  C   UNL     1      45.422   5.966  12.143  0.00  0.00    +0.000 A 
ATOM      2  C   UNL     1      46.444   6.339  13.028  0.00  0.00    +0.000 A 
ATOM      3  C   UNL     1      47.100   5.378  13.802  0.00  0.00    +0.000 A 
ATOM      4  C   UNL     1      46.736   4.035  13.710  0.00  0.00    +0.000 A 
ATOM      5  C   UNL     1      45.755   3.651  12.793  0.00  0.00    +0.000 A 
ATOM      6  C   UNL     1      45.094   4.611  12.026  0.00  0.00    +0.000 A 
ENDROOT
BRANCH   1   7
ATOM      7  C   UNL     1      44.669   7.000  11.346  0.00  0.00    +0.000 C 
BRANCH   7   8
ATOM      8  N   UNL     1      43.248   6.691  11.271  0.00  0.00    +0.000 NA
ATOM      9  H   UNL     1      43.130   5.777  10.837  0.00  0.00    +0.000 HD
ATOM     10  H   UNL     1      42.800   7.365  10.652  0.00  0.00    +0.000 HD
ENDBRANCH   7   8
ENDBRANCH   1   7
BRANCH   4  11
ATOM     11  O   UNL     1      47.390   3.178  14.558  0.00  0.00    +0.000 OA
BRANCH  11  12
ATOM     12  C   UNL     1      47.364   3.572  15.937  0.00  0.00    +0.000 C 
BRANCH  12  13
ATOM     13  C   UNL     1      48.726   3.429  16.579  0.00  0.00    +0.000 A 
ATOM     14  C   UNL     1      49.345   2.170  16.655  0.00  0.00    +0.000 A 
ATOM     15  C   UNL     1      50.599   2.023  17.253  0.00  0.00    +0.000 A 
ATOM     16  C   UNL     1      51.249   3.127  17.798  0.00  0.00    +0.000 A 
ATOM     17  C   UNL     1      50.638   4.378  17.759  0.00  0.00    +0.000 A 
ATOM     18  C   UNL     1      49.380   4.528  17.167  0.00  0.00    +0.000 A 
ATOM     19 CL   UNL     1      48.671   6.106  17.215  0.00  0.00    +0.000 Cl
ENDBRANCH  12  13
ENDBRANCH  11  12
ENDBRANCH   4  11
TORSDOF 5
ENDMDL
MODEL 7
REMARK VINA RESULT:    -5.192      5.195      7.950
REMARK INTER + INTRA:          -7.307
REMARK INTER:                  -6.953
REMARK INTRA:                  -0.353
REMARK UNBOUND:                -0.749
REMARK  Name = 
REMARK  5 active torsions:
REMARK  status: ('A' for Active; 'I' for Inactive)
REMARK    1  A    between atoms: N_1  and  C_2
REMARK    2  A    between atoms: C_2  and  C_3
REMARK    3  A    between atoms: C_6  and  O_7
REMARK    4  A    between atoms: O_7  and  C_8
REMARK    5  A    between atoms: C_8  and  C_9
REMARK                            x       y       z     vdW  Elec       q    Type
REMARK                         _______ _______ _______ _____ _____    ______ ____
ROOT
ATOM      1  C   UNL     1      48.453   4.581  18.455  0.00  0.00    +0.000 A 
ATOM      2  C   UNL     1      47.931   3.325  18.111  0.00  0.00    +0.000 A 
ATOM      3  C   UNL     1      47.469   3.076  16.816  0.00  0.00    +0.000 A 
ATOM      4  C   UNL     1      47.512   4.081  15.850  0.00  0.00    +0.000 A 
ATOM      5  C   UNL     1      48.077   5.317  16.172  0.00  0.00    +0.000 A 
ATOM      6  C   UNL     1      48.531   5.569  17.467  0.00  0.00    +0.000 A 
ENDROOT
BRANCH   1   7
ATOM      7  C   UNL     1      48.901   4.878  19.862  0.00  0.00    +0.000 C 
BRANCH   7   8
ATOM      8  N   UNL     1      48.455   3.853  20.796  0.00  0.00    +0.000 NA
ATOM      9  H   UNL     1      48.001   4.302  21.589  0.00  0.00    +0.000 HD
ATOM     10  H   UNL     1      49.273   3.371  21.165  0.00  0.00    +0.000 HD
ENDBRANCH   7   8
ENDBRANCH   1   7
BRANCH   4  11
ATOM     11  O   UNL     1      46.973   3.763  14.630  0.00  0.00    +0.000 OA
BRANCH  11  12
ATOM     12  C   UNL     1      46.776   4.884  13.758  0.00  0.00    +0.000 C 
BRANCH  12  13
ATOM     13  C   UNL     1      45.573   4.684  12.863  0.00  0.00    +0.000 A 
ATOM     14  C   UNL     1      45.219   3.397  12.429  0.00  0.00    +0.000 A 
ATOM     15  C   UNL     1      44.116   3.199  11.595  0.00  0.00    +0.000 A 
ATOM     16  C   UNL     1      43.356   4.286  11.170  0.00  0.00    +0.000 A 
ATOM     17  C   UNL     1      43.709   5.574  11.566  0.00  0.00    +0.000 A 
ATOM     18  C   UNL     1      44.817   5.776  12.395  0.00  0.00    +0.000 A 
ATOM     19 CL   UNL     1      45.217   7.412  12.789  0.00  0.00    +0.000 Cl
ENDBRANCH  12  13
ENDBRANCH  11  12
ENDBRANCH   4  11
TORSDOF 5
ENDMDL
MODEL 8
REMARK VINA RESULT:    -5.033      4.154      5.888
REMARK INTER + INTRA:          -7.106
REMARK INTER:                  -6.693
REMARK INTRA:                  -0.413
REMARK UNBOUND:                -0.749
REMARK  Name = 
REMARK  5 active torsions:
REMARK  status: ('A' for Active; 'I' for Inactive)
REMARK    1  A    between atoms: N_1  and  C_2
REMARK    2  A    between atoms: C_2  and  C_3
REMARK    3  A    between atoms: C_6  and  O_7
REMARK    4  A    between atoms: O_7  and  C_8
REMARK    5  A    between atoms: C_8  and  C_9
REMARK                            x       y       z     vdW  Elec       q    Type
REMARK                         _______ _______ _______ _____ _____    ______ ____
ROOT
ATOM      1  C   UNL     1      44.759   5.177  11.483  0.00  0.00    +0.000 A 
ATOM      2  C   UNL     1      45.669   6.233  11.339  0.00  0.00    +0.000 A 
ATOM      3  C   UNL     1      46.820   6.295  12.130  0.00  0.00    +0.000 A 
ATOM      4  C   UNL     1      47.069   5.309  13.084  0.00  0.00    +0.000 A 
ATOM      5  C   UNL     1      46.193   4.227  13.197  0.00  0.00    +0.000 A 
ATOM      6  C   UNL     1      45.041   4.169  12.413  0.00  0.00    +0.000 A 
ENDROOT
BRANCH   1   7
ATOM      7  C   UNL     1      43.488   5.130  10.676  0.00  0.00    +0.000 C 
BRANCH   7   8
ATOM      8  N   UNL     1      43.730   4.658   9.320  0.00  0.00    +0.000 NA
ATOM      9  H   UNL     1      44.381   5.292   8.860  0.00  0.00    +0.000 HD
ATOM     10  H   UNL     1      42.857   4.711   8.796  0.00  0.00    +0.000 HD
ENDBRANCH   7   8
ENDBRANCH   1   7
BRANCH   4  11
ATOM     11  O   UNL     1      48.186   5.492  13.857  0.00  0.00    +0.000 OA
BRANCH  11  12
ATOM     12  C   UNL     1      47.927   6.053  15.151  0.00  0.00    +0.000 C 
BRANCH  12  13
ATOM     13  C   UNL     1      48.172   5.045  16.252  0.00  0.00    +0.000 A 
ATOM     14  C   UNL     1      47.185   4.100  16.579  0.00  0.00    +0.000 A 
ATOM     15  C   UNL     1      47.394   3.170  17.599  0.00  0.00    +0.000 A 
ATOM     16  C   UNL     1      48.586   3.175  18.318  0.00  0.00    +0.000 A 
ATOM     17  C   UNL     1      49.564   4.124  18.029  0.00  0.00    +0.000 A 
ATOM     18  C   UNL     1      49.355   5.062  17.013  0.00  0.00    +0.000 A 
ATOM     19 CL   UNL     1      50.598   6.238  16.762  0.00  0.00    +0.000 Cl
ENDBRANCH  12  13
ENDBRANCH  11  12
ENDBRANCH   4  11
TORSDOF 5
ENDMDL
MODEL 9
REMARK VINA RESULT:    -4.885      3.942      5.508
REMARK INTER + INTRA:          -6.919
REMARK INTER:                  -6.198
REMARK INTRA:                  -0.721
REMARK UNBOUND:                -0.749
REMARK  Name = 
REMARK  5 active torsions:
REMARK  status: ('A' for Active; 'I' for Inactive)
REMARK    1  A    between atoms: N_1  and  C_2
REMARK    2  A    between atoms: C_2  and  C_3
REMARK    3  A    between atoms: C_6  and  O_7
REMARK    4  A    between atoms: O_7  and  C_8
REMARK    5  A    between atoms: C_8  and  C_9
REMARK                            x       y       z     vdW  Elec       q    Type
REMARK                         _______ _______ _______ _____ _____    ______ ____
ROOT
ATOM      1  C   UNL     1      44.392   4.948  11.809  0.00  0.00    +0.000 A 
ATOM      2  C   UNL     1      45.105   5.659  10.833  0.00  0.00    +0.000 A 
ATOM      3  C   UNL     1      46.360   6.202  11.122  0.00  0.00    +0.000 A 
ATOM      4  C   UNL     1      46.914   6.050  12.393  0.00  0.00    +0.000 A 
ATOM      5  C   UNL     1      46.232   5.299  13.353  0.00  0.00    +0.000 A 
ATOM      6  C   UNL     1      44.976   4.764  13.067  0.00  0.00    +0.000 A 
ENDROOT
BRANCH   1   7
ATOM      7  C   UNL     1      43.015   4.408  11.526  0.00  0.00    +0.000 C 
BRANCH   7   8
ATOM      8  N   UNL     1      43.002   2.952  11.503  0.00  0.00    +0.000 NA
ATOM      9  H   UNL     1      43.059   2.635  10.537  0.00  0.00    +0.000 HD
ATOM     10  H   UNL     1      42.105   2.628  11.862  0.00  0.00    +0.000 HD
ENDBRANCH   7   8
ENDBRANCH   1   7
BRANCH   4  11
ATOM     11  O   UNL     1      48.116   6.675  12.600  0.00  0.00    +0.000 OA
BRANCH  11  12
ATOM     12  C   UNL     1      48.033   7.883  13.368  0.00  0.00    +0.000 C 
BRANCH  12  13
ATOM     13  C   UNL     1      48.016   9.106  12.478  0.00  0.00    +0.000 A 
ATOM     14  C   UNL     1      49.218   9.638  11.982  0.00  0.00    +0.000 A 
ATOM     15  C   UNL     1      49.217  10.771  11.166  0.00  0.00    +0.000 A 
ATOM     16  C   UNL     1      48.018  11.400  10.842  0.00  0.00    +0.000 A 
ATOM     17  C   UNL     1      46.818  10.906  11.350  0.00  0.00    +0.000 A 
ATOM     18  C   UNL     1      46.816   9.775  12.172  0.00  0.00    +0.000 A 
ATOM     19 CL   UNL     1      45.288   9.265  12.803  0.00  0.00    +0.000 Cl
ENDBRANCH  12  13
ENDBRANCH  11  12
ENDBRANCH   4  11
TORSDOF 5
ENDMDL
