MODEL 1
REMARK VINA RESULT:    -7.257      0.000      0.000
REMARK INTER + INTRA:         -11.194
REMARK INTER:                 -10.227
REMARK INTRA:                  -0.967
REMARK UNBOUND:                -0.967
REMARK  Name = 
REMARK  10 active torsions:
REMARK  status: ('A' for Active; 'I' for Inactive)
REMARK    1  A    between atoms: C_1  and  C_2
REMARK    2  A    between atoms: C_2  and  C_3
REMARK    3  A    between atoms: C_2  and  N_4
REMARK    4  A    between atoms: C_5  and  C_7
REMARK    5  A    between atoms: C_10  and  N_11
REMARK    6  A    between atoms: N_11  and  C_12
REMARK    7  A    between atoms: C_12  and  C_13
REMARK    8  A    between atoms: C_13  and  C_14
REMARK    9  A    between atoms: C_13  and  C_15
REMARK   10  A    between atoms: C_17  and  C_18
REMARK                            x       y       z     vdW  Elec       q    Type
REMARK                         _______ _______ _______ _____ _____    ______ ____
ROOT
ATOM      1  N   UNL     1      45.218   6.699  13.118  0.00  0.00    +0.000 N 
ATOM      2  H   UNL     1      44.803   6.378  13.992  0.00  0.00    +0.000 HD
ENDROOT
BRANCH   1   6
ATOM      3  C   UNL     1      45.097   3.766  10.088  0.00  0.00    +0.000 A 
ATOM      4  C   UNL     1      44.765   3.406  11.398  0.00  0.00    +0.000 A 
ATOM      5  C   UNL     1      44.767   4.374  12.416  0.00  0.00    +0.000 A 
ATOM      6  C   UNL     1      45.129   5.698  12.146  0.00  0.00    +0.000 A 
ATOM      7  C   UNL     1      45.361   6.064  10.817  0.00  0.00    +0.000 A 
ATOM      8  C   UNL     1      45.371   5.107   9.800  0.00  0.00    +0.000 A 
BRANCH   3  10
ATOM      9  N   UNL     1      46.162   3.077   7.987  0.00  0.00    +0.000 N 
ATOM     10  C   UNL     1      45.271   2.766   8.995  0.00  0.00    +0.000 C 
ATOM     11  O   UNL     1      44.623   1.723   9.017  0.00  0.00    +0.000 OA
ATOM     12  H   UNL     1      46.824   3.827   8.128  0.00  0.00    +0.000 HD
BRANCH   9  14
ATOM     13  C   UNL     1      46.835   2.956   5.640  0.00  0.00    +0.000 C 
ATOM     14  C   UNL     1      46.370   2.174   6.862  0.00  0.00    +0.000 C 
ATOM     15  C   UNL     1      47.369   1.072   7.211  0.00  0.00    +0.000 C 
ENDBRANCH   9  14
ENDBRANCH   3  10
ENDBRANCH   1   6
BRANCH   1  16
ATOM     16  C   UNL     1      46.520   7.346  13.329  0.00  0.00    +0.000 C 
BRANCH  16  17
ATOM     17  C   UNL     1      47.651   6.302  13.249  0.00  0.00    +0.000 C 
ATOM     18  C   UNL     1      48.799   6.757  12.341  0.00  0.00    +0.000 C 
BRANCH  17  19
ATOM     19  C   UNL     1      48.174   6.004  14.641  0.00  0.00    +0.000 A 
ATOM     20  C   UNL     1      47.589   5.006  15.418  0.00  0.00    +0.000 A 
ATOM     21  C   UNL     1      48.104   4.743  16.692  0.00  0.00    +0.000 A 
ATOM     22  C   UNL     1      49.189   5.486  17.151  0.00  0.00    +0.000 A 
ATOM     23  C   UNL     1      49.707   6.459  16.317  0.00  0.00    +0.000 A 
ATOM     24  N   UNL     1      49.225   6.732  15.087  0.00  0.00    +0.000 NA
BRANCH  21  25
ATOM     25  C   UNL     1      47.455   3.668  17.492  0.00  0.00    +0.000 C 
ATOM     26  N   UNL     1      48.072   3.225  18.627  0.00  0.00    +0.000 N 
ATOM     27  O   UNL     1      46.384   3.178  17.148  0.00  0.00    +0.000 OA
ATOM     28  H   UNL     1      48.945   3.559  18.995  0.00  0.00    +0.000 HD
ATOM     29  H   UNL     1      47.593   2.494  19.142  0.00  0.00    +0.000 HD
ENDBRANCH  21  25
ENDBRANCH  17  19
ENDBRANCH  16  17
ENDBRANCH   1  16
TORSDOF 7
ENDMDL
MODEL 2
REMARK VINA RESULT:    -6.930      2.245      8.741
REMARK INTER + INTRA:         -10.732
REMARK INTER:                  -9.771
REMARK INTRA:                  -0.962
REMARK UNBOUND:                -0.967
REMARK  Name = 
REMARK  10 active torsions:
REMARK  status: ('A' for Active; 'I' for Inactive)
REMARK    1  A    between atoms: C_1  and  C_2
REMARK    2  A    between atoms: C_2  and  C_3
REMARK    3  A    between atoms: C_2  and  N_4
REMARK    4  A    between atoms: C_5  and  C_7
REMARK    5  A    between atoms: C_10  and  N_11
REMARK    6  A    between atoms: N_11  and  C_12
REMARK    7  A    between atoms: C_12  and  C_13
REMARK    8  A    between atoms: C_13  and  C_14
REMARK    9  A    between atoms: C_13  and  C_15
REMARK   10  A    between atoms: C_17  and  C_18
REMARK                            x       y       z     vdW  Elec       q    Type
REMARK                         _______ _______ _______ _____ _____    ______ ____
ROOT
ATOM      1  N   UNL     1      45.838   4.603  12.205  0.00  0.00    +0.000 N 
ATOM      2  H   UNL     1      46.323   4.819  11.333  0.00  0.00    +0.000 HD
ENDROOT
BRANCH   1   6
ATOM      3  C   UNL     1      48.199   5.859  15.468  0.00  0.00    +0.000 A 
ATOM      4  C   UNL     1      47.539   4.628  15.538  0.00  0.00    +0.000 A 
ATOM      5  C   UNL     1      46.775   4.176  14.450  0.00  0.00    +0.000 A 
ATOM      6  C   UNL     1      46.635   4.957  13.298  0.00  0.00    +0.000 A 
ATOM      7  C   UNL     1      47.378   6.136  13.202  0.00  0.00    +0.000 A 
ATOM      8  C   UNL     1      48.133   6.599  14.283  0.00  0.00    +0.000 A 
BRANCH   3  10
ATOM      9  N   UNL     1      48.101   7.007  17.634  0.00  0.00    +0.000 N 
ATOM     10  C   UNL     1      48.892   6.472  16.637  0.00  0.00    +0.000 C 
ATOM     11  O   UNL     1      50.119   6.491  16.674  0.00  0.00    +0.000 OA
ATOM     12  H   UNL     1      47.120   6.770  17.666  0.00  0.00    +0.000 HD
BRANCH   9  14
ATOM     13  C   UNL     1      47.915   8.917  19.150  0.00  0.00    +0.000 C 
ATOM     14  C   UNL     1      48.694   7.655  18.798  0.00  0.00    +0.000 C 
ATOM     15  C   UNL     1      48.753   6.705  19.993  0.00  0.00    +0.000 C 
ENDBRANCH   9  14
ENDBRANCH   3  10
ENDBRANCH   1   6
BRANCH   1  16
ATOM     16  C   UNL     1      45.239   3.262  12.188  0.00  0.00    +0.000 C 
BRANCH  16  17
ATOM     17  C   UNL     1      44.315   3.109  10.964  0.00  0.00    +0.000 C 
ATOM     18  C   UNL     1      43.159   4.115  10.977  0.00  0.00    +0.000 C 
BRANCH  17  19
ATOM     19  C   UNL     1      45.122   3.258   9.689  0.00  0.00    +0.000 A 
ATOM     20  C   UNL     1      45.701   2.146   9.083  0.00  0.00    +0.000 A 
ATOM     21  C   UNL     1      46.427   2.313   7.899  0.00  0.00    +0.000 A 
ATOM     22  C   UNL     1      46.551   3.590   7.355  0.00  0.00    +0.000 A 
ATOM     23  C   UNL     1      45.947   4.639   8.021  0.00  0.00    +0.000 A 
ATOM     24  N   UNL     1      45.246   4.502   9.166  0.00  0.00    +0.000 NA
BRANCH  21  25
ATOM     25  C   UNL     1      47.029   1.101   7.279  0.00  0.00    +0.000 C 
ATOM     26  N   UNL     1      46.668  -0.130   7.748  0.00  0.00    +0.000 N 
ATOM     27  O   UNL     1      47.838   1.192   6.361  0.00  0.00    +0.000 OA
ATOM     28  H   UNL     1      46.016  -0.312   8.491  0.00  0.00    +0.000 HD
ATOM     29  H   UNL     1      47.100  -0.928   7.295  0.00  0.00    +0.000 HD
ENDBRANCH  21  25
ENDBRANCH  17  19
ENDBRANCH  16  17
ENDBRANCH   1  16
TORSDOF 7
ENDMDL
MODEL 3
REMARK VINA RESULT:    -6.519      1.971      3.015
REMARK INTER + INTRA:         -10.153
REMARK INTER:                  -9.176
REMARK INTRA:                  -0.977
REMARK UNBOUND:                -0.967
REMARK  Name = 
REMARK  10 active torsions:
REMARK  status: ('A' for Active; 'I' for Inactive)
REMARK    1  A    between atoms: C_1  and  C_2
REMARK    2  A    between atoms: C_2  and  C_3
REMARK    3  A    between atoms: C_2  and  N_4
REMARK    4  A    between atoms: C_5  and  C_7
REMARK    5  A    between atoms: C_10  and  N_11
REMARK    6  A    between atoms: N_11  and  C_12
REMARK    7  A    between atoms: C_12  and  C_13
REMARK    8  A    between atoms: C_13  and  C_14
REMARK    9  A    between atoms: C_13  and  C_15
REMARK   10  A    between atoms: C_17  and  C_18
REMARK                            x       y       z     vdW  Elec       q    Type
REMARK                         _______ _______ _______ _____ _____    ______ ____
ROOT
ATOM      1  N   UNL     1      47.934   7.680  14.445  0.00  0.00    +0.000 N 
ATOM      2  H   UNL     1      47.397   8.092  15.208  0.00  0.00    +0.000 HD
ENDROOT
BRANCH   1   6
ATOM      3  C   UNL     1      45.449   5.490  11.832  0.00  0.00    +0.000 A 
ATOM      4  C   UNL     1      46.156   4.811  12.830  0.00  0.00    +0.000 A 
ATOM      5  C   UNL     1      46.963   5.524  13.730  0.00  0.00    +0.000 A 
ATOM      6  C   UNL     1      47.099   6.913  13.628  0.00  0.00    +0.000 A 
ATOM      7  C   UNL     1      46.310   7.588  12.693  0.00  0.00    +0.000 A 
ATOM      8  C   UNL     1      45.513   6.886  11.786  0.00  0.00    +0.000 A 
BRANCH   3  10
ATOM      9  N   UNL     1      45.442   4.030   9.860  0.00  0.00    +0.000 N 
ATOM     10  C   UNL     1      44.705   4.787  10.748  0.00  0.00    +0.000 C 
ATOM     11  O   UNL     1      43.485   4.907  10.673  0.00  0.00    +0.000 OA
ATOM     12  H   UNL     1      46.394   3.784  10.094  0.00  0.00    +0.000 HD
BRANCH   9  14
ATOM     13  C   UNL     1      45.626   3.502   7.480  0.00  0.00    +0.000 C 
ATOM     14  C   UNL     1      44.801   3.335   8.751  0.00  0.00    +0.000 C 
ATOM     15  C   UNL     1      44.591   1.856   9.068  0.00  0.00    +0.000 C 
ENDBRANCH   9  14
ENDBRANCH   3  10
ENDBRANCH   1   6
BRANCH   1  16
ATOM     16  C   UNL     1      49.189   7.078  14.915  0.00  0.00    +0.000 C 
BRANCH  16  17
ATOM     17  C   UNL     1      49.346   7.293  16.433  0.00  0.00    +0.000 C 
ATOM     18  C   UNL     1      48.475   8.442  16.951  0.00  0.00    +0.000 C 
BRANCH  17  19
ATOM     19  C   UNL     1      49.011   6.011  17.170  0.00  0.00    +0.000 A 
ATOM     20  C   UNL     1      49.580   4.801  16.780  0.00  0.00    +0.000 A 
ATOM     21  C   UNL     1      49.264   3.638  17.490  0.00  0.00    +0.000 A 
ATOM     22  C   UNL     1      48.388   3.719  18.570  0.00  0.00    +0.000 A 
ATOM     23  C   UNL     1      47.866   4.959  18.888  0.00  0.00    +0.000 A 
ATOM     24  N   UNL     1      48.154   6.094  18.216  0.00  0.00    +0.000 NA
BRANCH  21  25
ATOM     25  C   UNL     1      49.894   2.363  17.046  0.00  0.00    +0.000 C 
ATOM     26  N   UNL     1      50.909   1.834  17.791  0.00  0.00    +0.000 N 
ATOM     27  O   UNL     1      49.517   1.789  16.030  0.00  0.00    +0.000 OA
ATOM     28  H   UNL     1      51.289   2.223  18.636  0.00  0.00    +0.000 HD
ATOM     29  H   UNL     1      51.306   0.964  17.453  0.00  0.00    +0.000 HD
ENDBRANCH  21  25
ENDBRANCH  17  19
ENDBRANCH  16  17
ENDBRANCH   1  16
TORSDOF 7
ENDMDL
MODEL 4
REMARK VINA RESULT:    -6.457      1.922      3.026
REMARK INTER + INTRA:         -10.067
REMARK INTER:                  -9.036
REMARK INTRA:                  -1.031
REMARK UNBOUND:                -0.967
REMARK  Name = 
REMARK  10 active torsions:
REMARK  status: ('A' for Active; 'I' for Inactive)
REMARK    1  A    between atoms: C_1  and  C_2
REMARK    2  A    between atoms: C_2  and  C_3
REMARK    3  A    between atoms: C_2  and  N_4
REMARK    4  A    between atoms: C_5  and  C_7
REMARK    5  A    between atoms: C_10  and  N_11
REMARK    6  A    between atoms: N_11  and  C_12
REMARK    7  A    between atoms: C_12  and  C_13
REMARK    8  A    between atoms: C_13  and  C_14
REMARK    9  A    between atoms: C_13  and  C_15
REMARK   10  A    between atoms: C_17  and  C_18
REMARK                            x       y       z     vdW  Elec       q    Type
REMARK                         _______ _______ _______ _____ _____    ______ ____
ROOT
ATOM      1  N   UNL     1      47.457   8.825  14.381  0.00  0.00    +0.000 N 
ATOM      2  H   UNL     1      46.907   8.881  15.238  0.00  0.00    +0.000 HD
ENDROOT
BRANCH   1   6
ATOM      3  C   UNL     1      45.422   6.440  11.559  0.00  0.00    +0.000 A 
ATOM      4  C   UNL     1      44.941   7.723  11.840  0.00  0.00    +0.000 A 
ATOM      5  C   UNL     1      45.622   8.545  12.752  0.00  0.00    +0.000 A 
ATOM      6  C   UNL     1      46.767   8.090  13.414  0.00  0.00    +0.000 A 
ATOM      7  C   UNL     1      47.292   6.847  13.049  0.00  0.00    +0.000 A 
ATOM      8  C   UNL     1      46.616   6.017  12.151  0.00  0.00    +0.000 A 
BRANCH   3  10
ATOM      9  N   UNL     1      45.383   4.738   9.792  0.00  0.00    +0.000 N 
ATOM     10  C   UNL     1      44.668   5.458  10.728  0.00  0.00    +0.000 C 
ATOM     11  O   UNL     1      43.458   5.328  10.890  0.00  0.00    +0.000 OA
ATOM     12  H   UNL     1      46.391   4.716   9.852  0.00  0.00    +0.000 HD
BRANCH   9  14
ATOM     13  C   UNL     1      45.533   3.590   7.638  0.00  0.00    +0.000 C 
ATOM     14  C   UNL     1      44.722   3.780   8.915  0.00  0.00    +0.000 C 
ATOM     15  C   UNL     1      44.500   2.442   9.618  0.00  0.00    +0.000 C 
ENDBRANCH   9  14
ENDBRANCH   3  10
ENDBRANCH   1   6
BRANCH   1  16
ATOM     16  C   UNL     1      48.860   8.479  14.645  0.00  0.00    +0.000 C 
BRANCH  16  17
ATOM     17  C   UNL     1      49.122   8.443  16.164  0.00  0.00    +0.000 C 
ATOM     18  C   UNL     1      47.996   9.106  16.964  0.00  0.00    +0.000 C 
BRANCH  17  19
ATOM     19  C   UNL     1      49.310   7.008  16.618  0.00  0.00    +0.000 A 
ATOM     20  C   UNL     1      48.301   6.067  16.429  0.00  0.00    +0.000 A 
ATOM     21  C   UNL     1      48.511   4.748  16.844  0.00  0.00    +0.000 A 
ATOM     22  C   UNL     1      49.726   4.408  17.435  0.00  0.00    +0.000 A 
ATOM     23  C   UNL     1      50.672   5.404  17.587  0.00  0.00    +0.000 A 
ATOM     24  N   UNL     1      50.491   6.683  17.198  0.00  0.00    +0.000 NA
BRANCH  21  25
ATOM     25  C   UNL     1      47.411   3.769  16.623  0.00  0.00    +0.000 C 
ATOM     26  N   UNL     1      47.099   2.890  17.620  0.00  0.00    +0.000 N 
ATOM     27  O   UNL     1      46.787   3.743  15.567  0.00  0.00    +0.000 OA
ATOM     28  H   UNL     1      47.545   2.830  18.518  0.00  0.00    +0.000 HD
ATOM     29  H   UNL     1      46.341   2.243  17.427  0.00  0.00    +0.000 HD
ENDBRANCH  21  25
ENDBRANCH  17  19
ENDBRANCH  16  17
ENDBRANCH   1  16
TORSDOF 7
ENDMDL
MODEL 5
REMARK VINA RESULT:    -6.326      2.382      4.198
REMARK INTER + INTRA:          -9.881
REMARK INTER:                  -8.812
REMARK INTRA:                  -1.069
REMARK UNBOUND:                -0.967
REMARK  Name = 
REMARK  10 active torsions:
REMARK  status: ('A' for Active; 'I' for Inactive)
REMARK    1  A    between atoms: C_1  and  C_2
REMARK    2  A    between atoms: C_2  and  C_3
REMARK    3  A    between atoms: C_2  and  N_4
REMARK    4  A    between atoms: C_5  and  C_7
REMARK    5  A    between atoms: C_10  and  N_11
REMARK    6  A    between atoms: N_11  and  C_12
REMARK    7  A    between atoms: C_12  and  C_13
REMARK    8  A    between atoms: C_13  and  C_14
REMARK    9  A    between atoms: C_13  and  C_15
REMARK   10  A    between atoms: C_17  and  C_18
REMARK                            x       y       z     vdW  Elec       q    Type
REMARK                         _______ _______ _______ _____ _____    ______ ____
ROOT
ATOM      1  N   UNL     1      49.501   7.853  14.949  0.00  0.00    +0.000 N 
ATOM      2  H   UNL     1      49.930   8.699  14.574  0.00  0.00    +0.000 HD
ENDROOT
BRANCH   1   6
ATOM      3  C   UNL     1      46.806   6.090  12.224  0.00  0.00    +0.000 A 
ATOM      4  C   UNL     1      47.586   7.173  11.806  0.00  0.00    +0.000 A 
ATOM      5  C   UNL     1      48.513   7.754  12.687  0.00  0.00    +0.000 A 
ATOM      6  C   UNL     1      48.649   7.284  13.997  0.00  0.00    +0.000 A 
ATOM      7  C   UNL     1      47.937   6.140  14.369  0.00  0.00    +0.000 A 
ATOM      8  C   UNL     1      47.006   5.562  13.504  0.00  0.00    +0.000 A 
BRANCH   3  10
ATOM      9  N   UNL     1      45.291   4.239  11.678  0.00  0.00    +0.000 N 
ATOM     10  C   UNL     1      45.696   5.529  11.401  0.00  0.00    +0.000 C 
ATOM     11  O   UNL     1      45.192   6.212  10.515  0.00  0.00    +0.000 OA
ATOM     12  H   UNL     1      45.575   3.809  12.547  0.00  0.00    +0.000 HD
BRANCH   9  14
ATOM     13  C   UNL     1      44.841   2.750   9.792  0.00  0.00    +0.000 C 
ATOM     14  C   UNL     1      44.235   3.599  10.904  0.00  0.00    +0.000 C 
ATOM     15  C   UNL     1      43.325   2.754  11.794  0.00  0.00    +0.000 C 
ENDBRANCH   9  14
ENDBRANCH   3  10
ENDBRANCH   1   6
BRANCH   1  16
ATOM     16  C   UNL     1      48.986   8.051  16.310  0.00  0.00    +0.000 C 
BRANCH  16  17
ATOM     17  C   UNL     1      49.807   7.219  17.315  0.00  0.00    +0.000 C 
ATOM     18  C   UNL     1      49.961   7.926  18.666  0.00  0.00    +0.000 C 
BRANCH  17  19
ATOM     19  C   UNL     1      49.159   5.862  17.507  0.00  0.00    +0.000 A 
ATOM     20  C   UNL     1      49.848   4.696  17.179  0.00  0.00    +0.000 A 
ATOM     21  C   UNL     1      49.230   3.458  17.383  0.00  0.00    +0.000 A 
ATOM     22  C   UNL     1      47.941   3.421  17.909  0.00  0.00    +0.000 A 
ATOM     23  C   UNL     1      47.329   4.625  18.204  0.00  0.00    +0.000 A 
ATOM     24  N   UNL     1      47.903   5.831  18.014  0.00  0.00    +0.000 NA
BRANCH  21  25
ATOM     25  C   UNL     1      49.999   2.234  17.023  0.00  0.00    +0.000 C 
ATOM     26  N   UNL     1      50.982   1.800  17.866  0.00  0.00    +0.000 N 
ATOM     27  O   UNL     1      49.763   1.616  15.990  0.00  0.00    +0.000 OA
ATOM     28  H   UNL     1      51.251   2.230  18.733  0.00  0.00    +0.000 HD
ATOM     29  H   UNL     1      51.477   0.961  17.583  0.00  0.00    +0.000 HD
ENDBRANCH  21  25
ENDBRANCH  17  19
ENDBRANCH  16  17
ENDBRANCH   1  16
TORSDOF 7
ENDMDL
MODEL 6
REMARK VINA RESULT:    -6.249      2.560      4.551
REMARK INTER + INTRA:          -9.773
REMARK INTER:                  -8.551
REMARK INTRA:                  -1.221
REMARK UNBOUND:                -0.967
REMARK  Name = 
REMARK  10 active torsions:
REMARK  status: ('A' for Active; 'I' for Inactive)
REMARK    1  A    between atoms: C_1  and  C_2
REMARK    2  A    between atoms: C_2  and  C_3
REMARK    3  A    between atoms: C_2  and  N_4
REMARK    4  A    between atoms: C_5  and  C_7
REMARK    5  A    between atoms: C_10  and  N_11
REMARK    6  A    between atoms: N_11  and  C_12
REMARK    7  A    between atoms: C_12  and  C_13
REMARK    8  A    between atoms: C_13  and  C_14
REMARK    9  A    between atoms: C_13  and  C_15
REMARK   10  A    between atoms: C_17  and  C_18
REMARK                            x       y       z     vdW  Elec       q    Type
REMARK                         _______ _______ _______ _____ _____    ______ ____
ROOT
ATOM      1  N   UNL     1      49.321   6.907  16.164  0.00  0.00    +0.000 N 
ATOM      2  H   UNL     1      50.111   7.486  15.881  0.00  0.00    +0.000 HD
ENDROOT
BRANCH   1   6
ATOM      3  C   UNL     1      46.725   6.005  12.964  0.00  0.00    +0.000 A 
ATOM      4  C   UNL     1      47.449   7.201  12.937  0.00  0.00    +0.000 A 
ATOM      5  C   UNL     1      48.343   7.506  13.976  0.00  0.00    +0.000 A 
ATOM      6  C   UNL     1      48.502   6.640  15.064  0.00  0.00    +0.000 A 
ATOM      7  C   UNL     1      47.849   5.405  15.028  0.00  0.00    +0.000 A 
ATOM      8  C   UNL     1      46.950   5.097  14.004  0.00  0.00    +0.000 A 
BRANCH   3  10
ATOM      9  N   UNL     1      45.247   4.373  11.880  0.00  0.00    +0.000 N 
ATOM     10  C   UNL     1      45.647   5.691  11.983  0.00  0.00    +0.000 C 
ATOM     11  O   UNL     1      45.163   6.591  11.303  0.00  0.00    +0.000 OA
ATOM     12  H   UNL     1      45.509   3.721  12.605  0.00  0.00    +0.000 HD
BRANCH   9  14
ATOM     13  C   UNL     1      44.870   3.498   9.628  0.00  0.00    +0.000 C 
ATOM     14  C   UNL     1      44.223   3.970  10.925  0.00  0.00    +0.000 C 
ATOM     15  C   UNL     1      43.317   2.885  11.504  0.00  0.00    +0.000 C 
ENDBRANCH   9  14
ENDBRANCH   3  10
ENDBRANCH   1   6
BRANCH   1  16
ATOM     16  C   UNL     1      48.689   7.398  17.396  0.00  0.00    +0.000 C 
BRANCH  16  17
ATOM     17  C   UNL     1      48.774   6.326  18.501  0.00  0.00    +0.000 C 
ATOM     18  C   UNL     1      47.483   5.511  18.622  0.00  0.00    +0.000 C 
BRANCH  17  19
ATOM     19  C   UNL     1      49.949   5.405  18.231  0.00  0.00    +0.000 A 
ATOM     20  C   UNL     1      49.739   4.097  17.802  0.00  0.00    +0.000 A 
ATOM     21  C   UNL     1      50.843   3.276  17.547  0.00  0.00    +0.000 A 
ATOM     22  C   UNL     1      52.125   3.789  17.727  0.00  0.00    +0.000 A 
ATOM     23  C   UNL     1      52.244   5.097  18.158  0.00  0.00    +0.000 A 
ATOM     24  N   UNL     1      51.194   5.906  18.414  0.00  0.00    +0.000 NA
BRANCH  21  25
ATOM     25  C   UNL     1      50.579   1.884  17.087  0.00  0.00    +0.000 C 
ATOM     26  N   UNL     1      51.236   0.853  17.695  0.00  0.00    +0.000 N 
ATOM     27  O   UNL     1      49.789   1.655  16.178  0.00  0.00    +0.000 OA
ATOM     28  H   UNL     1      51.898   0.933  18.446  0.00  0.00    +0.000 HD
ATOM     29  H   UNL     1      51.023  -0.078  17.352  0.00  0.00    +0.000 HD
ENDBRANCH  21  25
ENDBRANCH  17  19
ENDBRANCH  16  17
ENDBRANCH   1  16
TORSDOF 7
ENDMDL
MODEL 7
REMARK VINA RESULT:    -5.959      2.501      3.642
REMARK INTER + INTRA:          -9.364
REMARK INTER:                  -8.375
REMARK INTRA:                  -0.990
REMARK UNBOUND:                -0.967
REMARK  Name = 
REMARK  10 active torsions:
REMARK  status: ('A' for Active; 'I' for Inactive)
REMARK    1  A    between atoms: C_1  and  C_2
REMARK    2  A    between atoms: C_2  and  C_3
REMARK    3  A    between atoms: C_2  and  N_4
REMARK    4  A    between atoms: C_5  and  C_7
REMARK    5  A    between atoms: C_10  and  N_11
REMARK    6  A    between atoms: N_11  and  C_12
REMARK    7  A    between atoms: C_12  and  C_13
REMARK    8  A    between atoms: C_13  and  C_14
REMARK    9  A    between atoms: C_13  and  C_15
REMARK   10  A    between atoms: C_17  and  C_18
REMARK                            x       y       z     vdW  Elec       q    Type
REMARK                         _______ _______ _______ _____ _____    ______ ____
ROOT
ATOM      1  N   UNL     1      48.546   9.005  13.366  0.00  0.00    +0.000 N 
ATOM      2  H   UNL     1      48.430  10.002  13.187  0.00  0.00    +0.000 HD
ENDROOT
BRANCH   1   6
ATOM      3  C   UNL     1      45.421   6.686  11.737  0.00  0.00    +0.000 A 
ATOM      4  C   UNL     1      45.105   7.799  12.524  0.00  0.00    +0.000 A 
ATOM      5  C   UNL     1      46.129   8.603  13.049  0.00  0.00    +0.000 A 
ATOM      6  C   UNL     1      47.474   8.291  12.822  0.00  0.00    +0.000 A 
ATOM      7  C   UNL     1      47.773   7.238  11.953  0.00  0.00    +0.000 A 
ATOM      8  C   UNL     1      46.761   6.426  11.435  0.00  0.00    +0.000 A 
BRANCH   3  10
ATOM      9  N   UNL     1      44.836   4.432  10.965  0.00  0.00    +0.000 N 
ATOM     10  C   UNL     1      44.397   5.702  11.282  0.00  0.00    +0.000 C 
ATOM     11  O   UNL     1      43.222   6.044  11.195  0.00  0.00    +0.000 OA
ATOM     12  H   UNL     1      45.756   4.139  11.264  0.00  0.00    +0.000 HD
BRANCH   9  14
ATOM     13  C   UNL     1      44.602   2.520   9.459  0.00  0.00    +0.000 C 
ATOM     14  C   UNL     1      43.911   3.415  10.481  0.00  0.00    +0.000 C 
ATOM     15  C   UNL     1      43.345   2.584  11.632  0.00  0.00    +0.000 C 
ENDBRANCH   9  14
ENDBRANCH   3  10
ENDBRANCH   1   6
BRANCH   1  16
ATOM     16  C   UNL     1      48.925   8.733  14.759  0.00  0.00    +0.000 C 
BRANCH  16  17
ATOM     17  C   UNL     1      49.672   7.389  14.854  0.00  0.00    +0.000 C 
ATOM     18  C   UNL     1      51.111   7.557  15.352  0.00  0.00    +0.000 C 
BRANCH  17  19
ATOM     19  C   UNL     1      48.913   6.443  15.764  0.00  0.00    +0.000 A 
ATOM     20  C   UNL     1      48.918   6.630  17.144  0.00  0.00    +0.000 A 
ATOM     21  C   UNL     1      48.195   5.750  17.955  0.00  0.00    +0.000 A 
ATOM     22  C   UNL     1      47.485   4.708  17.362  0.00  0.00    +0.000 A 
ATOM     23  C   UNL     1      47.535   4.593  15.985  0.00  0.00    +0.000 A 
ATOM     24  N   UNL     1      48.229   5.428  15.183  0.00  0.00    +0.000 NA
BRANCH  21  25
ATOM     25  C   UNL     1      48.222   5.983  19.426  0.00  0.00    +0.000 C 
ATOM     26  N   UNL     1      47.169   5.555  20.182  0.00  0.00    +0.000 N 
ATOM     27  O   UNL     1      49.169   6.549  19.961  0.00  0.00    +0.000 OA
ATOM     28  H   UNL     1      46.350   5.082  19.843  0.00  0.00    +0.000 HD
ATOM     29  H   UNL     1      47.231   5.732  21.179  0.00  0.00    +0.000 HD
ENDBRANCH  21  25
ENDBRANCH  17  19
ENDBRANCH  16  17
ENDBRANCH   1  16
TORSDOF 7
ENDMDL
MODEL 8
REMARK VINA RESULT:    -5.936      2.863      4.406
REMARK INTER + INTRA:          -9.332
REMARK INTER:                  -8.331
REMARK INTRA:                  -1.001
REMARK UNBOUND:                -0.967
REMARK  Name = 
REMARK  10 active torsions:
REMARK  status: ('A' for Active; 'I' for Inactive)
REMARK    1  A    between atoms: C_1  and  C_2
REMARK    2  A    between atoms: C_2  and  C_3
REMARK    3  A    between atoms: C_2  and  N_4
REMARK    4  A    between atoms: C_5  and  C_7
REMARK    5  A    between atoms: C_10  and  N_11
REMARK    6  A    between atoms: N_11  and  C_12
REMARK    7  A    between atoms: C_12  and  C_13
REMARK    8  A    between atoms: C_13  and  C_14
REMARK    9  A    between atoms: C_13  and  C_15
REMARK   10  A    between atoms: C_17  and  C_18
REMARK                            x       y       z     vdW  Elec       q    Type
REMARK                         _______ _______ _______ _____ _____    ______ ____
ROOT
ATOM      1  N   UNL     1      49.797   8.131  14.585  0.00  0.00    +0.000 N 
ATOM      2  H   UNL     1      49.861   9.130  14.391  0.00  0.00    +0.000 HD
ENDROOT
BRANCH   1   6
ATOM      3  C   UNL     1      46.928   6.311  12.083  0.00  0.00    +0.000 A 
ATOM      4  C   UNL     1      47.872   7.176  11.520  0.00  0.00    +0.000 A 
ATOM      5  C   UNL     1      48.855   7.767  12.329  0.00  0.00    +0.000 A 
ATOM      6  C   UNL     1      48.891   7.527  13.707  0.00  0.00    +0.000 A 
ATOM      7  C   UNL     1      48.006   6.584  14.239  0.00  0.00    +0.000 A 
ATOM      8  C   UNL     1      47.018   6.000  13.444  0.00  0.00    +0.000 A 
BRANCH   3  10
ATOM      9  N   UNL     1      44.698   5.288  12.046  0.00  0.00    +0.000 N 
ATOM     10  C   UNL     1      45.765   5.776  11.318  0.00  0.00    +0.000 C 
ATOM     11  O   UNL     1      45.793   5.777  10.091  0.00  0.00    +0.000 OA
ATOM     12  H   UNL     1      44.627   5.513  13.028  0.00  0.00    +0.000 HD
BRANCH   9  14
ATOM     13  C   UNL     1      43.382   3.248  11.758  0.00  0.00    +0.000 C 
ATOM     14  C   UNL     1      43.533   4.717  11.383  0.00  0.00    +0.000 C 
ATOM     15  C   UNL     1      42.262   5.495  11.721  0.00  0.00    +0.000 C 
ENDBRANCH   9  14
ENDBRANCH   3  10
ENDBRANCH   1   6
BRANCH   1  16
ATOM     16  C   UNL     1      49.660   7.853  16.021  0.00  0.00    +0.000 C 
BRANCH  16  17
ATOM     17  C   UNL     1      50.919   7.134  16.545  0.00  0.00    +0.000 C 
ATOM     18  C   UNL     1      51.538   7.847  17.751  0.00  0.00    +0.000 C 
BRANCH  17  19
ATOM     19  C   UNL     1      50.577   5.701  16.905  0.00  0.00    +0.000 A 
ATOM     20  C   UNL     1      49.258   5.255  16.861  0.00  0.00    +0.000 A 
ATOM     21  C   UNL     1      48.977   3.923  17.183  0.00  0.00    +0.000 A 
ATOM     22  C   UNL     1      50.024   3.075  17.539  0.00  0.00    +0.000 A 
ATOM     23  C   UNL     1      51.302   3.600  17.559  0.00  0.00    +0.000 A 
ATOM     24  N   UNL     1      51.597   4.881  17.256  0.00  0.00    +0.000 NA
BRANCH  21  25
ATOM     25  C   UNL     1      47.556   3.481  17.123  0.00  0.00    +0.000 C 
ATOM     26  N   UNL     1      47.080   2.650  18.097  0.00  0.00    +0.000 N 
ATOM     27  O   UNL     1      46.814   3.851  16.219  0.00  0.00    +0.000 OA
ATOM     28  H   UNL     1      47.602   2.293  18.878  0.00  0.00    +0.000 HD
ATOM     29  H   UNL     1      46.106   2.377  18.018  0.00  0.00    +0.000 HD
ENDBRANCH  21  25
ENDBRANCH  17  19
ENDBRANCH  16  17
ENDBRANCH   1  16
TORSDOF 7
ENDMDL
MODEL 9
REMARK VINA RESULT:    -5.899      2.959      4.314
REMARK INTER + INTRA:          -9.280
REMARK INTER:                  -8.304
REMARK INTRA:                  -0.976
REMARK UNBOUND:                -0.967
REMARK  Name = 
REMARK  10 active torsions:
REMARK  status: ('A' for Active; 'I' for Inactive)
REMARK    1  A    between atoms: C_1  and  C_2
REMARK    2  A    between atoms: C_2  and  C_3
REMARK    3  A    between atoms: C_2  and  N_4
REMARK    4  A    between atoms: C_5  and  C_7
REMARK    5  A    between atoms: C_10  and  N_11
REMARK    6  A    between atoms: N_11  and  C_12
REMARK    7  A    between atoms: C_12  and  C_13
REMARK    8  A    between atoms: C_13  and  C_14
REMARK    9  A    between atoms: C_13  and  C_15
REMARK   10  A    between atoms: C_17  and  C_18
REMARK                            x       y       z     vdW  Elec       q    Type
REMARK                         _______ _______ _______ _____ _____    ______ ____
ROOT
ATOM      1  N   UNL     1      48.874   6.524  15.244  0.00  0.00    +0.000 N 
ATOM      2  H   UNL     1      49.204   7.462  15.019  0.00  0.00    +0.000 HD
ENDROOT
BRANCH   1   6
ATOM      3  C   UNL     1      45.927   5.463  12.418  0.00  0.00    +0.000 A 
ATOM      4  C   UNL     1      46.152   4.625  13.515  0.00  0.00    +0.000 A 
ATOM      5  C   UNL     1      47.105   4.976  14.484  0.00  0.00    +0.000 A 
ATOM      6  C   UNL     1      47.863   6.144  14.356  0.00  0.00    +0.000 A 
ATOM      7  C   UNL     1      47.558   7.020  13.310  0.00  0.00    +0.000 A 
ATOM      8  C   UNL     1      46.620   6.675  12.335  0.00  0.00    +0.000 A 
BRANCH   3  10
ATOM      9  N   UNL     1      45.457   4.014  10.494  0.00  0.00    +0.000 N 
ATOM     10  C   UNL     1      45.050   5.079  11.274  0.00  0.00    +0.000 C 
ATOM     11  O   UNL     1      44.021   5.712  11.058  0.00  0.00    +0.000 OA
ATOM     12  H   UNL     1      46.176   3.396  10.840  0.00  0.00    +0.000 HD
BRANCH   9  14
ATOM     13  C   UNL     1      45.394   3.986   8.050  0.00  0.00    +0.000 C 
ATOM     14  C   UNL     1      44.679   3.590   9.336  0.00  0.00    +0.000 C 
ATOM     15  C   UNL     1      44.412   2.086   9.366  0.00  0.00    +0.000 C 
ENDBRANCH   9  14
ENDBRANCH   3  10
ENDBRANCH   1   6
BRANCH   1  16
ATOM     16  C   UNL     1      48.634   6.352  16.683  0.00  0.00    +0.000 C 
BRANCH  16  17
ATOM     17  C   UNL     1      49.967   6.120  17.420  0.00  0.00    +0.000 C 
ATOM     18  C   UNL     1      49.926   6.620  18.867  0.00  0.00    +0.000 C 
BRANCH  17  19
ATOM     19  C   UNL     1      50.321   4.645  17.387  0.00  0.00    +0.000 A 
ATOM     20  C   UNL     1      51.607   4.219  17.709  0.00  0.00    +0.000 A 
ATOM     21  C   UNL     1      51.899   2.851  17.685  0.00  0.00    +0.000 A 
ATOM     22  C   UNL     1      50.895   1.949  17.341  0.00  0.00    +0.000 A 
ATOM     23  C   UNL     1      49.647   2.457  17.033  0.00  0.00    +0.000 A 
ATOM     24  N   UNL     1      49.343   3.772  17.046  0.00  0.00    +0.000 NA
BRANCH  21  25
ATOM     25  C   UNL     1      53.284   2.432  18.038  0.00  0.00    +0.000 C 
ATOM     26  N   UNL     1      53.494   1.768  19.212  0.00  0.00    +0.000 N 
ATOM     27  O   UNL     1      54.229   2.675  17.295  0.00  0.00    +0.000 OA
ATOM     28  H   UNL     1      52.792   1.520  19.887  0.00  0.00    +0.000 HD
ATOM     29  H   UNL     1      54.452   1.499  19.411  0.00  0.00    +0.000 HD
ENDBRANCH  21  25
ENDBRANCH  17  19
ENDBRANCH  16  17
ENDBRANCH   1  16
TORSDOF 7
ENDMDL
