MODEL 1
REMARK VINA RESULT:    -8.047      0.000      0.000
REMARK INTER + INTRA:         -11.977
REMARK INTER:                 -11.340
REMARK INTRA:                  -0.637
REMARK UNBOUND:                -0.637
REMARK  Name = 
REMARK  7 active torsions:
REMARK  status: ('A' for Active; 'I' for Inactive)
REMARK    1  A    between atoms: C_2  and  C_3
REMARK    2  A    between atoms: C_7  and  N_8
REMARK    3  A    between atoms: N_8  and  C_9
REMARK    4  A    between atoms: C_9  and  C_10
REMARK    5  A    between atoms: C_14  and  C_15
REMARK    6  A    between atoms: C_19  and  O_20
REMARK    7  A    between atoms: O_20  and  C_21
REMARK                            x       y       z     vdW  Elec       q    Type
REMARK                         _______ _______ _______ _____ _____    ______ ____
ROOT
ATOM      1  C   UNL     1      45.398   5.329  12.132  0.00  0.00    +0.000 A 
ATOM      2  C   UNL     1      46.136   6.394  11.600  0.00  0.00    +0.000 A 
ATOM      3  C   UNL     1      47.308   6.829  12.216  0.00  0.00    +0.000 A 
ATOM      4  C   UNL     1      47.752   6.214  13.388  0.00  0.00    +0.000 A 
ATOM      5  C   UNL     1      47.067   5.120  13.941  0.00  0.00    +0.000 A 
ATOM      6  C   UNL     1      45.930   4.662  13.256  0.00  0.00    +0.000 A 
ENDROOT
BRANCH   5   7
ATOM      7  C   UNL     1      47.438   4.551  15.252  0.00  0.00    +0.000 A 
ATOM      8  C   UNL     1      47.575   3.169  15.415  0.00  0.00    +0.000 A 
ATOM      9  N   UNL     1      47.939   2.552  16.562  0.00  0.00    +0.000 NA
ATOM     10  C   UNL     1      48.204   3.353  17.614  0.00  0.00    +0.000 A 
ATOM     11  C   UNL     1      48.148   4.741  17.571  0.00  0.00    +0.000 A 
ATOM     12  C   UNL     1      47.740   5.341  16.377  0.00  0.00    +0.000 A 
BRANCH  11  13
ATOM     13  O   UNL     1      48.471   5.383  18.729  0.00  0.00    +0.000 OA
BRANCH  13  14
ATOM     14  C   UNL     1      47.414   6.094  19.352  0.00  0.00    +0.000 C 
ATOM     15  F   UNL     1      46.235   5.587  18.918  0.00  0.00    +0.000 F 
ATOM     16  F   UNL     1      47.487   5.836  20.682  0.00  0.00    +0.000 F 
ENDBRANCH  13  14
ENDBRANCH  11  13
ENDBRANCH   5   7
BRANCH   1  17
ATOM     17  C   UNL     1      44.010   4.971  11.595  0.00  0.00    +0.000 C 
ATOM     18  C   UNL     1      42.840   5.266  12.535  0.00  0.00    +0.000 C 
ATOM     19  C   UNL     1      43.045   6.111  11.326  0.00  0.00    +0.000 C 
BRANCH  17  20
ATOM     20  N   UNL     1      43.956   3.685  10.862  0.00  0.00    +0.000 N 
ATOM     21  H   UNL     1      43.984   2.884  11.491  0.00  0.00    +0.000 HD
BRANCH  20  26
ATOM     22  C   UNL     1      45.995   2.008   8.201  0.00  0.00    +0.000 A 
ATOM     23  C   UNL     1      46.313   3.135   7.453  0.00  0.00    +0.000 A 
ATOM     24  N   UNL     1      45.879   4.374   7.759  0.00  0.00    +0.000 NA
ATOM     25  C   UNL     1      45.099   4.488   8.864  0.00  0.00    +0.000 A 
ATOM     26  C   UNL     1      44.693   3.427   9.682  0.00  0.00    +0.000 A 
ATOM     27  C   UNL     1      45.170   2.166   9.321  0.00  0.00    +0.000 A 
BRANCH  22  29
ATOM     28  N   UNL     1      46.958  -0.304   7.541  0.00  0.00    +0.000 NA
ATOM     29  C   UNL     1      46.522   0.733   7.836  0.00  0.00    +0.000 C 
ENDBRANCH  22  29
ENDBRANCH  20  26
ENDBRANCH  17  20
ENDBRANCH   1  17
TORSDOF 7
ENDMDL
MODEL 2
REMARK VINA RESULT:    -7.988      4.084      5.248
REMARK INTER + INTRA:         -11.893
REMARK INTER:                 -10.825
REMARK INTRA:                  -1.068
REMARK UNBOUND:                -0.637
REMARK  Name = 
REMARK  7 active torsions:
REMARK  status: ('A' for Active; 'I' for Inactive)
REMARK    1  A    between atoms: C_2  and  C_3
REMARK    2  A    between atoms: C_7  and  N_8
REMARK    3  A    between atoms: N_8  and  C_9
REMARK    4  A    between atoms: C_9  and  C_10
REMARK    5  A    between atoms: C_14  and  C_15
REMARK    6  A    between atoms: C_19  and  O_20
REMARK    7  A    between atoms: O_20  and  C_21
REMARK                            x       y       z     vdW  Elec       q    Type
REMARK                         _______ _______ _______ _____ _____    ______ ____
ROOT
ATOM      1  C   UNL     1      45.065   5.254  12.261  0.00  0.00    +0.000 A 
ATOM      2  C   UNL     1      45.588   4.274  13.115  0.00  0.00    +0.000 A 
ATOM      3  C   UNL     1      46.850   4.424  13.687  0.00  0.00    +0.000 A 
ATOM      4  C   UNL     1      47.618   5.555  13.400  0.00  0.00    +0.000 A 
ATOM      5  C   UNL     1      47.124   6.581  12.580  0.00  0.00    +0.000 A 
ATOM      6  C   UNL     1      45.821   6.431  12.077  0.00  0.00    +0.000 A 
ENDROOT
BRANCH   5   7
ATOM      7  C   UNL     1      47.972   7.711  12.150  0.00  0.00    +0.000 A 
ATOM      8  C   UNL     1      47.498   9.025  12.221  0.00  0.00    +0.000 A 
ATOM      9  N   UNL     1      48.204  10.128  11.882  0.00  0.00    +0.000 NA
ATOM     10  C   UNL     1      49.469   9.922  11.463  0.00  0.00    +0.000 A 
ATOM     11  C   UNL     1      50.073   8.673  11.389  0.00  0.00    +0.000 A 
ATOM     12  C   UNL     1      49.303   7.554  11.719  0.00  0.00    +0.000 A 
BRANCH  11  13
ATOM     13  O   UNL     1      51.368   8.665  10.962  0.00  0.00    +0.000 OA
BRANCH  13  14
ATOM     14  C   UNL     1      51.899   7.391  10.639  0.00  0.00    +0.000 C 
ATOM     15  F   UNL     1      51.842   7.224   9.295  0.00  0.00    +0.000 F 
ATOM     16  F   UNL     1      53.213   7.408  10.978  0.00  0.00    +0.000 F 
ENDBRANCH  13  14
ENDBRANCH  11  13
ENDBRANCH   5   7
BRANCH   1  17
ATOM     17  C   UNL     1      43.780   5.016  11.464  0.00  0.00    +0.000 C 
ATOM     18  C   UNL     1      42.482   5.433  12.159  0.00  0.00    +0.000 C 
ATOM     19  C   UNL     1      42.996   6.235  11.014  0.00  0.00    +0.000 C 
BRANCH  17  20
ATOM     20  N   UNL     1      43.750   3.729  10.732  0.00  0.00    +0.000 N 
ATOM     21  H   UNL     1      43.692   2.931  11.363  0.00  0.00    +0.000 HD
BRANCH  20  26
ATOM     22  C   UNL     1      45.930   1.956   8.251  0.00  0.00    +0.000 A 
ATOM     23  C   UNL     1      46.401   3.069   7.567  0.00  0.00    +0.000 A 
ATOM     24  N   UNL     1      46.025   4.331   7.857  0.00  0.00    +0.000 NA
ATOM     25  C   UNL     1      45.145   4.481   8.881  0.00  0.00    +0.000 A 
ATOM     26  C   UNL     1      44.585   3.439   9.627  0.00  0.00    +0.000 A 
ATOM     27  C   UNL     1      45.007   2.153   9.286  0.00  0.00    +0.000 A 
BRANCH  22  29
ATOM     28  N   UNL     1      46.790  -0.410   7.639  0.00  0.00    +0.000 NA
ATOM     29  C   UNL     1      46.401   0.652   7.911  0.00  0.00    +0.000 C 
ENDBRANCH  22  29
ENDBRANCH  20  26
ENDBRANCH  17  20
ENDBRANCH   1  17
TORSDOF 7
ENDMDL
MODEL 3
REMARK VINA RESULT:    -7.689      4.625      8.377
REMARK INTER + INTRA:         -11.473
REMARK INTER:                 -10.264
REMARK INTRA:                  -1.209
REMARK UNBOUND:                -0.637
REMARK  Name = 
REMARK  7 active torsions:
REMARK  status: ('A' for Active; 'I' for Inactive)
REMARK    1  A    between atoms: C_2  and  C_3
REMARK    2  A    between atoms: C_7  and  N_8
REMARK    3  A    between atoms: N_8  and  C_9
REMARK    4  A    between atoms: C_9  and  C_10
REMARK    5  A    between atoms: C_14  and  C_15
REMARK    6  A    between atoms: C_19  and  O_20
REMARK    7  A    between atoms: O_20  and  C_21
REMARK                            x       y       z     vdW  Elec       q    Type
REMARK                         _______ _______ _______ _____ _____    ______ ____
ROOT
ATOM      1  C   UNL     1      47.185   7.825  12.348  0.00  0.00    +0.000 A 
ATOM      2  C   UNL     1      46.211   8.827  12.435  0.00  0.00    +0.000 A 
ATOM      3  C   UNL     1      44.917   8.611  11.962  0.00  0.00    +0.000 A 
ATOM      4  C   UNL     1      44.583   7.388  11.377  0.00  0.00    +0.000 A 
ATOM      5  C   UNL     1      45.513   6.340  11.297  0.00  0.00    +0.000 A 
ATOM      6  C   UNL     1      46.786   6.568  11.847  0.00  0.00    +0.000 A 
ENDROOT
BRANCH   5   7
ATOM      7  C   UNL     1      45.224   5.097  10.555  0.00  0.00    +0.000 A 
ATOM      8  C   UNL     1      44.528   4.049  11.166  0.00  0.00    +0.000 A 
ATOM      9  N   UNL     1      44.187   2.885  10.566  0.00  0.00    +0.000 NA
ATOM     10  C   UNL     1      44.541   2.755   9.271  0.00  0.00    +0.000 A 
ATOM     11  C   UNL     1      45.194   3.737   8.538  0.00  0.00    +0.000 A 
ATOM     12  C   UNL     1      45.556   4.914   9.199  0.00  0.00    +0.000 A 
BRANCH  11  13
ATOM     13  O   UNL     1      45.450   3.433   7.234  0.00  0.00    +0.000 OA
BRANCH  13  14
ATOM     14  C   UNL     1      46.819   3.305   6.891  0.00  0.00    +0.000 C 
ATOM     15  F   UNL     1      47.324   2.214   7.516  0.00  0.00    +0.000 F 
ATOM     16  F   UNL     1      46.877   3.056   5.558  0.00  0.00    +0.000 F 
ENDBRANCH  13  14
ENDBRANCH  11  13
ENDBRANCH   5   7
BRANCH   1  17
ATOM     17  C   UNL     1      48.655   8.109  12.668  0.00  0.00    +0.000 C 
ATOM     18  C   UNL     1      49.451   8.803  11.561  0.00  0.00    +0.000 C 
ATOM     19  C   UNL     1      49.081   9.560  12.789  0.00  0.00    +0.000 C 
BRANCH  17  20
ATOM     20  N   UNL     1      49.343   7.009  13.381  0.00  0.00    +0.000 N 
ATOM     21  H   UNL     1      49.418   6.168  12.810  0.00  0.00    +0.000 HD
BRANCH  20  26
ATOM     22  C   UNL     1      48.063   5.357  16.494  0.00  0.00    +0.000 A 
ATOM     23  C   UNL     1      48.500   6.301  17.414  0.00  0.00    +0.000 A 
ATOM     24  N   UNL     1      49.196   7.404  17.073  0.00  0.00    +0.000 NA
ATOM     25  C   UNL     1      49.459   7.568  15.751  0.00  0.00    +0.000 A 
ATOM     26  C   UNL     1      49.093   6.678  14.735  0.00  0.00    +0.000 A 
ATOM     27  C   UNL     1      48.375   5.554  15.142  0.00  0.00    +0.000 A 
BRANCH  22  29
ATOM     28  N   UNL     1      46.670   3.320  17.280  0.00  0.00    +0.000 NA
ATOM     29  C   UNL     1      47.299   4.232  16.927  0.00  0.00    +0.000 C 
ENDBRANCH  22  29
ENDBRANCH  20  26
ENDBRANCH  17  20
ENDBRANCH   1  17
TORSDOF 7
ENDMDL
MODEL 4
REMARK VINA RESULT:    -7.378      5.000      9.056
REMARK INTER + INTRA:         -11.034
REMARK INTER:                  -9.931
REMARK INTRA:                  -1.103
REMARK UNBOUND:                -0.637
REMARK  Name = 
REMARK  7 active torsions:
REMARK  status: ('A' for Active; 'I' for Inactive)
REMARK    1  A    between atoms: C_2  and  C_3
REMARK    2  A    between atoms: C_7  and  N_8
REMARK    3  A    between atoms: N_8  and  C_9
REMARK    4  A    between atoms: C_9  and  C_10
REMARK    5  A    between atoms: C_14  and  C_15
REMARK    6  A    between atoms: C_19  and  O_20
REMARK    7  A    between atoms: O_20  and  C_21
REMARK                            x       y       z     vdW  Elec       q    Type
REMARK                         _______ _______ _______ _____ _____    ______ ____
ROOT
ATOM      1  C   UNL     1      47.352   7.587  12.361  0.00  0.00    +0.000 A 
ATOM      2  C   UNL     1      46.400   8.599  12.539  0.00  0.00    +0.000 A 
ATOM      3  C   UNL     1      45.084   8.426  12.113  0.00  0.00    +0.000 A 
ATOM      4  C   UNL     1      44.702   7.238  11.487  0.00  0.00    +0.000 A 
ATOM      5  C   UNL     1      45.609   6.180  11.317  0.00  0.00    +0.000 A 
ATOM      6  C   UNL     1      46.908   6.361  11.821  0.00  0.00    +0.000 A 
ENDROOT
BRANCH   5   7
ATOM      7  C   UNL     1      45.266   4.978  10.532  0.00  0.00    +0.000 A 
ATOM      8  C   UNL     1      44.573   3.916  11.122  0.00  0.00    +0.000 A 
ATOM      9  N   UNL     1      44.185   2.788  10.484  0.00  0.00    +0.000 NA
ATOM     10  C   UNL     1      44.484   2.712   9.171  0.00  0.00    +0.000 A 
ATOM     11  C   UNL     1      45.129   3.714   8.458  0.00  0.00    +0.000 A 
ATOM     12  C   UNL     1      45.540   4.852   9.157  0.00  0.00    +0.000 A 
BRANCH  11  13
ATOM     13  O   UNL     1      45.327   3.466   7.132  0.00  0.00    +0.000 OA
BRANCH  13  14
ATOM     14  C   UNL     1      46.673   3.257   6.741  0.00  0.00    +0.000 C 
ATOM     15  F   UNL     1      47.235   2.354   7.581  0.00  0.00    +0.000 F 
ATOM     16  F   UNL     1      46.649   2.686   5.510  0.00  0.00    +0.000 F 
ENDBRANCH  13  14
ENDBRANCH  11  13
ENDBRANCH   5   7
BRANCH   1  17
ATOM     17  C   UNL     1      48.839   7.831  12.629  0.00  0.00    +0.000 C 
ATOM     18  C   UNL     1      49.734   7.890  11.389  0.00  0.00    +0.000 C 
ATOM     19  C   UNL     1      49.435   9.139  12.144  0.00  0.00    +0.000 C 
BRANCH  17  20
ATOM     20  N   UNL     1      49.376   7.087  13.792  0.00  0.00    +0.000 N 
ATOM     21  H   UNL     1      49.438   6.086  13.612  0.00  0.00    +0.000 HD
BRANCH  20  26
ATOM     22  C   UNL     1      48.363   8.787  16.976  0.00  0.00    +0.000 A 
ATOM     23  C   UNL     1      48.457   7.692  17.825  0.00  0.00    +0.000 A 
ATOM     24  N   UNL     1      48.798   6.456  17.407  0.00  0.00    +0.000 NA
ATOM     25  C   UNL     1      49.064   6.317  16.083  0.00  0.00    +0.000 A 
ATOM     26  C   UNL     1      48.982   7.336  15.128  0.00  0.00    +0.000 A 
ATOM     27  C   UNL     1      48.624   8.595  15.614  0.00  0.00    +0.000 A 
BRANCH  22  29
ATOM     28  N   UNL     1      47.758  11.124  17.917  0.00  0.00    +0.000 NA
ATOM     29  C   UNL     1      48.031  10.073  17.498  0.00  0.00    +0.000 C 
ENDBRANCH  22  29
ENDBRANCH  20  26
ENDBRANCH  17  20
ENDBRANCH   1  17
TORSDOF 7
ENDMDL
MODEL 5
REMARK VINA RESULT:    -7.083      4.538      8.327
REMARK INTER + INTRA:         -10.619
REMARK INTER:                  -9.391
REMARK INTRA:                  -1.227
REMARK UNBOUND:                -0.637
REMARK  Name = 
REMARK  7 active torsions:
REMARK  status: ('A' for Active; 'I' for Inactive)
REMARK    1  A    between atoms: C_2  and  C_3
REMARK    2  A    between atoms: C_7  and  N_8
REMARK    3  A    between atoms: N_8  and  C_9
REMARK    4  A    between atoms: C_9  and  C_10
REMARK    5  A    between atoms: C_14  and  C_15
REMARK    6  A    between atoms: C_19  and  O_20
REMARK    7  A    between atoms: O_20  and  C_21
REMARK                            x       y       z     vdW  Elec       q    Type
REMARK                         _______ _______ _______ _____ _____    ______ ____
ROOT
ATOM      1  C   UNL     1      48.051   8.023  12.615  0.00  0.00    +0.000 A 
ATOM      2  C   UNL     1      47.326   9.219  12.540  0.00  0.00    +0.000 A 
ATOM      3  C   UNL     1      45.942   9.207  12.374  0.00  0.00    +0.000 A 
ATOM      4  C   UNL     1      45.262   7.993  12.263  0.00  0.00    +0.000 A 
ATOM      5  C   UNL     1      45.938   6.767  12.366  0.00  0.00    +0.000 A 
ATOM      6  C   UNL     1      47.322   6.815  12.604  0.00  0.00    +0.000 A 
ENDROOT
BRANCH   5   7
ATOM      7  C   UNL     1      45.262   5.480  12.108  0.00  0.00    +0.000 A 
ATOM      8  C   UNL     1      44.685   4.756  13.156  0.00  0.00    +0.000 A 
ATOM      9  N   UNL     1      44.018   3.587  13.021  0.00  0.00    +0.000 NA
ATOM     10  C   UNL     1      43.897   3.110  11.766  0.00  0.00    +0.000 A 
ATOM     11  C   UNL     1      44.385   3.753  10.636  0.00  0.00    +0.000 A 
ATOM     12  C   UNL     1      45.094   4.944  10.817  0.00  0.00    +0.000 A 
BRANCH  11  13
ATOM     13  O   UNL     1      44.148   3.128   9.448  0.00  0.00    +0.000 OA
BRANCH  13  14
ATOM     14  C   UNL     1      45.299   2.715   8.731  0.00  0.00    +0.000 C 
ATOM     15  F   UNL     1      45.306   1.362   8.662  0.00  0.00    +0.000 F 
ATOM     16  F   UNL     1      45.165   3.172   7.460  0.00  0.00    +0.000 F 
ENDBRANCH  13  14
ENDBRANCH  11  13
ENDBRANCH   5   7
BRANCH   1  17
ATOM     17  C   UNL     1      49.581   8.013  12.588  0.00  0.00    +0.000 C 
ATOM     18  C   UNL     1      50.218   7.753  11.221  0.00  0.00    +0.000 C 
ATOM     19  C   UNL     1      50.279   9.117  11.814  0.00  0.00    +0.000 C 
BRANCH  17  20
ATOM     20  N   UNL     1      50.203   7.329  13.744  0.00  0.00    +0.000 N 
ATOM     21  H   UNL     1      50.349   6.335  13.569  0.00  0.00    +0.000 HD
BRANCH  20  26
ATOM     22  C   UNL     1      48.762   6.913  17.179  0.00  0.00    +0.000 A 
ATOM     23  C   UNL     1      48.909   8.222  17.617  0.00  0.00    +0.000 A 
ATOM     24  N   UNL     1      49.468   9.196  16.871  0.00  0.00    +0.000 NA
ATOM     25  C   UNL     1      49.889   8.841  15.630  0.00  0.00    +0.000 A 
ATOM     26  C   UNL     1      49.816   7.553  15.087  0.00  0.00    +0.000 A 
ATOM     27  C   UNL     1      49.230   6.583  15.901  0.00  0.00    +0.000 A 
BRANCH  22  29
ATOM     28  N   UNL     1      47.614   5.150  18.692  0.00  0.00    +0.000 NA
ATOM     29  C   UNL     1      48.127   5.944  18.013  0.00  0.00    +0.000 C 
ENDBRANCH  22  29
ENDBRANCH  20  26
ENDBRANCH  17  20
ENDBRANCH   1  17
TORSDOF 7
ENDMDL
MODEL 6
REMARK VINA RESULT:    -6.984      4.348      8.288
REMARK INTER + INTRA:         -10.478
REMARK INTER:                  -9.360
REMARK INTRA:                  -1.118
REMARK UNBOUND:                -0.637
REMARK  Name = 
REMARK  7 active torsions:
REMARK  status: ('A' for Active; 'I' for Inactive)
REMARK    1  A    between atoms: C_2  and  C_3
REMARK    2  A    between atoms: C_7  and  N_8
REMARK    3  A    between atoms: N_8  and  C_9
REMARK    4  A    between atoms: C_9  and  C_10
REMARK    5  A    between atoms: C_14  and  C_15
REMARK    6  A    between atoms: C_19  and  O_20
REMARK    7  A    between atoms: O_20  and  C_21
REMARK                            x       y       z     vdW  Elec       q    Type
REMARK                         _______ _______ _______ _____ _____    ______ ____
ROOT
ATOM      1  C   UNL     1      48.760   8.190  14.013  0.00  0.00    +0.000 A 
ATOM      2  C   UNL     1      49.497   8.654  12.915  0.00  0.00    +0.000 A 
ATOM      3  C   UNL     1      49.173   8.260  11.618  0.00  0.00    +0.000 A 
ATOM      4  C   UNL     1      48.112   7.378  11.400  0.00  0.00    +0.000 A 
ATOM      5  C   UNL     1      47.322   6.912  12.462  0.00  0.00    +0.000 A 
ATOM      6  C   UNL     1      47.631   7.385  13.748  0.00  0.00    +0.000 A 
ENDROOT
BRANCH   5   7
ATOM      7  C   UNL     1      46.293   5.872  12.269  0.00  0.00    +0.000 A 
ATOM      8  C   UNL     1      45.793   5.154  13.361  0.00  0.00    +0.000 A 
ATOM      9  N   UNL     1      44.831   4.206  13.296  0.00  0.00    +0.000 NA
ATOM     10  C   UNL     1      44.314   3.962  12.074  0.00  0.00    +0.000 A 
ATOM     11  C   UNL     1      44.691   4.635  10.919  0.00  0.00    +0.000 A 
ATOM     12  C   UNL     1      45.709   5.588  11.021  0.00  0.00    +0.000 A 
BRANCH  11  13
ATOM     13  O   UNL     1      44.042   4.267   9.778  0.00  0.00    +0.000 OA
BRANCH  13  14
ATOM     14  C   UNL     1      44.734   3.352   8.946  0.00  0.00    +0.000 C 
ATOM     15  F   UNL     1      44.205   2.117   9.122  0.00  0.00    +0.000 F 
ATOM     16  F   UNL     1      44.480   3.709   7.661  0.00  0.00    +0.000 F 
ENDBRANCH  13  14
ENDBRANCH  11  13
ENDBRANCH   5   7
BRANCH   1  17
ATOM     17  C   UNL     1      49.222   8.442  15.450  0.00  0.00    +0.000 C 
ATOM     18  C   UNL     1      49.410   9.910  15.838  0.00  0.00    +0.000 C 
ATOM     19  C   UNL     1      48.257   9.144  16.386  0.00  0.00    +0.000 C 
BRANCH  17  20
ATOM     20  N   UNL     1      50.259   7.498  15.927  0.00  0.00    +0.000 N 
ATOM     21  H   UNL     1      50.897   7.219  15.183  0.00  0.00    +0.000 HD
BRANCH  20  26
ATOM     22  C   UNL     1      48.627   4.572  17.610  0.00  0.00    +0.000 A 
ATOM     23  C   UNL     1      49.475   4.474  18.705  0.00  0.00    +0.000 A 
ATOM     24  N   UNL     1      50.539   5.280  18.895  0.00  0.00    +0.000 NA
ATOM     25  C   UNL     1      50.756   6.229  17.948  0.00  0.00    +0.000 A 
ATOM     26  C   UNL     1      49.988   6.411  16.793  0.00  0.00    +0.000 A 
ATOM     27  C   UNL     1      48.899   5.551  16.645  0.00  0.00    +0.000 A 
BRANCH  22  29
ATOM     28  N   UNL     1      46.578   3.001  17.395  0.00  0.00    +0.000 NA
ATOM     29  C   UNL     1      47.498   3.707  17.495  0.00  0.00    +0.000 C 
ENDBRANCH  22  29
ENDBRANCH  20  26
ENDBRANCH  17  20
ENDBRANCH   1  17
TORSDOF 7
ENDMDL
MODEL 7
REMARK VINA RESULT:    -6.892      5.532      8.290
REMARK INTER + INTRA:         -10.349
REMARK INTER:                  -9.322
REMARK INTRA:                  -1.027
REMARK UNBOUND:                -0.637
REMARK  Name = 
REMARK  7 active torsions:
REMARK  status: ('A' for Active; 'I' for Inactive)
REMARK    1  A    between atoms: C_2  and  C_3
REMARK    2  A    between atoms: C_7  and  N_8
REMARK    3  A    between atoms: N_8  and  C_9
REMARK    4  A    between atoms: C_9  and  C_10
REMARK    5  A    between atoms: C_14  and  C_15
REMARK    6  A    between atoms: C_19  and  O_20
REMARK    7  A    between atoms: O_20  and  C_21
REMARK                            x       y       z     vdW  Elec       q    Type
REMARK                         _______ _______ _______ _____ _____    ______ ____
ROOT
ATOM      1  C   UNL     1      47.006   7.684  12.848  0.00  0.00    +0.000 A 
ATOM      2  C   UNL     1      46.060   8.716  12.848  0.00  0.00    +0.000 A 
ATOM      3  C   UNL     1      44.875   8.600  12.124  0.00  0.00    +0.000 A 
ATOM      4  C   UNL     1      44.624   7.451  11.372  0.00  0.00    +0.000 A 
ATOM      5  C   UNL     1      45.524   6.373  11.367  0.00  0.00    +0.000 A 
ATOM      6  C   UNL     1      46.675   6.494  12.164  0.00  0.00    +0.000 A 
ENDROOT
BRANCH   5   7
ATOM      7  C   UNL     1      45.347   5.215  10.470  0.00  0.00    +0.000 A 
ATOM      8  C   UNL     1      44.588   4.111  10.873  0.00  0.00    +0.000 A 
ATOM      9  N   UNL     1      44.341   3.017  10.116  0.00  0.00    +0.000 NA
ATOM     10  C   UNL     1      44.862   3.021   8.872  0.00  0.00    +0.000 A 
ATOM     11  C   UNL     1      45.595   4.072   8.336  0.00  0.00    +0.000 A 
ATOM     12  C   UNL     1      45.855   5.172   9.158  0.00  0.00    +0.000 A 
BRANCH  11  13
ATOM     13  O   UNL     1      46.023   3.904   7.053  0.00  0.00    +0.000 OA
BRANCH  13  14
ATOM     14  C   UNL     1      46.644   2.662   6.771  0.00  0.00    +0.000 C 
ATOM     15  F   UNL     1      46.613   2.454   5.432  0.00  0.00    +0.000 F 
ATOM     16  F   UNL     1      47.951   2.780   7.119  0.00  0.00    +0.000 F 
ENDBRANCH  13  14
ENDBRANCH  11  13
ENDBRANCH   5   7
BRANCH   1  17
ATOM     17  C   UNL     1      48.395   7.872  13.462  0.00  0.00    +0.000 C 
ATOM     18  C   UNL     1      48.459   7.807  14.989  0.00  0.00    +0.000 C 
ATOM     19  C   UNL     1      49.013   6.687  14.180  0.00  0.00    +0.000 C 
BRANCH  17  20
ATOM     20  N   UNL     1      49.206   8.929  12.815  0.00  0.00    +0.000 N 
ATOM     21  H   UNL     1      48.655   9.493  12.169  0.00  0.00    +0.000 HD
BRANCH  20  26
ATOM     22  C   UNL     1      52.102   7.845  10.696  0.00  0.00    +0.000 A 
ATOM     23  C   UNL     1      53.125   8.160  11.580  0.00  0.00    +0.000 A 
ATOM     24  N   UNL     1      52.915   8.720  12.789  0.00  0.00    +0.000 NA
ATOM     25  C   UNL     1      51.623   8.966  13.126  0.00  0.00    +0.000 A 
ATOM     26  C   UNL     1      50.512   8.715  12.313  0.00  0.00    +0.000 A 
ATOM     27  C   UNL     1      50.785   8.136  11.073  0.00  0.00    +0.000 A 
BRANCH  22  29
ATOM     28  N   UNL     1      52.634   6.712   8.428  0.00  0.00    +0.000 NA
ATOM     29  C   UNL     1      52.399   7.220   9.448  0.00  0.00    +0.000 C 
ENDBRANCH  22  29
ENDBRANCH  20  26
ENDBRANCH  17  20
ENDBRANCH   1  17
TORSDOF 7
ENDMDL
MODEL 8
REMARK VINA RESULT:    -6.530      3.715      7.857
REMARK INTER + INTRA:          -9.839
REMARK INTER:                  -8.481
REMARK INTRA:                  -1.357
REMARK UNBOUND:                -0.637
REMARK  Name = 
REMARK  7 active torsions:
REMARK  status: ('A' for Active; 'I' for Inactive)
REMARK    1  A    between atoms: C_2  and  C_3
REMARK    2  A    between atoms: C_7  and  N_8
REMARK    3  A    between atoms: N_8  and  C_9
REMARK    4  A    between atoms: C_9  and  C_10
REMARK    5  A    between atoms: C_14  and  C_15
REMARK    6  A    between atoms: C_19  and  O_20
REMARK    7  A    between atoms: O_20  and  C_21
REMARK                            x       y       z     vdW  Elec       q    Type
REMARK                         _______ _______ _______ _____ _____    ______ ____
ROOT
ATOM      1  C   UNL     1      49.780   8.149  15.400  0.00  0.00    +0.000 A 
ATOM      2  C   UNL     1      50.849   8.553  14.592  0.00  0.00    +0.000 A 
ATOM      3  C   UNL     1      50.801   8.393  13.208  0.00  0.00    +0.000 A 
ATOM      4  C   UNL     1      49.682   7.808  12.611  0.00  0.00    +0.000 A 
ATOM      5  C   UNL     1      48.570   7.419  13.374  0.00  0.00    +0.000 A 
ATOM      6  C   UNL     1      48.623   7.660  14.757  0.00  0.00    +0.000 A 
ENDROOT
BRANCH   5   7
ATOM      7  C   UNL     1      47.443   6.670  12.782  0.00  0.00    +0.000 A 
ATOM      8  C   UNL     1      47.092   6.855  11.440  0.00  0.00    +0.000 A 
ATOM      9  N   UNL     1      46.100   6.198  10.797  0.00  0.00    +0.000 NA
ATOM     10  C   UNL     1      45.422   5.284  11.520  0.00  0.00    +0.000 A 
ATOM     11  C   UNL     1      45.700   4.974  12.845  0.00  0.00    +0.000 A 
ATOM     12  C   UNL     1      46.713   5.694  13.485  0.00  0.00    +0.000 A 
BRANCH  11  13
ATOM     13  O   UNL     1      44.921   4.006  13.405  0.00  0.00    +0.000 OA
BRANCH  13  14
ATOM     14  C   UNL     1      43.667   3.790  12.780  0.00  0.00    +0.000 C 
ATOM     15  F   UNL     1      43.435   2.456  12.719  0.00  0.00    +0.000 F 
ATOM     16  F   UNL     1      42.718   4.317  13.595  0.00  0.00    +0.000 F 
ENDBRANCH  13  14
ENDBRANCH  11  13
ENDBRANCH   5   7
BRANCH   1  17
ATOM     17  C   UNL     1      49.896   8.124  16.926  0.00  0.00    +0.000 C 
ATOM     18  C   UNL     1      50.025   9.490  17.603  0.00  0.00    +0.000 C 
ATOM     19  C   UNL     1      48.755   8.723  17.728  0.00  0.00    +0.000 C 
BRANCH  17  20
ATOM     20  N   UNL     1      50.765   7.046  17.451  0.00  0.00    +0.000 N 
ATOM     21  H   UNL     1      51.748   7.204  17.230  0.00  0.00    +0.000 HD
BRANCH  20  26
ATOM     22  C   UNL     1      48.904   3.792  17.420  0.00  0.00    +0.000 A 
ATOM     23  C   UNL     1      49.998   2.937  17.415  0.00  0.00    +0.000 A 
ATOM     24  N   UNL     1      51.276   3.367  17.393  0.00  0.00    +0.000 NA
ATOM     25  C   UNL     1      51.462   4.712  17.383  0.00  0.00    +0.000 A 
ATOM     26  C   UNL     1      50.443   5.671  17.364  0.00  0.00    +0.000 A 
ATOM     27  C   UNL     1      49.140   5.172  17.388  0.00  0.00    +0.000 A 
BRANCH  22  29
ATOM     28  N   UNL     1      46.498   2.838  17.528  0.00  0.00    +0.000 NA
ATOM     29  C   UNL     1      47.580   3.264  17.481  0.00  0.00    +0.000 C 
ENDBRANCH  22  29
ENDBRANCH  20  26
ENDBRANCH  17  20
ENDBRANCH   1  17
TORSDOF 7
ENDMDL
