MODEL 1
REMARK VINA RESULT:    -8.656      0.000      0.000
REMARK INTER + INTRA:         -11.733
REMARK INTER:                 -11.186
REMARK INTRA:                  -0.547
REMARK UNBOUND:                -0.547
REMARK  Name = 
REMARK  6 active torsions:
REMARK  status: ('A' for Active; 'I' for Inactive)
REMARK    1  A    between atoms: C_1  and  C_2
REMARK    2  A    between atoms: N_7  and  C_8
REMARK    3  A    between atoms: C_8  and  C_9
REMARK    4  A    between atoms: C_12  and  C_13
REMARK    5  A    between atoms: C_13  and  N_14
REMARK    6  A    between atoms: C_15  and  C_17
REMARK                            x       y       z     vdW  Elec       q    Type
REMARK                         _______ _______ _______ _____ _____    ______ ____
ROOT
ATOM      1  C   UNL     1      44.936   5.047  11.421  0.00  0.00    +0.000 A 
ATOM      2  C   UNL     1      45.421   6.298  11.016  0.00  0.00    +0.000 A 
ATOM      3  C   UNL     1      46.480   6.912  11.699  0.00  0.00    +0.000 A 
ATOM      4  C   UNL     1      47.090   6.277  12.789  0.00  0.00    +0.000 A 
ATOM      5  C   UNL     1      46.600   5.031  13.201  0.00  0.00    +0.000 A 
ATOM      6  C   UNL     1      45.544   4.418  12.517  0.00  0.00    +0.000 A 
ENDROOT
BRANCH   1   7
ATOM      7  C   UNL     1      43.785   4.386  10.689  0.00  0.00    +0.000 C 
BRANCH   7  14
ATOM      8  C   UNL     1      46.797   0.135   7.642  0.00  0.00    +0.000 C 
ATOM      9  C   UNL     1      46.319   1.532   7.901  0.00  0.00    +0.000 A 
ATOM     10  C   UNL     1      46.639   2.560   7.043  0.00  0.00    +0.000 A 
ATOM     11  C   UNL     1      46.108   3.785   7.363  0.00  0.00    +0.000 A 
ATOM     12  N   UNL     1      45.305   3.999   8.423  0.00  0.00    +0.000 NA
ATOM     13  C   UNL     1      45.033   2.943   9.203  0.00  0.00    +0.000 A 
ATOM     14  N   UNL     1      44.159   3.060  10.263  0.00  0.00    +0.000 N 
ATOM     15  N   UNL     1      45.541   1.718   8.993  0.00  0.00    +0.000 NA
ATOM     16  H   UNL     1      44.353   2.361  10.966  0.00  0.00    +0.000 HD
ENDBRANCH   7  14
ENDBRANCH   1   7
BRANCH   4  17
ATOM     17  C   UNL     1      48.243   6.925  13.514  0.00  0.00    +0.000 C 
BRANCH  17  18
ATOM     18  N   UNL     1      48.035   6.963  14.937  0.00  0.00    +0.000 N 
ATOM     19  C   UNL     1      49.086   6.801  15.810  0.00  0.00    +0.000 C 
ATOM     20  O   UNL     1      50.243   6.684  15.413  0.00  0.00    +0.000 OA
ATOM     21  H   UNL     1      47.082   6.831  15.271  0.00  0.00    +0.000 HD
BRANCH  19  22
ATOM     22  C   UNL     1      48.770   6.822  17.243  0.00  0.00    +0.000 A 
ATOM     23  C   UNL     1      48.374   8.011  17.841  0.00  0.00    +0.000 A 
ATOM     24  S   UNL     1      48.004   7.855  19.498  0.00  0.00    +0.000 S 
ATOM     25  C   UNL     1      48.408   6.203  19.489  0.00  0.00    +0.000 A 
ATOM     26  N   UNL     1      48.332   5.460  20.625  0.00  0.00    +0.000 NA
ATOM     27  C   UNL     1      48.698   4.229  20.482  0.00  0.00    +0.000 A 
ATOM     28  N   UNL     1      49.129   3.675  19.304  0.00  0.00    +0.000 N 
ATOM     29  C   UNL     1      49.191   4.379  18.125  0.00  0.00    +0.000 A 
ATOM     30  O   UNL     1      49.538   3.841  17.079  0.00  0.00    +0.000 OA
ATOM     31  C   UNL     1      48.801   5.772  18.235  0.00  0.00    +0.000 A 
ATOM     32  H   UNL     1      49.395   2.703  19.257  0.00  0.00    +0.000 HD
ENDBRANCH  19  22
ENDBRANCH  17  18
ENDBRANCH   4  17
TORSDOF 5
ENDMDL
MODEL 2
REMARK VINA RESULT:    -8.533      1.298      1.923
REMARK INTER + INTRA:         -11.574
REMARK INTER:                 -10.916
REMARK INTRA:                  -0.658
REMARK UNBOUND:                -0.547
REMARK  Name = 
REMARK  6 active torsions:
REMARK  status: ('A' for Active; 'I' for Inactive)
REMARK    1  A    between atoms: C_1  and  C_2
REMARK    2  A    between atoms: N_7  and  C_8
REMARK    3  A    between atoms: C_8  and  C_9
REMARK    4  A    between atoms: C_12  and  C_13
REMARK    5  A    between atoms: C_13  and  N_14
REMARK    6  A    between atoms: C_15  and  C_17
REMARK                            x       y       z     vdW  Elec       q    Type
REMARK                         _______ _______ _______ _____ _____    ______ ____
ROOT
ATOM      1  C   UNL     1      44.990   5.144  11.186  0.00  0.00    +0.000 A 
ATOM      2  C   UNL     1      45.682   6.314  10.842  0.00  0.00    +0.000 A 
ATOM      3  C   UNL     1      46.671   6.835  11.686  0.00  0.00    +0.000 A 
ATOM      4  C   UNL     1      47.007   6.185  12.881  0.00  0.00    +0.000 A 
ATOM      5  C   UNL     1      46.311   5.021  13.230  0.00  0.00    +0.000 A 
ATOM      6  C   UNL     1      45.323   4.499  12.387  0.00  0.00    +0.000 A 
ENDROOT
BRANCH   1   7
ATOM      7  C   UNL     1      43.912   4.583  10.279  0.00  0.00    +0.000 C 
BRANCH   7  14
ATOM      8  C   UNL     1      46.795   0.011   7.593  0.00  0.00    +0.000 C 
ATOM      9  C   UNL     1      46.404   1.448   7.770  0.00  0.00    +0.000 A 
ATOM     10  C   UNL     1      46.852   2.415   6.899  0.00  0.00    +0.000 A 
ATOM     11  C   UNL     1      46.392   3.687   7.139  0.00  0.00    +0.000 A 
ATOM     12  N   UNL     1      45.541   3.999   8.135  0.00  0.00    +0.000 NA
ATOM     13  C   UNL     1      45.144   2.997   8.932  0.00  0.00    +0.000 A 
ATOM     14  N   UNL     1      44.215   3.218   9.927  0.00  0.00    +0.000 N 
ATOM     15  N   UNL     1      45.574   1.732   8.801  0.00  0.00    +0.000 NA
ATOM     16  H   UNL     1      44.313   2.536  10.666  0.00  0.00    +0.000 HD
ENDBRANCH   7  14
ENDBRANCH   1   7
BRANCH   4  17
ATOM     17  C   UNL     1      48.087   6.732  13.780  0.00  0.00    +0.000 C 
BRANCH  17  18
ATOM     18  N   UNL     1      47.933   6.288  15.141  0.00  0.00    +0.000 N 
ATOM     19  C   UNL     1      49.012   6.236  15.993  0.00  0.00    +0.000 C 
ATOM     20  O   UNL     1      50.126   6.624  15.649  0.00  0.00    +0.000 OA
ATOM     21  H   UNL     1      47.092   5.760  15.365  0.00  0.00    +0.000 HD
BRANCH  19  22
ATOM     22  C   UNL     1      48.764   5.738  17.351  0.00  0.00    +0.000 A 
ATOM     23  C   UNL     1      48.945   4.391  17.632  0.00  0.00    +0.000 A 
ATOM     24  S   UNL     1      48.656   3.985  19.263  0.00  0.00    +0.000 S 
ATOM     25  C   UNL     1      48.228   5.587  19.642  0.00  0.00    +0.000 A 
ATOM     26  N   UNL     1      47.844   5.926  20.902  0.00  0.00    +0.000 NA
ATOM     27  C   UNL     1      47.516   7.168  21.041  0.00  0.00    +0.000 A 
ATOM     28  N   UNL     1      47.544   8.100  20.036  0.00  0.00    +0.000 N 
ATOM     29  C   UNL     1      47.956   7.810  18.757  0.00  0.00    +0.000 A 
ATOM     30  O   UNL     1      48.012   8.678  17.893  0.00  0.00    +0.000 OA
ATOM     31  C   UNL     1      48.324   6.423  18.545  0.00  0.00    +0.000 A 
ATOM     32  H   UNL     1      47.282   9.058  20.213  0.00  0.00    +0.000 HD
ENDBRANCH  19  22
ENDBRANCH  17  18
ENDBRANCH   4  17
TORSDOF 5
ENDMDL
MODEL 3
REMARK VINA RESULT:    -7.995      1.482      1.973
REMARK INTER + INTRA:         -10.878
REMARK INTER:                  -9.864
REMARK INTRA:                  -1.015
REMARK UNBOUND:                -0.547
REMARK  Name = 
REMARK  6 active torsions:
REMARK  status: ('A' for Active; 'I' for Inactive)
REMARK    1  A    between atoms: C_1  and  C_2
REMARK    2  A    between atoms: N_7  and  C_8
REMARK    3  A    between atoms: C_8  and  C_9
REMARK    4  A    between atoms: C_12  and  C_13
REMARK    5  A    between atoms: C_13  and  N_14
REMARK    6  A    between atoms: C_15  and  C_17
REMARK                            x       y       z     vdW  Elec       q    Type
REMARK                         _______ _______ _______ _____ _____    ______ ____
ROOT
ATOM      1  C   UNL     1      45.484   6.445  11.363  0.00  0.00    +0.000 A 
ATOM      2  C   UNL     1      44.897   7.594  11.909  0.00  0.00    +0.000 A 
ATOM      3  C   UNL     1      45.590   8.380  12.839  0.00  0.00    +0.000 A 
ATOM      4  C   UNL     1      46.895   8.047  13.225  0.00  0.00    +0.000 A 
ATOM      5  C   UNL     1      47.480   6.894  12.686  0.00  0.00    +0.000 A 
ATOM      6  C   UNL     1      46.788   6.109  11.757  0.00  0.00    +0.000 A 
ENDROOT
BRANCH   1   7
ATOM      7  C   UNL     1      44.732   5.588  10.364  0.00  0.00    +0.000 C 
BRANCH   7  14
ATOM      8  C   UNL     1      47.082   2.848   5.526  0.00  0.00    +0.000 C 
ATOM      9  C   UNL     1      46.433   2.888   6.877  0.00  0.00    +0.000 A 
ATOM     10  C   UNL     1      46.161   1.727   7.565  0.00  0.00    +0.000 A 
ATOM     11  C   UNL     1      45.605   1.894   8.810  0.00  0.00    +0.000 A 
ATOM     12  N   UNL     1      45.351   3.097   9.361  0.00  0.00    +0.000 NA
ATOM     13  C   UNL     1      45.656   4.178   8.630  0.00  0.00    +0.000 A 
ATOM     14  N   UNL     1      45.498   5.445   9.151  0.00  0.00    +0.000 N 
ATOM     15  N   UNL     1      46.162   4.112   7.388  0.00  0.00    +0.000 NA
ATOM     16  H   UNL     1      45.370   6.122   8.412  0.00  0.00    +0.000 HD
ENDBRANCH   7  14
ENDBRANCH   1   7
BRANCH   4  17
ATOM     17  C   UNL     1      47.652   8.902  14.209  0.00  0.00    +0.000 C 
BRANCH  17  18
ATOM     18  N   UNL     1      47.939   8.198  15.431  0.00  0.00    +0.000 N 
ATOM     19  C   UNL     1      49.236   7.952  15.817  0.00  0.00    +0.000 C 
ATOM     20  O   UNL     1      50.193   8.377  15.174  0.00  0.00    +0.000 OA
ATOM     21  H   UNL     1      47.183   7.654  15.842  0.00  0.00    +0.000 HD
BRANCH  19  22
ATOM     22  C   UNL     1      49.428   7.197  17.061  0.00  0.00    +0.000 A 
ATOM     23  C   UNL     1      50.114   7.779  18.118  0.00  0.00    +0.000 A 
ATOM     24  S   UNL     1      50.213   6.788  19.502  0.00  0.00    +0.000 S 
ATOM     25  C   UNL     1      49.385   5.523  18.720  0.00  0.00    +0.000 A 
ATOM     26  N   UNL     1      49.150   4.345  19.358  0.00  0.00    +0.000 NA
ATOM     27  C   UNL     1      48.542   3.463  18.637  0.00  0.00    +0.000 A 
ATOM     28  N   UNL     1      48.143   3.654  17.339  0.00  0.00    +0.000 N 
ATOM     29  C   UNL     1      48.331   4.839  16.667  0.00  0.00    +0.000 A 
ATOM     30  O   UNL     1      47.921   4.992  15.521  0.00  0.00    +0.000 OA
ATOM     31  C   UNL     1      49.022   5.860  17.429  0.00  0.00    +0.000 A 
ATOM     32  H   UNL     1      47.664   2.926  16.833  0.00  0.00    +0.000 HD
ENDBRANCH  19  22
ENDBRANCH  17  18
ENDBRANCH   4  17
TORSDOF 5
ENDMDL
MODEL 4
REMARK VINA RESULT:    -7.962      1.843      2.122
REMARK INTER + INTRA:         -10.837
REMARK INTER:                 -10.136
REMARK INTRA:                  -0.700
REMARK UNBOUND:                -0.547
REMARK  Name = 
REMARK  6 active torsions:
REMARK  status: ('A' for Active; 'I' for Inactive)
REMARK    1  A    between atoms: C_1  and  C_2
REMARK    2  A    between atoms: N_7  and  C_8
REMARK    3  A    between atoms: C_8  and  C_9
REMARK    4  A    between atoms: C_12  and  C_13
REMARK    5  A    between atoms: C_13  and  N_14
REMARK    6  A    between atoms: C_15  and  C_17
REMARK                            x       y       z     vdW  Elec       q    Type
REMARK                         _______ _______ _______ _____ _____    ______ ____
ROOT
ATOM      1  C   UNL     1      44.376   4.641  11.799  0.00  0.00    +0.000 A 
ATOM      2  C   UNL     1      45.329   4.233  12.742  0.00  0.00    +0.000 A 
ATOM      3  C   UNL     1      46.263   5.142  13.256  0.00  0.00    +0.000 A 
ATOM      4  C   UNL     1      46.250   6.484  12.856  0.00  0.00    +0.000 A 
ATOM      5  C   UNL     1      45.303   6.892  11.907  0.00  0.00    +0.000 A 
ATOM      6  C   UNL     1      44.369   5.984  11.395  0.00  0.00    +0.000 A 
ENDROOT
BRANCH   1   7
ATOM      7  C   UNL     1      43.370   3.657  11.235  0.00  0.00    +0.000 C 
BRANCH   7  14
ATOM      8  C   UNL     1      47.034   0.658   7.491  0.00  0.00    +0.000 C 
ATOM      9  C   UNL     1      46.211   1.833   7.927  0.00  0.00    +0.000 A 
ATOM     10  C   UNL     1      46.095   2.950   7.130  0.00  0.00    +0.000 A 
ATOM     11  C   UNL     1      45.281   3.942   7.617  0.00  0.00    +0.000 A 
ATOM     12  N   UNL     1      44.607   3.854   8.780  0.00  0.00    +0.000 NA
ATOM     13  C   UNL     1      44.765   2.728   9.491  0.00  0.00    +0.000 A 
ATOM     14  N   UNL     1      44.051   2.527  10.653  0.00  0.00    +0.000 N 
ATOM     15  N   UNL     1      45.573   1.724   9.115  0.00  0.00    +0.000 NA
ATOM     16  H   UNL     1      44.536   1.884  11.264  0.00  0.00    +0.000 HD
ENDBRANCH   7  14
ENDBRANCH   1   7
BRANCH   4  17
ATOM     17  C   UNL     1      47.240   7.470  13.423  0.00  0.00    +0.000 C 
BRANCH  17  18
ATOM     18  N   UNL     1      48.245   6.826  14.226  0.00  0.00    +0.000 N 
ATOM     19  C   UNL     1      48.786   7.458  15.323  0.00  0.00    +0.000 C 
ATOM     20  O   UNL     1      48.388   8.559  15.694  0.00  0.00    +0.000 OA
ATOM     21  H   UNL     1      48.736   6.037  13.811  0.00  0.00    +0.000 HD
BRANCH  19  22
ATOM     22  C   UNL     1      49.828   6.735  16.060  0.00  0.00    +0.000 A 
ATOM     23  C   UNL     1      51.103   7.278  16.156  0.00  0.00    +0.000 A 
ATOM     24  S   UNL     1      52.183   6.336  17.080  0.00  0.00    +0.000 S 
ATOM     25  C   UNL     1      51.001   5.142  17.342  0.00  0.00    +0.000 A 
ATOM     26  N   UNL     1      51.288   4.022  18.060  0.00  0.00    +0.000 NA
ATOM     27  C   UNL     1      50.309   3.185  18.154  0.00  0.00    +0.000 A 
ATOM     28  N   UNL     1      49.068   3.369  17.600  0.00  0.00    +0.000 N 
ATOM     29  C   UNL     1      48.723   4.499  16.896  0.00  0.00    +0.000 A 
ATOM     30  O   UNL     1      47.590   4.652  16.452  0.00  0.00    +0.000 OA
ATOM     31  C   UNL     1      49.793   5.466  16.750  0.00  0.00    +0.000 A 
ATOM     32  H   UNL     1      48.342   2.679  17.716  0.00  0.00    +0.000 HD
ENDBRANCH  19  22
ENDBRANCH  17  18
ENDBRANCH   4  17
TORSDOF 5
ENDMDL
MODEL 5
REMARK VINA RESULT:    -7.651      3.002      4.834
REMARK INTER + INTRA:         -10.434
REMARK INTER:                  -9.520
REMARK INTRA:                  -0.914
REMARK UNBOUND:                -0.547
REMARK  Name = 
REMARK  6 active torsions:
REMARK  status: ('A' for Active; 'I' for Inactive)
REMARK    1  A    between atoms: C_1  and  C_2
REMARK    2  A    between atoms: N_7  and  C_8
REMARK    3  A    between atoms: C_8  and  C_9
REMARK    4  A    between atoms: C_12  and  C_13
REMARK    5  A    between atoms: C_13  and  N_14
REMARK    6  A    between atoms: C_15  and  C_17
REMARK                            x       y       z     vdW  Elec       q    Type
REMARK                         _______ _______ _______ _____ _____    ______ ____
ROOT
ATOM      1  C   UNL     1      45.056   5.014  11.374  0.00  0.00    +0.000 A 
ATOM      2  C   UNL     1      45.432   4.057  12.326  0.00  0.00    +0.000 A 
ATOM      3  C   UNL     1      46.320   4.384  13.359  0.00  0.00    +0.000 A 
ATOM      4  C   UNL     1      46.833   5.683  13.476  0.00  0.00    +0.000 A 
ATOM      5  C   UNL     1      46.464   6.638  12.521  0.00  0.00    +0.000 A 
ATOM      6  C   UNL     1      45.577   6.311  11.489  0.00  0.00    +0.000 A 
ENDROOT
BRANCH   1   7
ATOM      7  C   UNL     1      44.103   4.659  10.249  0.00  0.00    +0.000 C 
BRANCH   7  14
ATOM      8  C   UNL     1      46.813   0.045   7.456  0.00  0.00    +0.000 C 
ATOM      9  C   UNL     1      46.527   1.495   7.710  0.00  0.00    +0.000 A 
ATOM     10  C   UNL     1      47.122   2.476   6.949  0.00  0.00    +0.000 A 
ATOM     11  C   UNL     1      46.750   3.764   7.248  0.00  0.00    +0.000 A 
ATOM     12  N   UNL     1      45.849   4.081   8.197  0.00  0.00    +0.000 NA
ATOM     13  C   UNL     1      45.307   3.066   8.885  0.00  0.00    +0.000 A 
ATOM     14  N   UNL     1      44.321   3.300   9.821  0.00  0.00    +0.000 N 
ATOM     15  N   UNL     1      45.642   1.780   8.693  0.00  0.00    +0.000 NA
ATOM     16  H   UNL     1      44.302   2.563  10.512  0.00  0.00    +0.000 HD
ENDBRANCH   7  14
ENDBRANCH   1   7
BRANCH   4  17
ATOM     17  C   UNL     1      47.771   6.044  14.599  0.00  0.00    +0.000 C 
BRANCH  17  18
ATOM     18  N   UNL     1      48.680   7.097  14.227  0.00  0.00    +0.000 N 
ATOM     19  C   UNL     1      49.896   7.236  14.857  0.00  0.00    +0.000 C 
ATOM     20  O   UNL     1      50.278   6.436  15.708  0.00  0.00    +0.000 OA
ATOM     21  H   UNL     1      48.294   7.880  13.705  0.00  0.00    +0.000 HD
BRANCH  19  22
ATOM     22  C   UNL     1      50.740   8.359  14.433  0.00  0.00    +0.000 A 
ATOM     23  C   UNL     1      51.308   9.190  15.389  0.00  0.00    +0.000 A 
ATOM     24  S   UNL     1      52.292  10.418  14.733  0.00  0.00    +0.000 S 
ATOM     25  C   UNL     1      51.955   9.915  13.144  0.00  0.00    +0.000 A 
ATOM     26  N   UNL     1      52.482  10.573  12.077  0.00  0.00    +0.000 NA
ATOM     27  C   UNL     1      52.117  10.104  10.930  0.00  0.00    +0.000 A 
ATOM     28  N   UNL     1      51.278   9.034  10.754  0.00  0.00    +0.000 N 
ATOM     29  C   UNL     1      50.749   8.319  11.802  0.00  0.00    +0.000 A 
ATOM     30  O   UNL     1      50.038   7.338  11.610  0.00  0.00    +0.000 OA
ATOM     31  C   UNL     1      51.118   8.813  13.114  0.00  0.00    +0.000 A 
ATOM     32  H   UNL     1      51.038   8.712   9.829  0.00  0.00    +0.000 HD
ENDBRANCH  19  22
ENDBRANCH  17  18
ENDBRANCH   4  17
TORSDOF 5
ENDMDL
MODEL 6
REMARK VINA RESULT:    -7.233      3.697      8.668
REMARK INTER + INTRA:          -9.894
REMARK INTER:                  -8.987
REMARK INTRA:                  -0.907
REMARK UNBOUND:                -0.547
REMARK  Name = 
REMARK  6 active torsions:
REMARK  status: ('A' for Active; 'I' for Inactive)
REMARK    1  A    between atoms: C_1  and  C_2
REMARK    2  A    between atoms: N_7  and  C_8
REMARK    3  A    between atoms: C_8  and  C_9
REMARK    4  A    between atoms: C_12  and  C_13
REMARK    5  A    between atoms: C_13  and  N_14
REMARK    6  A    between atoms: C_15  and  C_17
REMARK                            x       y       z     vdW  Elec       q    Type
REMARK                         _______ _______ _______ _____ _____    ______ ____
ROOT
ATOM      1  C   UNL     1      49.966   4.726  17.494  0.00  0.00    +0.000 A 
ATOM      2  C   UNL     1      50.722   5.796  16.996  0.00  0.00    +0.000 A 
ATOM      3  C   UNL     1      50.183   6.671  16.043  0.00  0.00    +0.000 A 
ATOM      4  C   UNL     1      48.870   6.507  15.585  0.00  0.00    +0.000 A 
ATOM      5  C   UNL     1      48.116   5.434  16.075  0.00  0.00    +0.000 A 
ATOM      6  C   UNL     1      48.654   4.560  17.028  0.00  0.00    +0.000 A 
ENDROOT
BRANCH   1   7
ATOM      7  C   UNL     1      50.551   3.773  18.518  0.00  0.00    +0.000 C 
BRANCH   7  14
ATOM      8  C   UNL     1      54.431  -0.469  16.678  0.00  0.00    +0.000 C 
ATOM      9  C   UNL     1      54.052   0.888  17.191  0.00  0.00    +0.000 A 
ATOM     10  C   UNL     1      55.008   1.855  17.407  0.00  0.00    +0.000 A 
ATOM     11  C   UNL     1      54.534   3.070  17.838  0.00  0.00    +0.000 A 
ATOM     12  N   UNL     1      53.227   3.340  18.024  0.00  0.00    +0.000 NA
ATOM     13  C   UNL     1      52.360   2.347  17.781  0.00  0.00    +0.000 A 
ATOM     14  N   UNL     1      51.001   2.564  17.875  0.00  0.00    +0.000 N 
ATOM     15  N   UNL     1      52.734   1.115  17.400  0.00  0.00    +0.000 NA
ATOM     16  H   UNL     1      50.514   1.700  18.067  0.00  0.00    +0.000 HD
ENDBRANCH   7  14
ENDBRANCH   1   7
BRANCH   4  17
ATOM     17  C   UNL     1      48.279   7.459  14.575  0.00  0.00    +0.000 C 
BRANCH  17  18
ATOM     18  N   UNL     1      47.044   6.967  14.025  0.00  0.00    +0.000 N 
ATOM     19  C   UNL     1      46.939   6.658  12.688  0.00  0.00    +0.000 C 
ATOM     20  O   UNL     1      47.905   6.727  11.931  0.00  0.00    +0.000 OA
ATOM     21  H   UNL     1      46.199   7.120  14.571  0.00  0.00    +0.000 HD
BRANCH  19  22
ATOM     22  C   UNL     1      45.629   6.195  12.213  0.00  0.00    +0.000 A 
ATOM     23  C   UNL     1      44.738   7.106  11.663  0.00  0.00    +0.000 A 
ATOM     24  S   UNL     1      43.282   6.401  11.123  0.00  0.00    +0.000 S 
ATOM     25  C   UNL     1      43.770   4.860  11.652  0.00  0.00    +0.000 A 
ATOM     26  N   UNL     1      42.953   3.782  11.506  0.00  0.00    +0.000 NA
ATOM     27  C   UNL     1      43.435   2.682  11.980  0.00  0.00    +0.000 A 
ATOM     28  N   UNL     1      44.662   2.561  12.581  0.00  0.00    +0.000 N 
ATOM     29  C   UNL     1      45.533   3.615  12.720  0.00  0.00    +0.000 A 
ATOM     30  O   UNL     1      46.642   3.464  13.222  0.00  0.00    +0.000 OA
ATOM     31  C   UNL     1      45.033   4.879  12.214  0.00  0.00    +0.000 A 
ATOM     32  H   UNL     1      44.984   1.669  12.924  0.00  0.00    +0.000 HD
ENDBRANCH  19  22
ENDBRANCH  17  18
ENDBRANCH   4  17
TORSDOF 5
ENDMDL
MODEL 7
REMARK VINA RESULT:    -7.218      3.198      8.763
REMARK INTER + INTRA:          -9.874
REMARK INTER:                  -9.057
REMARK INTRA:                  -0.817
REMARK UNBOUND:                -0.547
REMARK  Name = 
REMARK  6 active torsions:
REMARK  status: ('A' for Active; 'I' for Inactive)
REMARK    1  A    between atoms: C_1  and  C_2
REMARK    2  A    between atoms: N_7  and  C_8
REMARK    3  A    between atoms: C_8  and  C_9
REMARK    4  A    between atoms: C_12  and  C_13
REMARK    5  A    between atoms: C_13  and  N_14
REMARK    6  A    between atoms: C_15  and  C_17
REMARK                            x       y       z     vdW  Elec       q    Type
REMARK                         _______ _______ _______ _____ _____    ______ ____
ROOT
ATOM      1  C   UNL     1      49.576   7.924  15.444  0.00  0.00    +0.000 A 
ATOM      2  C   UNL     1      48.287   8.470  15.384  0.00  0.00    +0.000 A 
ATOM      3  C   UNL     1      47.572   8.488  14.179  0.00  0.00    +0.000 A 
ATOM      4  C   UNL     1      48.122   7.940  13.013  0.00  0.00    +0.000 A 
ATOM      5  C   UNL     1      49.413   7.402  13.070  0.00  0.00    +0.000 A 
ATOM      6  C   UNL     1      50.128   7.383  14.273  0.00  0.00    +0.000 A 
ENDROOT
BRANCH   1   7
ATOM      7  C   UNL     1      50.355   7.913  16.744  0.00  0.00    +0.000 C 
BRANCH   7  14
ATOM      8  C   UNL     1      50.885   1.952  17.536  0.00  0.00    +0.000 C 
ATOM      9  C   UNL     1      50.152   3.260  17.551  0.00  0.00    +0.000 A 
ATOM     10  C   UNL     1      48.847   3.334  17.983  0.00  0.00    +0.000 A 
ATOM     11  C   UNL     1      48.296   4.592  17.991  0.00  0.00    +0.000 A 
ATOM     12  N   UNL     1      48.966   5.704  17.630  0.00  0.00    +0.000 NA
ATOM     13  C   UNL     1      50.237   5.547  17.233  0.00  0.00    +0.000 A 
ATOM     14  N   UNL     1      51.014   6.642  16.921  0.00  0.00    +0.000 N 
ATOM     15  N   UNL     1      50.844   4.353  17.152  0.00  0.00    +0.000 NA
ATOM     16  H   UNL     1      51.754   6.385  16.282  0.00  0.00    +0.000 HD
ENDBRANCH   7  14
ENDBRANCH   1   7
BRANCH   4  17
ATOM     17  C   UNL     1      47.347   7.938  11.720  0.00  0.00    +0.000 C 
BRANCH  17  18
ATOM     18  N   UNL     1      46.710   6.672  11.472  0.00  0.00    +0.000 N 
ATOM     19  C   UNL     1      45.381   6.478  11.775  0.00  0.00    +0.000 C 
ATOM     20  O   UNL     1      44.677   7.389  12.204  0.00  0.00    +0.000 OA
ATOM     21  H   UNL     1      47.316   5.865  11.340  0.00  0.00    +0.000 HD
BRANCH  19  22
ATOM     22  C   UNL     1      44.829   5.143  11.519  0.00  0.00    +0.000 A 
ATOM     23  C   UNL     1      44.120   4.489  12.519  0.00  0.00    +0.000 A 
ATOM     24  S   UNL     1      43.511   2.969  12.046  0.00  0.00    +0.000 S 
ATOM     25  C   UNL     1      44.215   3.106  10.504  0.00  0.00    +0.000 A 
ATOM     26  N   UNL     1      44.088   2.107   9.588  0.00  0.00    +0.000 NA
ATOM     27  C   UNL     1      44.698   2.329   8.472  0.00  0.00    +0.000 A 
ATOM     28  N   UNL     1      45.419   3.461   8.187  0.00  0.00    +0.000 N 
ATOM     29  C   UNL     1      45.547   4.508   9.069  0.00  0.00    +0.000 A 
ATOM     30  O   UNL     1      46.161   5.525   8.765  0.00  0.00    +0.000 OA
ATOM     31  C   UNL     1      44.889   4.303  10.345  0.00  0.00    +0.000 A 
ATOM     32  H   UNL     1      45.867   3.576   7.291  0.00  0.00    +0.000 HD
ENDBRANCH  19  22
ENDBRANCH  17  18
ENDBRANCH   4  17
TORSDOF 5
ENDMDL
MODEL 8
REMARK VINA RESULT:    -7.007      5.277      8.274
REMARK INTER + INTRA:          -9.602
REMARK INTER:                  -8.800
REMARK INTRA:                  -0.802
REMARK UNBOUND:                -0.547
REMARK  Name = 
REMARK  6 active torsions:
REMARK  status: ('A' for Active; 'I' for Inactive)
REMARK    1  A    between atoms: C_1  and  C_2
REMARK    2  A    between atoms: N_7  and  C_8
REMARK    3  A    between atoms: C_8  and  C_9
REMARK    4  A    between atoms: C_12  and  C_13
REMARK    5  A    between atoms: C_13  and  N_14
REMARK    6  A    between atoms: C_15  and  C_17
REMARK                            x       y       z     vdW  Elec       q    Type
REMARK                         _______ _______ _______ _____ _____    ______ ____
ROOT
ATOM      1  C   UNL     1      50.835   8.833  11.138  0.00  0.00    +0.000 A 
ATOM      2  C   UNL     1      50.327   7.560  11.433  0.00  0.00    +0.000 A 
ATOM      3  C   UNL     1      49.021   7.403  11.914  0.00  0.00    +0.000 A 
ATOM      4  C   UNL     1      48.186   8.514  12.090  0.00  0.00    +0.000 A 
ATOM      5  C   UNL     1      48.694   9.788  11.805  0.00  0.00    +0.000 A 
ATOM      6  C   UNL     1      49.999   9.944  11.323  0.00  0.00    +0.000 A 
ENDROOT
BRANCH   1   7
ATOM      7  C   UNL     1      52.251   9.006  10.627  0.00  0.00    +0.000 C 
BRANCH   7  14
ATOM      8  C   UNL     1      55.070   4.331   8.050  0.00  0.00    +0.000 C 
ATOM      9  C   UNL     1      54.225   5.570   8.050  0.00  0.00    +0.000 A 
ATOM     10  C   UNL     1      53.679   6.053   6.882  0.00  0.00    +0.000 A 
ATOM     11  C   UNL     1      52.890   7.169   7.015  0.00  0.00    +0.000 A 
ATOM     12  N   UNL     1      52.628   7.763   8.196  0.00  0.00    +0.000 NA
ATOM     13  C   UNL     1      53.189   7.224   9.287  0.00  0.00    +0.000 A 
ATOM     14  N   UNL     1      52.910   7.726  10.540  0.00  0.00    +0.000 N 
ATOM     15  N   UNL     1      54.008   6.161   9.248  0.00  0.00    +0.000 NA
ATOM     16  H   UNL     1      53.663   7.523  11.183  0.00  0.00    +0.000 HD
ENDBRANCH   7  14
ENDBRANCH   1   7
BRANCH   4  17
ATOM     17  C   UNL     1      46.772   8.347  12.588  0.00  0.00    +0.000 C 
BRANCH  17  18
ATOM     18  N   UNL     1      46.271   7.018  12.358  0.00  0.00    +0.000 N 
ATOM     19  C   UNL     1      45.077   6.816  11.705  0.00  0.00    +0.000 C 
ATOM     20  O   UNL     1      44.430   7.751  11.238  0.00  0.00    +0.000 OA
ATOM     21  H   UNL     1      46.665   6.269  12.923  0.00  0.00    +0.000 HD
BRANCH  19  22
ATOM     22  C   UNL     1      44.632   5.426  11.547  0.00  0.00    +0.000 A 
ATOM     23  C   UNL     1      43.932   4.809  12.575  0.00  0.00    +0.000 A 
ATOM     24  S   UNL     1      43.452   3.213  12.217  0.00  0.00    +0.000 S 
ATOM     25  C   UNL     1      44.206   3.271  10.693  0.00  0.00    +0.000 A 
ATOM     26  N   UNL     1      44.188   2.192   9.865  0.00  0.00    +0.000 NA
ATOM     27  C   UNL     1      44.826   2.364   8.755  0.00  0.00    +0.000 A 
ATOM     28  N   UNL     1      45.475   3.517   8.397  0.00  0.00    +0.000 N 
ATOM     29  C   UNL     1      45.491   4.642   9.188  0.00  0.00    +0.000 A 
ATOM     30  O   UNL     1      46.043   5.673   8.818  0.00  0.00    +0.000 OA
ATOM     31  C   UNL     1      44.799   4.497  10.453  0.00  0.00    +0.000 A 
ATOM     32  H   UNL     1      45.949   3.590   7.510  0.00  0.00    +0.000 HD
ENDBRANCH  19  22
ENDBRANCH  17  18
ENDBRANCH   4  17
TORSDOF 5
ENDMDL
MODEL 9
REMARK VINA RESULT:    -6.833      2.096      2.878
REMARK INTER + INTRA:          -9.377
REMARK INTER:                  -8.436
REMARK INTRA:                  -0.940
REMARK UNBOUND:                -0.547
REMARK  Name = 
REMARK  6 active torsions:
REMARK  status: ('A' for Active; 'I' for Inactive)
REMARK    1  A    between atoms: C_1  and  C_2
REMARK    2  A    between atoms: N_7  and  C_8
REMARK    3  A    between atoms: C_8  and  C_9
REMARK    4  A    between atoms: C_12  and  C_13
REMARK    5  A    between atoms: C_13  and  N_14
REMARK    6  A    between atoms: C_15  and  C_17
REMARK                            x       y       z     vdW  Elec       q    Type
REMARK                         _______ _______ _______ _____ _____    ______ ____
ROOT
ATOM      1  C   UNL     1      45.907   6.897  12.348  0.00  0.00    +0.000 A 
ATOM      2  C   UNL     1      46.888   6.061  12.899  0.00  0.00    +0.000 A 
ATOM      3  C   UNL     1      47.846   6.569  13.786  0.00  0.00    +0.000 A 
ATOM      4  C   UNL     1      47.831   7.919  14.158  0.00  0.00    +0.000 A 
ATOM      5  C   UNL     1      46.857   8.758  13.603  0.00  0.00    +0.000 A 
ATOM      6  C   UNL     1      45.899   8.250  12.718  0.00  0.00    +0.000 A 
ENDROOT
BRANCH   1   7
ATOM      7  C   UNL     1      44.874   6.352  11.381  0.00  0.00    +0.000 C 
BRANCH   7  14
ATOM      8  C   UNL     1      46.228   3.063   6.504  0.00  0.00    +0.000 C 
ATOM      9  C   UNL     1      45.714   3.270   7.898  0.00  0.00    +0.000 A 
ATOM     10  C   UNL     1      45.276   2.207   8.655  0.00  0.00    +0.000 A 
ATOM     11  C   UNL     1      44.868   2.516   9.929  0.00  0.00    +0.000 A 
ATOM     12  N   UNL     1      44.904   3.760  10.445  0.00  0.00    +0.000 NA
ATOM     13  C   UNL     1      45.355   4.737   9.646  0.00  0.00    +0.000 A 
ATOM     14  N   UNL     1      45.495   6.024  10.121  0.00  0.00    +0.000 N 
ATOM     15  N   UNL     1      45.733   4.537   8.373  0.00  0.00    +0.000 NA
ATOM     16  H   UNL     1      45.442   6.692   9.366  0.00  0.00    +0.000 HD
ENDBRANCH   7  14
ENDBRANCH   1   7
BRANCH   4  17
ATOM     17  C   UNL     1      48.849   8.464  15.129  0.00  0.00    +0.000 C 
BRANCH  17  18
ATOM     18  N   UNL     1      49.142   7.533  16.186  0.00  0.00    +0.000 N 
ATOM     19  C   UNL     1      48.651   7.729  17.457  0.00  0.00    +0.000 C 
ATOM     20  O   UNL     1      47.897   8.662  17.721  0.00  0.00    +0.000 OA
ATOM     21  H   UNL     1      49.928   6.902  16.045  0.00  0.00    +0.000 HD
BRANCH  19  22
ATOM     22  C   UNL     1      49.032   6.743  18.475  0.00  0.00    +0.000 A 
ATOM     23  C   UNL     1      48.045   6.022  19.135  0.00  0.00    +0.000 A 
ATOM     24  S   UNL     1      48.654   4.891  20.256  0.00  0.00    +0.000 S 
ATOM     25  C   UNL     1      50.259   5.359  19.937  0.00  0.00    +0.000 A 
ATOM     26  N   UNL     1      51.298   4.780  20.596  0.00  0.00    +0.000 NA
ATOM     27  C   UNL     1      52.457   5.253  20.280  0.00  0.00    +0.000 A 
ATOM     28  N   UNL     1      52.671   6.248  19.361  0.00  0.00    +0.000 N 
ATOM     29  C   UNL     1      51.655   6.838  18.648  0.00  0.00    +0.000 A 
ATOM     30  O   UNL     1      51.885   7.693  17.800  0.00  0.00    +0.000 OA
ATOM     31  C   UNL     1      50.329   6.351  18.975  0.00  0.00    +0.000 A 
ATOM     32  H   UNL     1      53.605   6.567  19.153  0.00  0.00    +0.000 HD
ENDBRANCH  19  22
ENDBRANCH  17  18
ENDBRANCH   4  17
TORSDOF 5
ENDMDL
