MODEL 1
REMARK VINA RESULT:    -7.618      0.000      0.000
REMARK INTER + INTRA:         -10.262
REMARK INTER:                  -9.845
REMARK INTRA:                  -0.417
REMARK UNBOUND:                -0.417
REMARK  Name = 
REMARK  5 active torsions:
REMARK  status: ('A' for Active; 'I' for Inactive)
REMARK    1  A    between atoms: C_2  and  C_3
REMARK    2  A    between atoms: C_6  and  C_7
REMARK    3  A    between atoms: C_7  and  N_8
REMARK    4  A    between atoms: N_8  and  C_9
REMARK    5  A    between atoms: C_12  and  C_13
REMARK                            x       y       z     vdW  Elec       q    Type
REMARK                         _______ _______ _______ _____ _____    ______ ____
ROOT
ATOM      1  N   UNL     1      44.442   5.623  10.836  0.00  0.00    +0.000 N 
ATOM      2  H   UNL     1      43.766   6.351  11.065  0.00  0.00    +0.000 HD
ENDROOT
BRANCH   1   3
ATOM      3  C   UNL     1      45.267   5.343  11.933  0.00  0.00    +0.000 A 
ATOM      4  C   UNL     1      46.383   6.079  12.310  0.00  0.00    +0.000 A 
ATOM      5  N   UNL     1      47.131   5.849  13.414  0.00  0.00    +0.000 NA
ATOM      6  C   UNL     1      46.702   4.836  14.200  0.00  0.00    +0.000 A 
ATOM      7  N   UNL     1      45.623   4.066  13.969  0.00  0.00    +0.000 NA
ATOM      8  C   UNL     1      44.930   4.355  12.848  0.00  0.00    +0.000 A 
BRANCH   6   9
ATOM      9  C   UNL     1      47.494   4.573  15.460  0.00  0.00    +0.000 C 
ATOM     10  N   UNL     1      46.989   3.596  16.288  0.00  0.00    +0.000 N 
ATOM     11  O   UNL     1      48.524   5.165  15.758  0.00  0.00    +0.000 OA
ATOM     12  H   UNL     1      46.148   3.093  16.032  0.00  0.00    +0.000 HD
ATOM     13  H   UNL     1      47.490   3.370  17.136  0.00  0.00    +0.000 HD
ENDBRANCH   6   9
ENDBRANCH   1   3
BRANCH   1  14
ATOM     14  C   UNL     1      43.804   4.492  10.163  0.00  0.00    +0.000 C 
BRANCH  14  18
ATOM     15  C   UNL     1      46.566   2.562   7.553  0.00  0.00    +0.000 A 
ATOM     16  C   UNL     1      45.828   1.750   8.407  0.00  0.00    +0.000 A 
ATOM     17  C   UNL     1      44.909   2.352   9.271  0.00  0.00    +0.000 A 
ATOM     18  C   UNL     1      44.775   3.746   9.281  0.00  0.00    +0.000 A 
ATOM     19  C   UNL     1      45.550   4.465   8.374  0.00  0.00    +0.000 A 
ATOM     20  N   UNL     1      46.439   3.908   7.519  0.00  0.00    +0.000 NA
BRANCH  15  22
ATOM     21  N   UNL     1      48.278   1.550   5.876  0.00  0.00    +0.000 NA
ATOM     22  C   UNL     1      47.522   1.988   6.644  0.00  0.00    +0.000 C 
ENDBRANCH  15  22
ENDBRANCH  14  18
ENDBRANCH   1  14
TORSDOF 5
ENDMDL
MODEL 2
REMARK VINA RESULT:    -7.497      2.530      6.698
REMARK INTER + INTRA:         -10.106
REMARK INTER:                  -9.665
REMARK INTRA:                  -0.440
REMARK UNBOUND:                -0.417
REMARK  Name = 
REMARK  5 active torsions:
REMARK  status: ('A' for Active; 'I' for Inactive)
REMARK    1  A    between atoms: C_2  and  C_3
REMARK    2  A    between atoms: C_6  and  C_7
REMARK    3  A    between atoms: C_7  and  N_8
REMARK    4  A    between atoms: N_8  and  C_9
REMARK    5  A    between atoms: C_12  and  C_13
REMARK                            x       y       z     vdW  Elec       q    Type
REMARK                         _______ _______ _______ _____ _____    ______ ____
ROOT
ATOM      1  N   UNL     1      43.796   4.719  10.086  0.00  0.00    +0.000 N 
ATOM      2  H   UNL     1      42.990   4.948   9.505  0.00  0.00    +0.000 HD
ENDROOT
BRANCH   1   3
ATOM      3  C   UNL     1      44.734   3.967   9.367  0.00  0.00    +0.000 A 
ATOM      4  C   UNL     1      44.859   2.584   9.408  0.00  0.00    +0.000 A 
ATOM      5  N   UNL     1      45.715   1.857   8.653  0.00  0.00    +0.000 NA
ATOM      6  C   UNL     1      46.464   2.571   7.782  0.00  0.00    +0.000 A 
ATOM      7  N   UNL     1      46.421   3.906   7.620  0.00  0.00    +0.000 NA
ATOM      8  C   UNL     1      45.544   4.561   8.409  0.00  0.00    +0.000 A 
BRANCH   6   9
ATOM      9  C   UNL     1      47.408   1.788   6.899  0.00  0.00    +0.000 C 
ATOM     10  N   UNL     1      48.511   2.476   6.447  0.00  0.00    +0.000 N 
ATOM     11  O   UNL     1      47.241   0.614   6.589  0.00  0.00    +0.000 OA
ATOM     12  H   UNL     1      48.659   3.441   6.719  0.00  0.00    +0.000 HD
ATOM     13  H   UNL     1      49.181   1.994   5.866  0.00  0.00    +0.000 HD
ENDBRANCH   6   9
ENDBRANCH   1   3
BRANCH   1  14
ATOM     14  C   UNL     1      44.282   5.891  10.813  0.00  0.00    +0.000 C 
BRANCH  14  18
ATOM     15  C   UNL     1      46.652   4.703  14.150  0.00  0.00    +0.000 A 
ATOM     16  C   UNL     1      47.188   5.667  13.304  0.00  0.00    +0.000 A 
ATOM     17  C   UNL     1      46.433   6.083  12.203  0.00  0.00    +0.000 A 
ATOM     18  C   UNL     1      45.181   5.504  11.961  0.00  0.00    +0.000 A 
ATOM     19  C   UNL     1      44.730   4.559  12.880  0.00  0.00    +0.000 A 
ATOM     20  N   UNL     1      45.434   4.146  13.959  0.00  0.00    +0.000 NA
BRANCH  15  22
ATOM     21  N   UNL     1      48.026   3.891  16.204  0.00  0.00    +0.000 NA
ATOM     22  C   UNL     1      47.390   4.246  15.296  0.00  0.00    +0.000 C 
ENDBRANCH  15  22
ENDBRANCH  14  18
ENDBRANCH   1  14
TORSDOF 5
ENDMDL
MODEL 3
REMARK VINA RESULT:    -7.279      2.739      6.585
REMARK INTER + INTRA:          -9.823
REMARK INTER:                  -9.384
REMARK INTRA:                  -0.440
REMARK UNBOUND:                -0.417
REMARK  Name = 
REMARK  5 active torsions:
REMARK  status: ('A' for Active; 'I' for Inactive)
REMARK    1  A    between atoms: C_2  and  C_3
REMARK    2  A    between atoms: C_6  and  C_7
REMARK    3  A    between atoms: C_7  and  N_8
REMARK    4  A    between atoms: N_8  and  C_9
REMARK    5  A    between atoms: C_12  and  C_13
REMARK                            x       y       z     vdW  Elec       q    Type
REMARK                         _______ _______ _______ _____ _____    ______ ____
ROOT
ATOM      1  N   UNL     1      43.676   3.727  10.401  0.00  0.00    +0.000 N 
ATOM      2  H   UNL     1      42.730   3.413  10.185  0.00  0.00    +0.000 HD
ENDROOT
BRANCH   1   3
ATOM      3  C   UNL     1      44.561   3.395   9.367  0.00  0.00    +0.000 A 
ATOM      4  C   UNL     1      45.090   4.285   8.441  0.00  0.00    +0.000 A 
ATOM      5  N   UNL     1      46.003   3.972   7.493  0.00  0.00    +0.000 NA
ATOM      6  C   UNL     1      46.432   2.689   7.507  0.00  0.00    +0.000 A 
ATOM      7  N   UNL     1      46.027   1.735   8.366  0.00  0.00    +0.000 NA
ATOM      8  C   UNL     1      45.114   2.123   9.279  0.00  0.00    +0.000 A 
BRANCH   6   9
ATOM      9  C   UNL     1      47.478   2.313   6.483  0.00  0.00    +0.000 C 
ATOM     10  N   UNL     1      47.453   3.036   5.312  0.00  0.00    +0.000 N 
ATOM     11  O   UNL     1      48.314   1.433   6.649  0.00  0.00    +0.000 OA
ATOM     12  H   UNL     1      46.774   3.776   5.183  0.00  0.00    +0.000 HD
ATOM     13  H   UNL     1      48.141   2.835   4.601  0.00  0.00    +0.000 HD
ENDBRANCH   6   9
ENDBRANCH   1   3
BRANCH   1  14
ATOM     14  C   UNL     1      43.686   5.107  10.883  0.00  0.00    +0.000 C 
BRANCH  14  18
ATOM     15  C   UNL     1      47.016   5.953  13.405  0.00  0.00    +0.000 A 
ATOM     16  C   UNL     1      46.215   4.872  13.755  0.00  0.00    +0.000 A 
ATOM     17  C   UNL     1      45.118   4.565  12.945  0.00  0.00    +0.000 A 
ATOM     18  C   UNL     1      44.834   5.361  11.828  0.00  0.00    +0.000 A 
ATOM     19  C   UNL     1      45.709   6.411  11.558  0.00  0.00    +0.000 A 
ATOM     20  N   UNL     1      46.784   6.725  12.318  0.00  0.00    +0.000 NA
BRANCH  15  22
ATOM     21  N   UNL     1      49.069   6.560  14.884  0.00  0.00    +0.000 NA
ATOM     22  C   UNL     1      48.156   6.307  14.207  0.00  0.00    +0.000 C 
ENDBRANCH  15  22
ENDBRANCH  14  18
ENDBRANCH   1  14
TORSDOF 5
ENDMDL
MODEL 4
REMARK VINA RESULT:    -7.219      1.464      2.008
REMARK INTER + INTRA:          -9.746
REMARK INTER:                  -9.285
REMARK INTRA:                  -0.461
REMARK UNBOUND:                -0.417
REMARK  Name = 
REMARK  5 active torsions:
REMARK  status: ('A' for Active; 'I' for Inactive)
REMARK    1  A    between atoms: C_2  and  C_3
REMARK    2  A    between atoms: C_6  and  C_7
REMARK    3  A    between atoms: C_7  and  N_8
REMARK    4  A    between atoms: N_8  and  C_9
REMARK    5  A    between atoms: C_12  and  C_13
REMARK                            x       y       z     vdW  Elec       q    Type
REMARK                         _______ _______ _______ _____ _____    ______ ____
ROOT
ATOM      1  N   UNL     1      44.351   3.467  11.875  0.00  0.00    +0.000 N 
ATOM      2  H   UNL     1      44.657   2.497  11.952  0.00  0.00    +0.000 HD
ENDROOT
BRANCH   1   3
ATOM      3  C   UNL     1      45.324   4.339  12.382  0.00  0.00    +0.000 A 
ATOM      4  C   UNL     1      45.273   5.726  12.320  0.00  0.00    +0.000 A 
ATOM      5  N   UNL     1      46.178   6.564  12.878  0.00  0.00    +0.000 NA
ATOM      6  C   UNL     1      47.172   5.961  13.570  0.00  0.00    +0.000 A 
ATOM      7  N   UNL     1      47.321   4.634  13.734  0.00  0.00    +0.000 NA
ATOM      8  C   UNL     1      46.382   3.865  13.145  0.00  0.00    +0.000 A 
BRANCH   6   9
ATOM      9  C   UNL     1      48.181   6.868  14.235  0.00  0.00    +0.000 C 
ATOM     10  N   UNL     1      47.707   8.100  14.628  0.00  0.00    +0.000 N 
ATOM     11  O   UNL     1      49.350   6.562  14.436  0.00  0.00    +0.000 OA
ATOM     12  H   UNL     1      46.735   8.345  14.479  0.00  0.00    +0.000 HD
ATOM     13  H   UNL     1      48.337   8.738  15.093  0.00  0.00    +0.000 HD
ENDBRANCH   6   9
ENDBRANCH   1   3
BRANCH   1  14
ATOM     14  C   UNL     1      43.810   3.755  10.548  0.00  0.00    +0.000 C 
BRANCH  14  18
ATOM     15  C   UNL     1      46.594   2.557   7.552  0.00  0.00    +0.000 A 
ATOM     16  C   UNL     1      46.320   3.916   7.655  0.00  0.00    +0.000 A 
ATOM     17  C   UNL     1      45.415   4.342   8.632  0.00  0.00    +0.000 A 
ATOM     18  C   UNL     1      44.788   3.399   9.456  0.00  0.00    +0.000 A 
ATOM     19  C   UNL     1      45.146   2.065   9.280  0.00  0.00    +0.000 A 
ATOM     20  N   UNL     1      46.026   1.625   8.351  0.00  0.00    +0.000 NA
BRANCH  15  22
ATOM     21  N   UNL     1      48.271   1.640   5.787  0.00  0.00    +0.000 NA
ATOM     22  C   UNL     1      47.519   2.072   6.564  0.00  0.00    +0.000 C 
ENDBRANCH  15  22
ENDBRANCH  14  18
ENDBRANCH   1  14
TORSDOF 5
ENDMDL
MODEL 5
REMARK VINA RESULT:    -6.825      2.189      3.199
REMARK INTER + INTRA:          -9.236
REMARK INTER:                  -8.905
REMARK INTRA:                  -0.331
REMARK UNBOUND:                -0.417
REMARK  Name = 
REMARK  5 active torsions:
REMARK  status: ('A' for Active; 'I' for Inactive)
REMARK    1  A    between atoms: C_2  and  C_3
REMARK    2  A    between atoms: C_6  and  C_7
REMARK    3  A    between atoms: C_7  and  N_8
REMARK    4  A    between atoms: N_8  and  C_9
REMARK    5  A    between atoms: C_12  and  C_13
REMARK                            x       y       z     vdW  Elec       q    Type
REMARK                         _______ _______ _______ _____ _____    ______ ____
ROOT
ATOM      1  N   UNL     1      44.485   3.778  11.670  0.00  0.00    +0.000 N 
ATOM      2  H   UNL     1      45.277   3.169  11.875  0.00  0.00    +0.000 HD
ENDROOT
BRANCH   1   3
ATOM      3  C   UNL     1      44.834   5.125  11.836  0.00  0.00    +0.000 A 
ATOM      4  C   UNL     1      44.185   6.204  11.250  0.00  0.00    +0.000 A 
ATOM      5  N   UNL     1      44.479   7.505  11.474  0.00  0.00    +0.000 NA
ATOM      6  C   UNL     1      45.466   7.727  12.372  0.00  0.00    +0.000 A 
ATOM      7  N   UNL     1      46.154   6.777  13.032  0.00  0.00    +0.000 NA
ATOM      8  C   UNL     1      45.805   5.504  12.753  0.00  0.00    +0.000 A 
BRANCH   6   9
ATOM      9  C   UNL     1      45.798   9.170  12.673  0.00  0.00    +0.000 C 
ATOM     10  N   UNL     1      44.734  10.044  12.644  0.00  0.00    +0.000 N 
ATOM     11  O   UNL     1      46.924   9.574  12.935  0.00  0.00    +0.000 OA
ATOM     12  H   UNL     1      43.800   9.706  12.446  0.00  0.00    +0.000 HD
ATOM     13  H   UNL     1      44.899  11.018  12.853  0.00  0.00    +0.000 HD
ENDBRANCH   6   9
ENDBRANCH   1   3
BRANCH   1  14
ATOM     14  C   UNL     1      43.826   3.398  10.422  0.00  0.00    +0.000 C 
BRANCH  14  18
ATOM     15  C   UNL     1      46.685   2.421   7.416  0.00  0.00    +0.000 A 
ATOM     16  C   UNL     1      46.281   3.749   7.498  0.00  0.00    +0.000 A 
ATOM     17  C   UNL     1      45.349   4.103   8.477  0.00  0.00    +0.000 A 
ATOM     18  C   UNL     1      44.824   3.119   9.325  0.00  0.00    +0.000 A 
ATOM     19  C   UNL     1      45.308   1.823   9.169  0.00  0.00    +0.000 A 
ATOM     20  N   UNL     1      46.218   1.454   8.237  0.00  0.00    +0.000 NA
BRANCH  15  22
ATOM     21  N   UNL     1      48.435   1.646   5.654  0.00  0.00    +0.000 NA
ATOM     22  C   UNL     1      47.643   2.010   6.426  0.00  0.00    +0.000 C 
ENDBRANCH  15  22
ENDBRANCH  14  18
ENDBRANCH   1  14
TORSDOF 5
ENDMDL
MODEL 6
REMARK VINA RESULT:    -6.230      3.380      7.656
REMARK INTER + INTRA:          -8.468
REMARK INTER:                  -8.125
REMARK INTRA:                  -0.342
REMARK UNBOUND:                -0.417
REMARK  Name = 
REMARK  5 active torsions:
REMARK  status: ('A' for Active; 'I' for Inactive)
REMARK    1  A    between atoms: C_2  and  C_3
REMARK    2  A    between atoms: C_6  and  C_7
REMARK    3  A    between atoms: C_7  and  N_8
REMARK    4  A    between atoms: N_8  and  C_9
REMARK    5  A    between atoms: C_12  and  C_13
REMARK                            x       y       z     vdW  Elec       q    Type
REMARK                         _______ _______ _______ _____ _____    ______ ____
ROOT
ATOM      1  N   UNL     1      47.294   5.186  15.137  0.00  0.00    +0.000 N 
ATOM      2  H   UNL     1      48.275   5.351  14.912  0.00  0.00    +0.000 HD
ENDROOT
BRANCH   1   3
ATOM      3  C   UNL     1      46.572   4.824  13.993  0.00  0.00    +0.000 A 
ATOM      4  C   UNL     1      46.356   3.525  13.553  0.00  0.00    +0.000 A 
ATOM      5  N   UNL     1      45.593   3.179  12.490  0.00  0.00    +0.000 NA
ATOM      6  C   UNL     1      44.986   4.208  11.857  0.00  0.00    +0.000 A 
ATOM      7  N   UNL     1      45.084   5.506  12.197  0.00  0.00    +0.000 NA
ATOM      8  C   UNL     1      45.864   5.772  13.265  0.00  0.00    +0.000 A 
BRANCH   6   9
ATOM      9  C   UNL     1      44.098   3.855  10.686  0.00  0.00    +0.000 C 
ATOM     10  N   UNL     1      43.714   4.910   9.890  0.00  0.00    +0.000 N 
ATOM     11  O   UNL     1      43.729   2.716  10.425  0.00  0.00    +0.000 OA
ATOM     12  H   UNL     1      44.037   5.849  10.094  0.00  0.00    +0.000 HD
ATOM     13  H   UNL     1      43.134   4.726   9.084  0.00  0.00    +0.000 HD
ENDBRANCH   6   9
ENDBRANCH   1   3
BRANCH   1  14
ATOM     14  C   UNL     1      47.152   4.341  16.322  0.00  0.00    +0.000 C 
BRANCH  14  18
ATOM     15  C   UNL     1      50.698   2.149  17.206  0.00  0.00    +0.000 A 
ATOM     16  C   UNL     1      50.585   3.420  17.759  0.00  0.00    +0.000 A 
ATOM     17  C   UNL     1      49.431   4.162  17.492  0.00  0.00    +0.000 A 
ATOM     18  C   UNL     1      48.439   3.630  16.660  0.00  0.00    +0.000 A 
ATOM     19  C   UNL     1      48.644   2.342  16.171  0.00  0.00    +0.000 A 
ATOM     20  N   UNL     1      49.746   1.596  16.421  0.00  0.00    +0.000 NA
BRANCH  15  22
ATOM     21  N   UNL     1      52.798   0.693  17.696  0.00  0.00    +0.000 NA
ATOM     22  C   UNL     1      51.866   1.347  17.453  0.00  0.00    +0.000 C 
ENDBRANCH  15  22
ENDBRANCH  14  18
ENDBRANCH   1  14
TORSDOF 5
ENDMDL
MODEL 7
REMARK VINA RESULT:    -6.065      2.266      2.988
REMARK INTER + INTRA:          -8.255
REMARK INTER:                  -7.942
REMARK INTRA:                  -0.313
REMARK UNBOUND:                -0.417
REMARK  Name = 
REMARK  5 active torsions:
REMARK  status: ('A' for Active; 'I' for Inactive)
REMARK    1  A    between atoms: C_2  and  C_3
REMARK    2  A    between atoms: C_6  and  C_7
REMARK    3  A    between atoms: C_7  and  N_8
REMARK    4  A    between atoms: N_8  and  C_9
REMARK    5  A    between atoms: C_12  and  C_13
REMARK                            x       y       z     vdW  Elec       q    Type
REMARK                         _______ _______ _______ _____ _____    ______ ____
ROOT
ATOM      1  N   UNL     1      43.266   5.897  12.911  0.00  0.00    +0.000 N 
ATOM      2  H   UNL     1      43.070   5.214  13.642  0.00  0.00    +0.000 HD
ENDROOT
BRANCH   1   3
ATOM      3  C   UNL     1      44.628   6.225  12.885  0.00  0.00    +0.000 A 
ATOM      4  C   UNL     1      45.665   5.396  13.295  0.00  0.00    +0.000 A 
ATOM      5  N   UNL     1      46.982   5.689  13.196  0.00  0.00    +0.000 NA
ATOM      6  C   UNL     1      47.266   6.878  12.616  0.00  0.00    +0.000 A 
ATOM      7  N   UNL     1      46.363   7.759  12.149  0.00  0.00    +0.000 NA
ATOM      8  C   UNL     1      45.070   7.397  12.286  0.00  0.00    +0.000 A 
BRANCH   6   9
ATOM      9  C   UNL     1      48.729   7.223  12.458  0.00  0.00    +0.000 C 
ATOM     10  N   UNL     1      49.509   7.034  13.576  0.00  0.00    +0.000 N 
ATOM     11  O   UNL     1      49.226   7.639  11.419  0.00  0.00    +0.000 OA
ATOM     12  H   UNL     1      49.101   6.671  14.429  0.00  0.00    +0.000 HD
ATOM     13  H   UNL     1      50.497   7.234  13.519  0.00  0.00    +0.000 HD
ENDBRANCH   6   9
ENDBRANCH   1   3
BRANCH   1  14
ATOM     14  C   UNL     1      42.636   5.524  11.646  0.00  0.00    +0.000 C 
BRANCH  14  18
ATOM     15  C   UNL     1      44.847   2.609   9.459  0.00  0.00    +0.000 A 
ATOM     16  C   UNL     1      44.166   2.171  10.589  0.00  0.00    +0.000 A 
ATOM     17  C   UNL     1      43.427   3.101  11.325  0.00  0.00    +0.000 A 
ATOM     18  C   UNL     1      43.412   4.445  10.931  0.00  0.00    +0.000 A 
ATOM     19  C   UNL     1      44.115   4.775   9.775  0.00  0.00    +0.000 A 
ATOM     20  N   UNL     1      44.830   3.894   9.037  0.00  0.00    +0.000 NA
BRANCH  15  22
ATOM     21  N   UNL     1      46.245   0.915   8.065  0.00  0.00    +0.000 NA
ATOM     22  C   UNL     1      45.619   1.689   8.669  0.00  0.00    +0.000 C 
ENDBRANCH  15  22
ENDBRANCH  14  18
ENDBRANCH   1  14
TORSDOF 5
ENDMDL
MODEL 8
REMARK VINA RESULT:    -5.710      3.074      5.667
REMARK INTER + INTRA:          -7.796
REMARK INTER:                  -7.548
REMARK INTRA:                  -0.248
REMARK UNBOUND:                -0.417
REMARK  Name = 
REMARK  5 active torsions:
REMARK  status: ('A' for Active; 'I' for Inactive)
REMARK    1  A    between atoms: C_2  and  C_3
REMARK    2  A    between atoms: C_6  and  C_7
REMARK    3  A    between atoms: C_7  and  N_8
REMARK    4  A    between atoms: N_8  and  C_9
REMARK    5  A    between atoms: C_12  and  C_13
REMARK                            x       y       z     vdW  Elec       q    Type
REMARK                         _______ _______ _______ _____ _____    ______ ____
ROOT
ATOM      1  N   UNL     1      47.244   4.514  16.230  0.00  0.00    +0.000 N 
ATOM      2  H   UNL     1      46.414   3.936  16.101  0.00  0.00    +0.000 HD
ENDROOT
BRANCH   1   3
ATOM      3  C   UNL     1      48.337   3.737  16.636  0.00  0.00    +0.000 A 
ATOM      4  C   UNL     1      48.600   2.438  16.222  0.00  0.00    +0.000 A 
ATOM      5  N   UNL     1      49.698   1.721  16.557  0.00  0.00    +0.000 NA
ATOM      6  C   UNL     1      50.597   2.371  17.330  0.00  0.00    +0.000 A 
ATOM      7  N   UNL     1      50.481   3.636  17.774  0.00  0.00    +0.000 NA
ATOM      8  C   UNL     1      49.359   4.284  17.400  0.00  0.00    +0.000 A 
BRANCH   6   9
ATOM      9  C   UNL     1      51.851   1.611  17.696  0.00  0.00    +0.000 C 
ATOM     10  N   UNL     1      51.665   0.300  18.072  0.00  0.00    +0.000 N 
ATOM     11  O   UNL     1      52.977   2.093  17.667  0.00  0.00    +0.000 OA
ATOM     12  H   UNL     1      50.736  -0.103  18.077  0.00  0.00    +0.000 HD
ATOM     13  H   UNL     1      52.473  -0.257  18.311  0.00  0.00    +0.000 HD
ENDBRANCH   6   9
ENDBRANCH   1   3
BRANCH   1  14
ATOM     14  C   UNL     1      47.442   5.424  15.103  0.00  0.00    +0.000 C 
BRANCH  14  18
ATOM     15  C   UNL     1      45.220   4.061  11.732  0.00  0.00    +0.000 A 
ATOM     16  C   UNL     1      45.354   5.436  11.888  0.00  0.00    +0.000 A 
ATOM     17  C   UNL     1      46.083   5.915  12.981  0.00  0.00    +0.000 A 
ATOM     18  C   UNL     1      46.629   5.012  13.901  0.00  0.00    +0.000 A 
ATOM     19  C   UNL     1      46.449   3.656  13.643  0.00  0.00    +0.000 A 
ATOM     20  N   UNL     1      45.759   3.163  12.588  0.00  0.00    +0.000 NA
BRANCH  15  22
ATOM     21  N   UNL     1      43.908   3.046   9.728  0.00  0.00    +0.000 NA
ATOM     22  C   UNL     1      44.481   3.521  10.623  0.00  0.00    +0.000 C 
ENDBRANCH  15  22
ENDBRANCH  14  18
ENDBRANCH   1  14
TORSDOF 5
ENDMDL
MODEL 9
REMARK VINA RESULT:    -5.496      4.543      7.678
REMARK INTER + INTRA:          -7.520
REMARK INTER:                  -7.244
REMARK INTRA:                  -0.276
REMARK UNBOUND:                -0.417
REMARK  Name = 
REMARK  5 active torsions:
REMARK  status: ('A' for Active; 'I' for Inactive)
REMARK    1  A    between atoms: C_2  and  C_3
REMARK    2  A    between atoms: C_6  and  C_7
REMARK    3  A    between atoms: C_7  and  N_8
REMARK    4  A    between atoms: N_8  and  C_9
REMARK    5  A    between atoms: C_12  and  C_13
REMARK                            x       y       z     vdW  Elec       q    Type
REMARK                         _______ _______ _______ _____ _____    ______ ____
ROOT
ATOM      1  N   UNL     1      46.957   3.784  14.757  0.00  0.00    +0.000 N 
ATOM      2  H   UNL     1      46.487   2.896  14.580  0.00  0.00    +0.000 HD
ENDROOT
BRANCH   1   3
ATOM      3  C   UNL     1      46.365   4.819  14.022  0.00  0.00    +0.000 A 
ATOM      4  C   UNL     1      47.030   5.923  13.504  0.00  0.00    +0.000 A 
ATOM      5  N   UNL     1      46.466   6.879  12.730  0.00  0.00    +0.000 NA
ATOM      6  C   UNL     1      45.160   6.686  12.435  0.00  0.00    +0.000 A 
ATOM      7  N   UNL     1      44.408   5.649  12.844  0.00  0.00    +0.000 NA
ATOM      8  C   UNL     1      45.040   4.739  13.614  0.00  0.00    +0.000 A 
BRANCH   6   9
ATOM      9  C   UNL     1      44.507   7.718  11.544  0.00  0.00    +0.000 C 
ATOM     10  N   UNL     1      43.302   7.350  10.990  0.00  0.00    +0.000 N 
ATOM     11  O   UNL     1      44.984   8.822  11.311  0.00  0.00    +0.000 OA
ATOM     12  H   UNL     1      42.899   6.444  11.200  0.00  0.00    +0.000 HD
ATOM     13  H   UNL     1      42.816   8.009  10.400  0.00  0.00    +0.000 HD
ENDBRANCH   6   9
ENDBRANCH   1   3
BRANCH   1  14
ATOM     14  C   UNL     1      47.167   4.003  16.187  0.00  0.00    +0.000 C 
BRANCH  14  18
ATOM     15  C   UNL     1      50.860   2.270  17.419  0.00  0.00    +0.000 A 
ATOM     16  C   UNL     1      50.556   3.531  17.917  0.00  0.00    +0.000 A 
ATOM     17  C   UNL     1      49.349   4.125  17.536  0.00  0.00    +0.000 A 
ATOM     18  C   UNL     1      48.496   3.458  16.648  0.00  0.00    +0.000 A 
ATOM     19  C   UNL     1      48.889   2.192  16.221  0.00  0.00    +0.000 A 
ATOM     20  N   UNL     1      50.045   1.588  16.581  0.00  0.00    +0.000 NA
BRANCH  15  22
ATOM     21  N   UNL     1      53.103   1.131  18.083  0.00  0.00    +0.000 NA
ATOM     22  C   UNL     1      52.089   1.618  17.783  0.00  0.00    +0.000 C 
ENDBRANCH  15  22
ENDBRANCH  14  18
ENDBRANCH   1  14
TORSDOF 5
ENDMDL
