MODEL 1
REMARK VINA RESULT:    -9.049      0.000      0.000
REMARK INTER + INTRA:         -14.037
REMARK INTER:                 -12.753
REMARK INTRA:                  -1.284
REMARK UNBOUND:                -1.284
REMARK  Name = 
REMARK  7 active torsions:
REMARK  status: ('A' for Active; 'I' for Inactive)
REMARK    1  A    between atoms: C_2  and  C_4
REMARK    2  A    between atoms: C_7  and  N_8
REMARK    3  A    between atoms: N_8  and  C_9
REMARK    4  A    between atoms: C_9  and  C_10
REMARK    5  A    between atoms: C_10  and  C_13
REMARK    6  A    between atoms: C_18  and  O_19
REMARK    7  A    between atoms: O_19  and  C_20
REMARK                            x       y       z     vdW  Elec       q    Type
REMARK                         _______ _______ _______ _____ _____    ______ ____
ROOT
ATOM      1  C   UNL     1      43.929   4.865  12.397  0.00  0.00    +0.000 C 
ATOM      2  F   UNL     1      43.040   5.480  13.235  0.00  0.00    +0.000 F 
ATOM      3  F   UNL     1      43.824   3.531  12.686  0.00  0.00    +0.000 F 
ENDROOT
BRANCH   1   4
ATOM      4  C   UNL     1      45.340   5.384  12.606  0.00  0.00    +0.000 A 
ATOM      5  C   UNL     1      45.910   6.297  11.708  0.00  0.00    +0.000 A 
ATOM      6  C   UNL     1      47.202   6.785  11.921  0.00  0.00    +0.000 A 
ATOM      7  C   UNL     1      47.934   6.362  13.029  0.00  0.00    +0.000 A 
ATOM      8  F   UNL     1      49.156   6.882  13.209  0.00  0.00    +0.000 F 
ATOM      9  C   UNL     1      47.392   5.445  13.928  0.00  0.00    +0.000 A 
ATOM     10  C   UNL     1      46.096   4.964  13.714  0.00  0.00    +0.000 A 
BRANCH   9  11
ATOM     11  O   UNL     1      47.991   4.981  15.072  0.00  0.00    +0.000 OA
BRANCH  11  12
ATOM     12  C   UNL     1      47.312   4.007  15.894  0.00  0.00    +0.000 C 
ATOM     13  C   UNL     1      47.135   4.354  17.391  0.00  0.00    +0.000 C 
ATOM     14  C   UNL     1      47.713   2.984  17.764  0.00  0.00    +0.000 C 
ATOM     15  C   UNL     1      48.218   2.830  16.327  0.00  0.00    +0.000 C 
ENDBRANCH  11  12
ENDBRANCH   9  11
ENDBRANCH   1   4
BRANCH   1  16
ATOM     16  C   UNL     1      43.463   5.073  10.932  0.00  0.00    +0.000 C 
BRANCH  16  17
ATOM     17  N   UNL     1      43.501   3.831  10.142  0.00  0.00    +0.000 N 
ATOM     18  H   UNL     1      43.052   3.032  10.587  0.00  0.00    +0.000 HD
BRANCH  17  22
ATOM     19  C   UNL     1      46.617   2.676   7.549  0.00  0.00    +0.000 A 
ATOM     20  C   UNL     1      46.249   4.021   7.624  0.00  0.00    +0.000 A 
ATOM     21  C   UNL     1      45.230   4.423   8.498  0.00  0.00    +0.000 A 
ATOM     22  C   UNL     1      44.581   3.505   9.332  0.00  0.00    +0.000 A 
ATOM     23  C   UNL     1      44.953   2.156   9.229  0.00  0.00    +0.000 A 
ATOM     24  C   UNL     1      45.957   1.740   8.345  0.00  0.00    +0.000 A 
BRANCH  19  26
ATOM     25  N   UNL     1      47.905   2.974   5.503  0.00  0.00    +0.000 N 
ATOM     26  C   UNL     1      47.663   2.204   6.606  0.00  0.00    +0.000 C 
ATOM     27  O   UNL     1      48.310   1.186   6.817  0.00  0.00    +0.000 OA
ATOM     28  H   UNL     1      48.690   2.695   4.928  0.00  0.00    +0.000 HD
ATOM     29  H   UNL     1      47.587   3.929   5.431  0.00  0.00    +0.000 HD
ENDBRANCH  19  26
ENDBRANCH  17  22
ENDBRANCH  16  17
ENDBRANCH   1  16
TORSDOF 7
ENDMDL
MODEL 2
REMARK VINA RESULT:    -8.248      2.070      3.456
REMARK INTER + INTRA:         -12.907
REMARK INTER:                 -11.856
REMARK INTRA:                  -1.051
REMARK UNBOUND:                -1.284
REMARK  Name = 
REMARK  7 active torsions:
REMARK  status: ('A' for Active; 'I' for Inactive)
REMARK    1  A    between atoms: C_2  and  C_4
REMARK    2  A    between atoms: C_7  and  N_8
REMARK    3  A    between atoms: N_8  and  C_9
REMARK    4  A    between atoms: C_9  and  C_10
REMARK    5  A    between atoms: C_10  and  C_13
REMARK    6  A    between atoms: C_18  and  O_19
REMARK    7  A    between atoms: O_19  and  C_20
REMARK                            x       y       z     vdW  Elec       q    Type
REMARK                         _______ _______ _______ _____ _____    ______ ____
ROOT
ATOM      1  C   UNL     1      43.208   5.716  12.035  0.00  0.00    +0.000 C 
ATOM      2  F   UNL     1      42.843   6.881  11.418  0.00  0.00    +0.000 F 
ATOM      3  F   UNL     1      42.260   5.513  13.000  0.00  0.00    +0.000 F 
ENDROOT
BRANCH   1   4
ATOM      4  C   UNL     1      44.606   5.812  12.621  0.00  0.00    +0.000 A 
ATOM      5  C   UNL     1      45.248   4.678  13.135  0.00  0.00    +0.000 A 
ATOM      6  C   UNL     1      46.542   4.772  13.653  0.00  0.00    +0.000 A 
ATOM      7  C   UNL     1      47.202   5.999  13.664  0.00  0.00    +0.000 A 
ATOM      8  F   UNL     1      48.453   6.035  14.141  0.00  0.00    +0.000 F 
ATOM      9  C   UNL     1      46.577   7.144  13.169  0.00  0.00    +0.000 A 
ATOM     10  C   UNL     1      45.284   7.043  12.646  0.00  0.00    +0.000 A 
BRANCH   9  11
ATOM     11  O   UNL     1      47.129   8.397  13.087  0.00  0.00    +0.000 OA
BRANCH  11  12
ATOM     12  C   UNL     1      47.930   8.756  11.941  0.00  0.00    +0.000 C 
ATOM     13  C   UNL     1      48.972   7.718  11.461  0.00  0.00    +0.000 C 
ATOM     14  C   UNL     1      50.046   8.813  11.463  0.00  0.00    +0.000 C 
ATOM     15  C   UNL     1      49.106   9.701  12.284  0.00  0.00    +0.000 C 
ENDBRANCH  11  12
ENDBRANCH   9  11
ENDBRANCH   1   4
BRANCH   1  16
ATOM     16  C   UNL     1      43.104   4.554  11.012  0.00  0.00    +0.000 C 
BRANCH  16  17
ATOM     17  N   UNL     1      43.788   4.853   9.742  0.00  0.00    +0.000 N 
ATOM     18  H   UNL     1      43.225   5.373   9.070  0.00  0.00    +0.000 HD
BRANCH  17  22
ATOM     19  C   UNL     1      46.340   2.049   7.900  0.00  0.00    +0.000 A 
ATOM     20  C   UNL     1      46.467   3.403   7.586  0.00  0.00    +0.000 A 
ATOM     21  C   UNL     1      45.640   4.349   8.207  0.00  0.00    +0.000 A 
ATOM     22  C   UNL     1      44.697   3.972   9.170  0.00  0.00    +0.000 A 
ATOM     23  C   UNL     1      44.572   2.605   9.458  0.00  0.00    +0.000 A 
ATOM     24  C   UNL     1      45.380   1.649   8.829  0.00  0.00    +0.000 A 
BRANCH  19  26
ATOM     25  N   UNL     1      46.920  -0.293   7.560  0.00  0.00    +0.000 N 
ATOM     26  C   UNL     1      47.168   1.011   7.233  0.00  0.00    +0.000 C 
ATOM     27  O   UNL     1      48.017   1.300   6.399  0.00  0.00    +0.000 OA
ATOM     28  H   UNL     1      47.418  -0.990   7.021  0.00  0.00    +0.000 HD
ATOM     29  H   UNL     1      46.074  -0.579   8.031  0.00  0.00    +0.000 HD
ENDBRANCH  19  26
ENDBRANCH  17  22
ENDBRANCH  16  17
ENDBRANCH   1  16
TORSDOF 7
ENDMDL
MODEL 3
REMARK VINA RESULT:    -8.071      1.913      3.817
REMARK INTER + INTRA:         -12.659
REMARK INTER:                 -11.680
REMARK INTRA:                  -0.978
REMARK UNBOUND:                -1.284
REMARK  Name = 
REMARK  7 active torsions:
REMARK  status: ('A' for Active; 'I' for Inactive)
REMARK    1  A    between atoms: C_2  and  C_4
REMARK    2  A    between atoms: C_7  and  N_8
REMARK    3  A    between atoms: N_8  and  C_9
REMARK    4  A    between atoms: C_9  and  C_10
REMARK    5  A    between atoms: C_10  and  C_13
REMARK    6  A    between atoms: C_18  and  O_19
REMARK    7  A    between atoms: O_19  and  C_20
REMARK                            x       y       z     vdW  Elec       q    Type
REMARK                         _______ _______ _______ _____ _____    ______ ____
ROOT
ATOM      1  C   UNL     1      43.603   4.662  12.584  0.00  0.00    +0.000 C 
ATOM      2  F   UNL     1      42.631   5.485  13.083  0.00  0.00    +0.000 F 
ATOM      3  F   UNL     1      43.401   3.458  13.201  0.00  0.00    +0.000 F 
ENDROOT
BRANCH   1   4
ATOM      4  C   UNL     1      44.991   5.215  12.855  0.00  0.00    +0.000 A 
ATOM      5  C   UNL     1      45.899   4.512  13.658  0.00  0.00    +0.000 A 
ATOM      6  C   UNL     1      47.181   5.018  13.885  0.00  0.00    +0.000 A 
ATOM      7  C   UNL     1      47.564   6.231  13.315  0.00  0.00    +0.000 A 
ATOM      8  F   UNL     1      48.814   6.662  13.535  0.00  0.00    +0.000 F 
ATOM      9  C   UNL     1      46.672   6.954  12.524  0.00  0.00    +0.000 A 
ATOM     10  C   UNL     1      45.392   6.440  12.295  0.00  0.00    +0.000 A 
BRANCH   9  11
ATOM     11  O   UNL     1      46.936   8.135  11.877  0.00  0.00    +0.000 OA
BRANCH  11  12
ATOM     12  C   UNL     1      46.471   9.381  12.439  0.00  0.00    +0.000 C 
ATOM     13  C   UNL     1      45.053   9.847  12.032  0.00  0.00    +0.000 C 
ATOM     14  C   UNL     1      45.622  11.225  11.672  0.00  0.00    +0.000 C 
ATOM     15  C   UNL     1      47.032  10.629  11.716  0.00  0.00    +0.000 C 
ENDBRANCH  11  12
ENDBRANCH   9  11
ENDBRANCH   1   4
BRANCH   1  16
ATOM     16  C   UNL     1      43.361   4.466  11.064  0.00  0.00    +0.000 C 
BRANCH  16  17
ATOM     17  N   UNL     1      43.776   3.135  10.590  0.00  0.00    +0.000 N 
ATOM     18  H   UNL     1      43.931   2.451  11.330  0.00  0.00    +0.000 HD
BRANCH  17  22
ATOM     19  C   UNL     1      46.414   2.798   7.320  0.00  0.00    +0.000 A 
ATOM     20  C   UNL     1      46.067   1.655   8.043  0.00  0.00    +0.000 A 
ATOM     21  C   UNL     1      45.173   1.749   9.119  0.00  0.00    +0.000 A 
ATOM     22  C   UNL     1      44.588   2.968   9.475  0.00  0.00    +0.000 A 
ATOM     23  C   UNL     1      44.963   4.108   8.749  0.00  0.00    +0.000 A 
ATOM     24  C   UNL     1      45.871   4.030   7.685  0.00  0.00    +0.000 A 
BRANCH  19  26
ATOM     25  N   UNL     1      48.690   2.467   6.515  0.00  0.00    +0.000 N 
ATOM     26  C   UNL     1      47.389   2.749   6.200  0.00  0.00    +0.000 C 
ATOM     27  O   UNL     1      47.046   2.918   5.038  0.00  0.00    +0.000 OA
ATOM     28  H   UNL     1      49.318   2.334   5.733  0.00  0.00    +0.000 HD
ATOM     29  H   UNL     1      48.956   2.072   7.405  0.00  0.00    +0.000 HD
ENDBRANCH  19  26
ENDBRANCH  17  22
ENDBRANCH  16  17
ENDBRANCH   1  16
TORSDOF 7
ENDMDL
MODEL 4
REMARK VINA RESULT:    -7.745      2.508      3.076
REMARK INTER + INTRA:         -12.199
REMARK INTER:                 -11.202
REMARK INTRA:                  -0.997
REMARK UNBOUND:                -1.284
REMARK  Name = 
REMARK  7 active torsions:
REMARK  status: ('A' for Active; 'I' for Inactive)
REMARK    1  A    between atoms: C_2  and  C_4
REMARK    2  A    between atoms: C_7  and  N_8
REMARK    3  A    between atoms: N_8  and  C_9
REMARK    4  A    between atoms: C_9  and  C_10
REMARK    5  A    between atoms: C_10  and  C_13
REMARK    6  A    between atoms: C_18  and  O_19
REMARK    7  A    between atoms: O_19  and  C_20
REMARK                            x       y       z     vdW  Elec       q    Type
REMARK                         _______ _______ _______ _____ _____    ______ ____
ROOT
ATOM      1  C   UNL     1      43.450   5.380  12.086  0.00  0.00    +0.000 C 
ATOM      2  F   UNL     1      42.467   5.526  11.147  0.00  0.00    +0.000 F 
ATOM      3  F   UNL     1      42.787   5.204  13.270  0.00  0.00    +0.000 F 
ENDROOT
BRANCH   1   4
ATOM      4  C   UNL     1      44.368   6.589  12.121  0.00  0.00    +0.000 A 
ATOM      5  C   UNL     1      44.014   7.778  11.470  0.00  0.00    +0.000 A 
ATOM      6  C   UNL     1      44.855   8.892  11.526  0.00  0.00    +0.000 A 
ATOM      7  C   UNL     1      46.056   8.825  12.229  0.00  0.00    +0.000 A 
ATOM      8  F   UNL     1      46.815   9.928  12.282  0.00  0.00    +0.000 F 
ATOM      9  C   UNL     1      46.435   7.648  12.873  0.00  0.00    +0.000 A 
ATOM     10  C   UNL     1      45.587   6.537  12.819  0.00  0.00    +0.000 A 
BRANCH   9  11
ATOM     11  O   UNL     1      47.567   7.465  13.627  0.00  0.00    +0.000 OA
BRANCH  11  12
ATOM     12  C   UNL     1      48.790   7.033  12.992  0.00  0.00    +0.000 C 
ATOM     13  C   UNL     1      50.079   7.807  13.354  0.00  0.00    +0.000 C 
ATOM     14  C   UNL     1      50.384   7.973  11.860  0.00  0.00    +0.000 C 
ATOM     15  C   UNL     1      48.947   7.552  11.543  0.00  0.00    +0.000 C 
ENDBRANCH  11  12
ENDBRANCH   9  11
ENDBRANCH   1   4
BRANCH   1  16
ATOM     16  C   UNL     1      44.242   4.080  11.784  0.00  0.00    +0.000 C 
BRANCH  16  17
ATOM     17  N   UNL     1      43.903   3.501  10.473  0.00  0.00    +0.000 N 
ATOM     18  H   UNL     1      43.163   2.800  10.497  0.00  0.00    +0.000 HD
BRANCH  17  22
ATOM     19  C   UNL     1      46.638   2.700   7.367  0.00  0.00    +0.000 A 
ATOM     20  C   UNL     1      46.255   4.018   7.621  0.00  0.00    +0.000 A 
ATOM     21  C   UNL     1      45.363   4.301   8.665  0.00  0.00    +0.000 A 
ATOM     22  C   UNL     1      44.863   3.289   9.491  0.00  0.00    +0.000 A 
ATOM     23  C   UNL     1      45.245   1.969   9.208  0.00  0.00    +0.000 A 
ATOM     24  C   UNL     1      46.120   1.672   8.155  0.00  0.00    +0.000 A 
BRANCH  19  26
ATOM     25  N   UNL     1      47.441   3.095   5.101  0.00  0.00    +0.000 N 
ATOM     26  C   UNL     1      47.547   2.353   6.244  0.00  0.00    +0.000 C 
ATOM     27  O   UNL     1      48.383   1.463   6.342  0.00  0.00    +0.000 OA
ATOM     28  H   UNL     1      48.136   2.916   4.387  0.00  0.00    +0.000 HD
ATOM     29  H   UNL     1      46.961   3.982   5.076  0.00  0.00    +0.000 HD
ENDBRANCH  19  26
ENDBRANCH  17  22
ENDBRANCH  16  17
ENDBRANCH   1  16
TORSDOF 7
ENDMDL
MODEL 5
REMARK VINA RESULT:    -7.706      1.717      2.314
REMARK INTER + INTRA:         -12.144
REMARK INTER:                 -11.071
REMARK INTRA:                  -1.073
REMARK UNBOUND:                -1.284
REMARK  Name = 
REMARK  7 active torsions:
REMARK  status: ('A' for Active; 'I' for Inactive)
REMARK    1  A    between atoms: C_2  and  C_4
REMARK    2  A    between atoms: C_7  and  N_8
REMARK    3  A    between atoms: N_8  and  C_9
REMARK    4  A    between atoms: C_9  and  C_10
REMARK    5  A    between atoms: C_10  and  C_13
REMARK    6  A    between atoms: C_18  and  O_19
REMARK    7  A    between atoms: O_19  and  C_20
REMARK                            x       y       z     vdW  Elec       q    Type
REMARK                         _______ _______ _______ _____ _____    ______ ____
ROOT
ATOM      1  C   UNL     1      44.698   5.205  12.449  0.00  0.00    +0.000 C 
ATOM      2  F   UNL     1      43.877   5.794  13.371  0.00  0.00    +0.000 F 
ATOM      3  F   UNL     1      44.729   3.881  12.796  0.00  0.00    +0.000 F 
ENDROOT
BRANCH   1   4
ATOM      4  C   UNL     1      46.082   5.829  12.459  0.00  0.00    +0.000 A 
ATOM      5  C   UNL     1      46.576   6.497  11.330  0.00  0.00    +0.000 A 
ATOM      6  C   UNL     1      47.842   7.086  11.356  0.00  0.00    +0.000 A 
ATOM      7  C   UNL     1      48.625   7.009  12.506  0.00  0.00    +0.000 A 
ATOM      8  F   UNL     1      49.820   7.616  12.494  0.00  0.00    +0.000 F 
ATOM      9  C   UNL     1      48.160   6.337  13.636  0.00  0.00    +0.000 A 
ATOM     10  C   UNL     1      46.889   5.754  13.608  0.00  0.00    +0.000 A 
BRANCH   9  11
ATOM     11  O   UNL     1      48.813   6.223  14.837  0.00  0.00    +0.000 OA
BRANCH  11  12
ATOM     12  C   UNL     1      49.263   7.410  15.525  0.00  0.00    +0.000 C 
ATOM     13  C   UNL     1      48.993   7.484  17.047  0.00  0.00    +0.000 C 
ATOM     14  C   UNL     1      48.382   8.877  16.859  0.00  0.00    +0.000 C 
ATOM     15  C   UNL     1      48.313   8.619  15.351  0.00  0.00    +0.000 C 
ENDBRANCH  11  12
ENDBRANCH   9  11
ENDBRANCH   1   4
BRANCH   1  16
ATOM     16  C   UNL     1      44.039   5.315  11.049  0.00  0.00    +0.000 C 
BRANCH  16  17
ATOM     17  N   UNL     1      43.768   4.000  10.444  0.00  0.00    +0.000 N 
ATOM     18  H   UNL     1      43.357   3.318  11.079  0.00  0.00    +0.000 HD
BRANCH  17  22
ATOM     19  C   UNL     1      46.471   2.489   7.583  0.00  0.00    +0.000 A 
ATOM     20  C   UNL     1      45.838   1.609   8.462  0.00  0.00    +0.000 A 
ATOM     21  C   UNL     1      44.920   2.094   9.404  0.00  0.00    +0.000 A 
ATOM     22  C   UNL     1      44.593   3.453   9.469  0.00  0.00    +0.000 A 
ATOM     23  C   UNL     1      45.253   4.324   8.590  0.00  0.00    +0.000 A 
ATOM     24  C   UNL     1      46.186   3.853   7.657  0.00  0.00    +0.000 A 
BRANCH  19  26
ATOM     25  N   UNL     1      48.650   2.723   6.519  0.00  0.00    +0.000 N 
ATOM     26  C   UNL     1      47.480   2.020   6.599  0.00  0.00    +0.000 C 
ATOM     27  O   UNL     1      47.294   1.027   5.908  0.00  0.00    +0.000 OA
ATOM     28  H   UNL     1      49.366   2.331   5.922  0.00  0.00    +0.000 HD
ATOM     29  H   UNL     1      48.940   3.371   7.237  0.00  0.00    +0.000 HD
ENDBRANCH  19  26
ENDBRANCH  17  22
ENDBRANCH  16  17
ENDBRANCH   1  16
TORSDOF 7
ENDMDL
MODEL 6
REMARK VINA RESULT:    -7.684      2.823      4.471
REMARK INTER + INTRA:         -12.113
REMARK INTER:                 -10.995
REMARK INTRA:                  -1.118
REMARK UNBOUND:                -1.284
REMARK  Name = 
REMARK  7 active torsions:
REMARK  status: ('A' for Active; 'I' for Inactive)
REMARK    1  A    between atoms: C_2  and  C_4
REMARK    2  A    between atoms: C_7  and  N_8
REMARK    3  A    between atoms: N_8  and  C_9
REMARK    4  A    between atoms: C_9  and  C_10
REMARK    5  A    between atoms: C_10  and  C_13
REMARK    6  A    between atoms: C_18  and  O_19
REMARK    7  A    between atoms: O_19  and  C_20
REMARK                            x       y       z     vdW  Elec       q    Type
REMARK                         _______ _______ _______ _____ _____    ______ ____
ROOT
ATOM      1  C   UNL     1      44.142   5.204  12.370  0.00  0.00    +0.000 C 
ATOM      2  F   UNL     1      43.231   5.377  13.375  0.00  0.00    +0.000 F 
ATOM      3  F   UNL     1      44.813   4.055  12.694  0.00  0.00    +0.000 F 
ENDROOT
BRANCH   1   4
ATOM      4  C   UNL     1      45.076   6.395  12.255  0.00  0.00    +0.000 A 
ATOM      5  C   UNL     1      46.423   6.221  11.909  0.00  0.00    +0.000 A 
ATOM      6  C   UNL     1      47.270   7.325  11.786  0.00  0.00    +0.000 A 
ATOM      7  C   UNL     1      46.779   8.610  12.011  0.00  0.00    +0.000 A 
ATOM      8  F   UNL     1      47.620   9.641  11.849  0.00  0.00    +0.000 F 
ATOM      9  C   UNL     1      45.445   8.806  12.369  0.00  0.00    +0.000 A 
ATOM     10  C   UNL     1      44.600   7.698  12.486  0.00  0.00    +0.000 A 
BRANCH   9  11
ATOM     11  O   UNL     1      44.832  10.015  12.579  0.00  0.00    +0.000 OA
BRANCH  11  12
ATOM     12  C   UNL     1      44.408  10.811  11.451  0.00  0.00    +0.000 C 
ATOM     13  C   UNL     1      42.941  11.302  11.451  0.00  0.00    +0.000 C 
ATOM     14  C   UNL     1      42.774  10.762  10.025  0.00  0.00    +0.000 C 
ATOM     15  C   UNL     1      44.073   9.969  10.197  0.00  0.00    +0.000 C 
ENDBRANCH  11  12
ENDBRANCH   9  11
ENDBRANCH   1   4
BRANCH   1  16
ATOM     16  C   UNL     1      43.382   4.953  11.041  0.00  0.00    +0.000 C 
BRANCH  16  17
ATOM     17  N   UNL     1      43.634   3.612  10.487  0.00  0.00    +0.000 N 
ATOM     18  H   UNL     1      43.474   2.847  11.141  0.00  0.00    +0.000 HD
BRANCH  17  22
ATOM     19  C   UNL     1      46.517   2.733   7.541  0.00  0.00    +0.000 A 
ATOM     20  C   UNL     1      46.135   4.058   7.753  0.00  0.00    +0.000 A 
ATOM     21  C   UNL     1      45.193   4.368   8.744  0.00  0.00    +0.000 A 
ATOM     22  C   UNL     1      44.640   3.375   9.559  0.00  0.00    +0.000 A 
ATOM     23  C   UNL     1      45.024   2.047   9.319  0.00  0.00    +0.000 A 
ATOM     24  C   UNL     1      45.949   1.724   8.318  0.00  0.00    +0.000 A 
BRANCH  19  26
ATOM     25  N   UNL     1      47.471   3.109   5.331  0.00  0.00    +0.000 N 
ATOM     26  C   UNL     1      47.480   2.358   6.473  0.00  0.00    +0.000 C 
ATOM     27  O   UNL     1      48.275   1.438   6.615  0.00  0.00    +0.000 OA
ATOM     28  H   UNL     1      48.201   2.908   4.659  0.00  0.00    +0.000 HD
ATOM     29  H   UNL     1      47.025   4.013   5.283  0.00  0.00    +0.000 HD
ENDBRANCH  19  26
ENDBRANCH  17  22
ENDBRANCH  16  17
ENDBRANCH   1  16
TORSDOF 7
ENDMDL
MODEL 7
REMARK VINA RESULT:    -7.628      3.012      7.919
REMARK INTER + INTRA:         -12.034
REMARK INTER:                 -10.995
REMARK INTRA:                  -1.040
REMARK UNBOUND:                -1.284
REMARK  Name = 
REMARK  7 active torsions:
REMARK  status: ('A' for Active; 'I' for Inactive)
REMARK    1  A    between atoms: C_2  and  C_4
REMARK    2  A    between atoms: C_7  and  N_8
REMARK    3  A    between atoms: N_8  and  C_9
REMARK    4  A    between atoms: C_9  and  C_10
REMARK    5  A    between atoms: C_10  and  C_13
REMARK    6  A    between atoms: C_18  and  O_19
REMARK    7  A    between atoms: O_19  and  C_20
REMARK                            x       y       z     vdW  Elec       q    Type
REMARK                         _______ _______ _______ _____ _____    ______ ____
ROOT
ATOM      1  C   UNL     1      45.717   6.414  11.452  0.00  0.00    +0.000 C 
ATOM      2  F   UNL     1      44.914   7.434  11.023  0.00  0.00    +0.000 F 
ATOM      3  F   UNL     1      46.986   6.790  11.104  0.00  0.00    +0.000 F 
ENDROOT
BRANCH   1   4
ATOM      4  C   UNL     1      45.322   5.092  10.819  0.00  0.00    +0.000 A 
ATOM      5  C   UNL     1      44.744   4.073  11.589  0.00  0.00    +0.000 A 
ATOM      6  C   UNL     1      44.363   2.867  10.993  0.00  0.00    +0.000 A 
ATOM      7  C   UNL     1      44.561   2.670   9.628  0.00  0.00    +0.000 A 
ATOM      8  F   UNL     1      44.152   1.511   9.095  0.00  0.00    +0.000 F 
ATOM      9  C   UNL     1      45.147   3.666   8.846  0.00  0.00    +0.000 A 
ATOM     10  C   UNL     1      45.520   4.873   9.445  0.00  0.00    +0.000 A 
BRANCH   9  11
ATOM     11  O   UNL     1      45.360   3.612   7.492  0.00  0.00    +0.000 OA
BRANCH  11  12
ATOM     12  C   UNL     1      46.702   3.464   6.981  0.00  0.00    +0.000 C 
ATOM     13  C   UNL     1      46.849   3.156   5.472  0.00  0.00    +0.000 C 
ATOM     14  C   UNL     1      47.780   1.987   5.813  0.00  0.00    +0.000 C 
ATOM     15  C   UNL     1      47.320   2.075   7.271  0.00  0.00    +0.000 C 
ENDBRANCH  11  12
ENDBRANCH   9  11
ENDBRANCH   1   4
BRANCH   1  16
ATOM     16  C   UNL     1      45.650   6.341  13.001  0.00  0.00    +0.000 C 
BRANCH  16  17
ATOM     17  N   UNL     1      46.959   6.565  13.637  0.00  0.00    +0.000 N 
ATOM     18  H   UNL     1      47.660   6.986  13.028  0.00  0.00    +0.000 HD
BRANCH  17  22
ATOM     19  C   UNL     1      48.427   4.088  16.716  0.00  0.00    +0.000 A 
ATOM     20  C   UNL     1      47.520   3.568  15.790  0.00  0.00    +0.000 A 
ATOM     21  C   UNL     1      47.041   4.374  14.748  0.00  0.00    +0.000 A 
ATOM     22  C   UNL     1      47.474   5.695  14.590  0.00  0.00    +0.000 A 
ATOM     23  C   UNL     1      48.371   6.204  15.540  0.00  0.00    +0.000 A 
ATOM     24  C   UNL     1      48.842   5.414  16.597  0.00  0.00    +0.000 A 
BRANCH  19  26
ATOM     25  N   UNL     1      48.323   3.470  19.070  0.00  0.00    +0.000 N 
ATOM     26  C   UNL     1      48.927   3.280  17.858  0.00  0.00    +0.000 C 
ATOM     27  O   UNL     1      49.819   2.453  17.722  0.00  0.00    +0.000 OA
ATOM     28  H   UNL     1      48.602   2.840  19.811  0.00  0.00    +0.000 HD
ATOM     29  H   UNL     1      47.433   3.938  19.162  0.00  0.00    +0.000 HD
ENDBRANCH  19  26
ENDBRANCH  17  22
ENDBRANCH  16  17
ENDBRANCH   1  16
TORSDOF 7
ENDMDL
MODEL 8
REMARK VINA RESULT:    -7.014      1.650      2.338
REMARK INTER + INTRA:         -11.168
REMARK INTER:                 -10.407
REMARK INTRA:                  -0.761
REMARK UNBOUND:                -1.284
REMARK  Name = 
REMARK  7 active torsions:
REMARK  status: ('A' for Active; 'I' for Inactive)
REMARK    1  A    between atoms: C_2  and  C_4
REMARK    2  A    between atoms: C_7  and  N_8
REMARK    3  A    between atoms: N_8  and  C_9
REMARK    4  A    between atoms: C_9  and  C_10
REMARK    5  A    between atoms: C_10  and  C_13
REMARK    6  A    between atoms: C_18  and  O_19
REMARK    7  A    between atoms: O_19  and  C_20
REMARK                            x       y       z     vdW  Elec       q    Type
REMARK                         _______ _______ _______ _____ _____    ______ ____
ROOT
ATOM      1  C   UNL     1      46.257   6.657  11.723  0.00  0.00    +0.000 C 
ATOM      2  F   UNL     1      47.057   6.570  10.618  0.00  0.00    +0.000 F 
ATOM      3  F   UNL     1      45.307   7.588  11.401  0.00  0.00    +0.000 F 
ENDROOT
BRANCH   1   4
ATOM      4  C   UNL     1      47.052   7.056  12.954  0.00  0.00    +0.000 A 
ATOM      5  C   UNL     1      47.295   8.405  13.244  0.00  0.00    +0.000 A 
ATOM      6  C   UNL     1      48.009   8.763  14.391  0.00  0.00    +0.000 A 
ATOM      7  C   UNL     1      48.488   7.777  15.251  0.00  0.00    +0.000 A 
ATOM      8  F   UNL     1      49.140   8.170  16.354  0.00  0.00    +0.000 F 
ATOM      9  C   UNL     1      48.269   6.428  14.975  0.00  0.00    +0.000 A 
ATOM     10  C   UNL     1      47.549   6.075  13.829  0.00  0.00    +0.000 A 
BRANCH   9  11
ATOM     11  O   UNL     1      48.652   5.368  15.757  0.00  0.00    +0.000 OA
BRANCH  11  12
ATOM     12  C   UNL     1      47.652   4.489  16.314  0.00  0.00    +0.000 C 
ATOM     13  C   UNL     1      47.623   4.348  17.855  0.00  0.00    +0.000 C 
ATOM     14  C   UNL     1      47.631   2.822  17.704  0.00  0.00    +0.000 C 
ATOM     15  C   UNL     1      48.038   2.992  16.237  0.00  0.00    +0.000 C 
ENDBRANCH  11  12
ENDBRANCH   9  11
ENDBRANCH   1   4
BRANCH   1  16
ATOM     16  C   UNL     1      45.540   5.296  11.931  0.00  0.00    +0.000 C 
BRANCH  16  17
ATOM     17  N   UNL     1      44.667   4.936  10.802  0.00  0.00    +0.000 N 
ATOM     18  H   UNL     1      43.688   4.799  11.049  0.00  0.00    +0.000 HD
BRANCH  17  22
ATOM     19  C   UNL     1      46.257   2.619   7.659  0.00  0.00    +0.000 A 
ATOM     20  C   UNL     1      45.605   1.985   8.719  0.00  0.00    +0.000 A 
ATOM     21  C   UNL     1      45.052   2.744   9.759  0.00  0.00    +0.000 A 
ATOM     22  C   UNL     1      45.110   4.142   9.751  0.00  0.00    +0.000 A 
ATOM     23  C   UNL     1      45.784   4.760   8.688  0.00  0.00    +0.000 A 
ATOM     24  C   UNL     1      46.358   4.010   7.652  0.00  0.00    +0.000 A 
BRANCH  19  26
ATOM     25  N   UNL     1      47.199   2.531   5.414  0.00  0.00    +0.000 N 
ATOM     26  C   UNL     1      46.893   1.849   6.559  0.00  0.00    +0.000 C 
ATOM     27  O   UNL     1      47.165   0.662   6.676  0.00  0.00    +0.000 OA
ATOM     28  H   UNL     1      47.725   2.019   4.718  0.00  0.00    +0.000 HD
ATOM     29  H   UNL     1      47.230   3.539   5.379  0.00  0.00    +0.000 HD
ENDBRANCH  19  26
ENDBRANCH  17  22
ENDBRANCH  16  17
ENDBRANCH   1  16
TORSDOF 7
ENDMDL
MODEL 9
REMARK VINA RESULT:    -6.650      3.265      4.660
REMARK INTER + INTRA:         -10.656
REMARK INTER:                  -9.257
REMARK INTRA:                  -1.399
REMARK UNBOUND:                -1.284
REMARK  Name = 
REMARK  7 active torsions:
REMARK  status: ('A' for Active; 'I' for Inactive)
REMARK    1  A    between atoms: C_2  and  C_4
REMARK    2  A    between atoms: C_7  and  N_8
REMARK    3  A    between atoms: N_8  and  C_9
REMARK    4  A    between atoms: C_9  and  C_10
REMARK    5  A    between atoms: C_10  and  C_13
REMARK    6  A    between atoms: C_18  and  O_19
REMARK    7  A    between atoms: O_19  and  C_20
REMARK                            x       y       z     vdW  Elec       q    Type
REMARK                         _______ _______ _______ _____ _____    ______ ____
ROOT
ATOM      1  C   UNL     1      47.844   8.249  12.457  0.00  0.00    +0.000 C 
ATOM      2  F   UNL     1      48.080   7.080  11.788  0.00  0.00    +0.000 F 
ATOM      3  F   UNL     1      48.602   9.187  11.810  0.00  0.00    +0.000 F 
ENDROOT
BRANCH   1   4
ATOM      4  C   UNL     1      48.212   8.133  13.925  0.00  0.00    +0.000 A 
ATOM      5  C   UNL     1      48.117   9.241  14.778  0.00  0.00    +0.000 A 
ATOM      6  C   UNL     1      48.438   9.119  16.133  0.00  0.00    +0.000 A 
ATOM      7  C   UNL     1      48.859   7.893  16.643  0.00  0.00    +0.000 A 
ATOM      8  F   UNL     1      49.125   7.816  17.954  0.00  0.00    +0.000 F 
ATOM      9  C   UNL     1      48.973   6.780  15.809  0.00  0.00    +0.000 A 
ATOM     10  C   UNL     1      48.645   6.906  14.456  0.00  0.00    +0.000 A 
BRANCH   9  11
ATOM     11  O   UNL     1      49.336   5.514  16.193  0.00  0.00    +0.000 OA
BRANCH  11  12
ATOM     12  C   UNL     1      48.548   4.807  17.175  0.00  0.00    +0.000 C 
ATOM     13  C   UNL     1      49.004   3.375  17.541  0.00  0.00    +0.000 C 
ATOM     14  C   UNL     1      47.575   2.873  17.305  0.00  0.00    +0.000 C 
ATOM     15  C   UNL     1      47.253   4.191  16.596  0.00  0.00    +0.000 C 
ENDBRANCH  11  12
ENDBRANCH   9  11
ENDBRANCH   1   4
BRANCH   1  16
ATOM     16  C   UNL     1      46.352   8.636  12.278  0.00  0.00    +0.000 C 
BRANCH  16  17
ATOM     17  N   UNL     1      45.450   7.815  13.104  0.00  0.00    +0.000 N 
ATOM     18  H   UNL     1      45.582   7.921  14.109  0.00  0.00    +0.000 HD
BRANCH  17  22
ATOM     19  C   UNL     1      44.278   4.033  11.659  0.00  0.00    +0.000 A 
ATOM     20  C   UNL     1      45.222   4.114  12.684  0.00  0.00    +0.000 A 
ATOM     21  C   UNL     1      45.604   5.364  13.190  0.00  0.00    +0.000 A 
ATOM     22  C   UNL     1      45.037   6.549  12.709  0.00  0.00    +0.000 A 
ATOM     23  C   UNL     1      44.104   6.448  11.666  0.00  0.00    +0.000 A 
ATOM     24  C   UNL     1      43.728   5.205  11.140  0.00  0.00    +0.000 A 
BRANCH  19  26
ATOM     25  N   UNL     1      44.631   2.255  10.031  0.00  0.00    +0.000 N 
ATOM     26  C   UNL     1      43.877   2.730  11.067  0.00  0.00    +0.000 C 
ATOM     27  O   UNL     1      42.931   2.087  11.505  0.00  0.00    +0.000 OA
ATOM     28  H   UNL     1      44.409   1.321   9.710  0.00  0.00    +0.000 HD
ATOM     29  H   UNL     1      45.549   2.618   9.821  0.00  0.00    +0.000 HD
ENDBRANCH  19  26
ENDBRANCH  17  22
ENDBRANCH  16  17
ENDBRANCH   1  16
TORSDOF 7
ENDMDL
