MODEL 1
REMARK VINA RESULT:    -8.001      0.000      0.000
REMARK INTER + INTRA:         -10.186
REMARK INTER:                  -9.638
REMARK INTRA:                  -0.548
REMARK UNBOUND:                -0.548
REMARK  Name = 
REMARK  4 active torsions:
REMARK  status: ('A' for Active; 'I' for Inactive)
REMARK    1  A    between atoms: N_1  and  C_2
REMARK    2  A    between atoms: C_2  and  C_3
REMARK    3  A    between atoms: C_6  and  C_7
REMARK    4  A    between atoms: C_7  and  N_8
REMARK                            x       y       z     vdW  Elec       q    Type
REMARK                         _______ _______ _______ _____ _____    ______ ____
ROOT
ATOM      1  C   UNL     1      46.797   2.182   7.516  0.00  0.00    +0.000 A 
ATOM      2  C   UNL     1      46.715   3.567   7.323  0.00  0.00    +0.000 A 
ATOM      3  C   UNL     1      45.747   4.326   7.989  0.00  0.00    +0.000 A 
ATOM      4  C   UNL     1      44.835   3.713   8.860  0.00  0.00    +0.000 A 
ATOM      5  C   UNL     1      44.896   2.326   9.010  0.00  0.00    +0.000 A 
ATOM      6  F   UNL     1      44.006   1.700   9.793  0.00  0.00    +0.000 F 
ATOM      7  C   UNL     1      45.860   1.566   8.355  0.00  0.00    +0.000 A 
ENDROOT
BRANCH   1   8
ATOM      8  C   UNL     1      47.900   1.376   6.879  0.00  0.00    +0.000 C 
BRANCH   8   9
ATOM      9  N   UNL     1      48.353   1.964   5.627  0.00  0.00    +0.000 NA
ATOM     10  H   UNL     1      48.590   2.941   5.785  0.00  0.00    +0.000 HD
ATOM     11  H   UNL     1      47.580   1.960   4.961  0.00  0.00    +0.000 HD
ENDBRANCH   8   9
ENDBRANCH   1   8
BRANCH   4  12
ATOM     12  C   UNL     1      43.830   4.524   9.630  0.00  0.00    +0.000 C 
BRANCH  12  13
ATOM     13  N   UNL     1      44.151   4.601  11.054  0.00  0.00    +0.000 N 
ATOM     14  C   UNL     1      43.510   3.874  12.033  0.00  0.00    +0.000 A 
ATOM     15  C   UNL     1      44.176   4.074  13.222  0.00  0.00    +0.000 A 
ATOM     16  C   UNL     1      45.256   4.945  12.961  0.00  0.00    +0.000 A 
ATOM     17  N   UNL     1      46.202   5.400  13.818  0.00  0.00    +0.000 NA
ATOM     18  C   UNL     1      47.116   6.224  13.267  0.00  0.00    +0.000 A 
ATOM     19  C   UNL     1      47.140   6.632  11.942  0.00  0.00    +0.000 A 
ATOM     20  C   UNL     1      46.166   6.160  11.068  0.00  0.00    +0.000 A 
ATOM     21  C   UNL     1      45.215   5.287  11.606  0.00  0.00    +0.000 A 
ENDBRANCH  12  13
ENDBRANCH   4  12
TORSDOF 4
ENDMDL
MODEL 2
REMARK VINA RESULT:    -7.459      1.553      1.999
REMARK INTER + INTRA:          -9.533
REMARK INTER:                  -8.913
REMARK INTRA:                  -0.620
REMARK UNBOUND:                -0.548
REMARK  Name = 
REMARK  4 active torsions:
REMARK  status: ('A' for Active; 'I' for Inactive)
REMARK    1  A    between atoms: N_1  and  C_2
REMARK    2  A    between atoms: C_2  and  C_3
REMARK    3  A    between atoms: C_6  and  C_7
REMARK    4  A    between atoms: C_7  and  N_8
REMARK                            x       y       z     vdW  Elec       q    Type
REMARK                         _______ _______ _______ _____ _____    ______ ____
ROOT
ATOM      1  C   UNL     1      46.437   2.242   7.493  0.00  0.00    +0.000 A 
ATOM      2  C   UNL     1      45.655   1.502   8.389  0.00  0.00    +0.000 A 
ATOM      3  C   UNL     1      44.903   2.143   9.380  0.00  0.00    +0.000 A 
ATOM      4  C   UNL     1      44.923   3.540   9.499  0.00  0.00    +0.000 A 
ATOM      5  C   UNL     1      45.743   4.265   8.631  0.00  0.00    +0.000 A 
ATOM      6  F   UNL     1      45.829   5.597   8.750  0.00  0.00    +0.000 F 
ATOM      7  C   UNL     1      46.489   3.634   7.639  0.00  0.00    +0.000 A 
ENDROOT
BRANCH   1   8
ATOM      8  C   UNL     1      47.169   1.564   6.362  0.00  0.00    +0.000 C 
BRANCH   8   9
ATOM      9  N   UNL     1      48.553   2.003   6.267  0.00  0.00    +0.000 NA
ATOM     10  H   UNL     1      48.689   2.805   6.879  0.00  0.00    +0.000 HD
ATOM     11  H   UNL     1      48.731   2.332   5.318  0.00  0.00    +0.000 HD
ENDBRANCH   8   9
ENDBRANCH   1   8
BRANCH   4  12
ATOM     12  C   UNL     1      44.074   4.246  10.518  0.00  0.00    +0.000 C 
BRANCH  12  13
ATOM     13  N   UNL     1      44.851   4.701  11.671  0.00  0.00    +0.000 N 
ATOM     14  C   UNL     1      45.504   3.859  12.543  0.00  0.00    +0.000 A 
ATOM     15  C   UNL     1      46.260   4.630  13.399  0.00  0.00    +0.000 A 
ATOM     16  C   UNL     1      46.064   5.981  13.035  0.00  0.00    +0.000 A 
ATOM     17  N   UNL     1      46.624   7.091  13.574  0.00  0.00    +0.000 NA
ATOM     18  C   UNL     1      46.241   8.252  13.004  0.00  0.00    +0.000 A 
ATOM     19  C   UNL     1      45.338   8.378  11.959  0.00  0.00    +0.000 A 
ATOM     20  C   UNL     1      44.769   7.233  11.411  0.00  0.00    +0.000 A 
ATOM     21  C   UNL     1      45.162   6.012  11.968  0.00  0.00    +0.000 A 
ENDBRANCH  12  13
ENDBRANCH   4  12
TORSDOF 4
ENDMDL
MODEL 3
REMARK VINA RESULT:    -7.325      1.515      2.251
REMARK INTER + INTRA:          -9.372
REMARK INTER:                  -8.958
REMARK INTRA:                  -0.414
REMARK UNBOUND:                -0.548
REMARK  Name = 
REMARK  4 active torsions:
REMARK  status: ('A' for Active; 'I' for Inactive)
REMARK    1  A    between atoms: N_1  and  C_2
REMARK    2  A    between atoms: C_2  and  C_3
REMARK    3  A    between atoms: C_6  and  C_7
REMARK    4  A    between atoms: C_7  and  N_8
REMARK                            x       y       z     vdW  Elec       q    Type
REMARK                         _______ _______ _______ _____ _____    ______ ____
ROOT
ATOM      1  C   UNL     1      46.422   2.026   7.697  0.00  0.00    +0.000 A 
ATOM      2  C   UNL     1      45.494   1.448   8.572  0.00  0.00    +0.000 A 
ATOM      3  C   UNL     1      44.700   2.245   9.403  0.00  0.00    +0.000 A 
ATOM      4  C   UNL     1      44.822   3.642   9.380  0.00  0.00    +0.000 A 
ATOM      5  C   UNL     1      45.783   4.207   8.538  0.00  0.00    +0.000 A 
ATOM      6  F   UNL     1      45.965   5.535   8.529  0.00  0.00    +0.000 F 
ATOM      7  C   UNL     1      46.572   3.420   7.704  0.00  0.00    +0.000 A 
ENDROOT
BRANCH   1   8
ATOM      8  C   UNL     1      47.207   1.178   6.730  0.00  0.00    +0.000 C 
BRANCH   8   9
ATOM      9  N   UNL     1      48.386   1.870   6.230  0.00  0.00    +0.000 NA
ATOM     10  H   UNL     1      49.150   1.203   6.142  0.00  0.00    +0.000 HD
ATOM     11  H   UNL     1      48.684   2.558   6.920  0.00  0.00    +0.000 HD
ENDBRANCH   8   9
ENDBRANCH   1   8
BRANCH   4  12
ATOM     12  C   UNL     1      43.934   4.515  10.222  0.00  0.00    +0.000 C 
BRANCH  12  13
ATOM     13  N   UNL     1      44.690   5.311  11.188  0.00  0.00    +0.000 N 
ATOM     14  C   UNL     1      44.588   6.679  11.312  0.00  0.00    +0.000 A 
ATOM     15  C   UNL     1      45.310   7.065  12.419  0.00  0.00    +0.000 A 
ATOM     16  C   UNL     1      45.867   5.899  12.989  0.00  0.00    +0.000 A 
ATOM     17  N   UNL     1      46.629   5.783  14.104  0.00  0.00    +0.000 NA
ATOM     18  C   UNL     1      47.011   4.524  14.400  0.00  0.00    +0.000 A 
ATOM     19  C   UNL     1      46.703   3.392  13.660  0.00  0.00    +0.000 A 
ATOM     20  C   UNL     1      45.920   3.520  12.517  0.00  0.00    +0.000 A 
ATOM     21  C   UNL     1      45.491   4.811  12.195  0.00  0.00    +0.000 A 
ENDBRANCH  12  13
ENDBRANCH   4  12
TORSDOF 4
ENDMDL
MODEL 4
REMARK VINA RESULT:    -6.320      1.883      6.066
REMARK INTER + INTRA:          -8.160
REMARK INTER:                  -7.521
REMARK INTRA:                  -0.640
REMARK UNBOUND:                -0.548
REMARK  Name = 
REMARK  4 active torsions:
REMARK  status: ('A' for Active; 'I' for Inactive)
REMARK    1  A    between atoms: N_1  and  C_2
REMARK    2  A    between atoms: C_2  and  C_3
REMARK    3  A    between atoms: C_6  and  C_7
REMARK    4  A    between atoms: C_7  and  N_8
REMARK                            x       y       z     vdW  Elec       q    Type
REMARK                         _______ _______ _______ _____ _____    ______ ____
ROOT
ATOM      1  C   UNL     1      46.340   4.498  13.600  0.00  0.00    +0.000 A 
ATOM      2  C   UNL     1      45.822   3.266  13.180  0.00  0.00    +0.000 A 
ATOM      3  C   UNL     1      45.166   3.148  11.950  0.00  0.00    +0.000 A 
ATOM      4  C   UNL     1      45.009   4.264  11.115  0.00  0.00    +0.000 A 
ATOM      5  C   UNL     1      45.488   5.497  11.564  0.00  0.00    +0.000 A 
ATOM      6  F   UNL     1      45.308   6.595  10.817  0.00  0.00    +0.000 F 
ATOM      7  C   UNL     1      46.147   5.620  12.784  0.00  0.00    +0.000 A 
ENDROOT
BRANCH   1   8
ATOM      8  C   UNL     1      47.134   4.608  14.876  0.00  0.00    +0.000 C 
BRANCH   8   9
ATOM      9  N   UNL     1      47.651   3.319  15.311  0.00  0.00    +0.000 NA
ATOM     10  H   UNL     1      48.440   3.062  14.721  0.00  0.00    +0.000 HD
ATOM     11  H   UNL     1      46.936   2.608  15.161  0.00  0.00    +0.000 HD
ENDBRANCH   8   9
ENDBRANCH   1   8
BRANCH   4  12
ATOM     12  C   UNL     1      44.361   4.140   9.765  0.00  0.00    +0.000 C 
BRANCH  12  13
ATOM     13  N   UNL     1      45.334   3.887   8.702  0.00  0.00    +0.000 N 
ATOM     14  C   UNL     1      46.041   4.874   8.050  0.00  0.00    +0.000 A 
ATOM     15  C   UNL     1      46.974   4.268   7.238  0.00  0.00    +0.000 A 
ATOM     16  C   UNL     1      46.834   2.872   7.401  0.00  0.00    +0.000 A 
ATOM     17  N   UNL     1      47.554   1.878   6.827  0.00  0.00    +0.000 NA
ATOM     18  C   UNL     1      47.185   0.632   7.187  0.00  0.00    +0.000 A 
ATOM     19  C   UNL     1      46.150   0.315   8.054  0.00  0.00    +0.000 A 
ATOM     20  C   UNL     1      45.416   1.343   8.640  0.00  0.00    +0.000 A 
ATOM     21  C   UNL     1      45.789   2.647   8.301  0.00  0.00    +0.000 A 
ENDBRANCH  12  13
ENDBRANCH   4  12
TORSDOF 4
ENDMDL
MODEL 5
REMARK VINA RESULT:    -6.273      2.696      6.012
REMARK INTER + INTRA:          -8.105
REMARK INTER:                  -7.730
REMARK INTRA:                  -0.374
REMARK UNBOUND:                -0.548
REMARK  Name = 
REMARK  4 active torsions:
REMARK  status: ('A' for Active; 'I' for Inactive)
REMARK    1  A    between atoms: N_1  and  C_2
REMARK    2  A    between atoms: C_2  and  C_3
REMARK    3  A    between atoms: C_6  and  C_7
REMARK    4  A    between atoms: C_7  and  N_8
REMARK                            x       y       z     vdW  Elec       q    Type
REMARK                         _______ _______ _______ _____ _____    ______ ____
ROOT
ATOM      1  C   UNL     1      48.092   7.588  13.566  0.00  0.00    +0.000 A 
ATOM      2  C   UNL     1      47.863   6.274  13.137  0.00  0.00    +0.000 A 
ATOM      3  C   UNL     1      46.644   5.915  12.552  0.00  0.00    +0.000 A 
ATOM      4  C   UNL     1      45.624   6.864  12.388  0.00  0.00    +0.000 A 
ATOM      5  C   UNL     1      45.846   8.159  12.862  0.00  0.00    +0.000 A 
ATOM      6  F   UNL     1      44.874   9.078  12.772  0.00  0.00    +0.000 F 
ATOM      7  C   UNL     1      47.058   8.525  13.440  0.00  0.00    +0.000 A 
ENDROOT
BRANCH   1   8
ATOM      8  C   UNL     1      49.438   8.003  14.105  0.00  0.00    +0.000 C 
BRANCH   8   9
ATOM      9  N   UNL     1      50.143   6.892  14.727  0.00  0.00    +0.000 NA
ATOM     10  H   UNL     1      49.567   6.510  15.474  0.00  0.00    +0.000 HD
ATOM     11  H   UNL     1      50.991   7.244  15.169  0.00  0.00    +0.000 HD
ENDBRANCH   8   9
ENDBRANCH   1   8
BRANCH   4  12
ATOM     12  C   UNL     1      44.334   6.508  11.706  0.00  0.00    +0.000 C 
BRANCH  12  13
ATOM     13  N   UNL     1      44.217   5.073  11.450  0.00  0.00    +0.000 N 
ATOM     14  C   UNL     1      43.528   4.197  12.260  0.00  0.00    +0.000 A 
ATOM     15  C   UNL     1      43.490   2.971  11.632  0.00  0.00    +0.000 A 
ATOM     16  C   UNL     1      44.173   3.104  10.403  0.00  0.00    +0.000 A 
ATOM     17  N   UNL     1      44.367   2.173   9.438  0.00  0.00    +0.000 NA
ATOM     18  C   UNL     1      45.060   2.605   8.366  0.00  0.00    +0.000 A 
ATOM     19  C   UNL     1      45.582   3.879   8.201  0.00  0.00    +0.000 A 
ATOM     20  C   UNL     1      45.378   4.830   9.197  0.00  0.00    +0.000 A 
ATOM     21  C   UNL     1      44.643   4.417  10.313  0.00  0.00    +0.000 A 
ENDBRANCH  12  13
ENDBRANCH   4  12
TORSDOF 4
ENDMDL
MODEL 6
REMARK VINA RESULT:    -6.040      1.507      5.718
REMARK INTER + INTRA:          -7.823
REMARK INTER:                  -7.243
REMARK INTRA:                  -0.580
REMARK UNBOUND:                -0.548
REMARK  Name = 
REMARK  4 active torsions:
REMARK  status: ('A' for Active; 'I' for Inactive)
REMARK    1  A    between atoms: N_1  and  C_2
REMARK    2  A    between atoms: C_2  and  C_3
REMARK    3  A    between atoms: C_6  and  C_7
REMARK    4  A    between atoms: C_7  and  N_8
REMARK                            x       y       z     vdW  Elec       q    Type
REMARK                         _______ _______ _______ _____ _____    ______ ____
ROOT
ATOM      1  C   UNL     1      47.110   6.013  13.266  0.00  0.00    +0.000 A 
ATOM      2  C   UNL     1      47.037   6.664  12.028  0.00  0.00    +0.000 A 
ATOM      3  C   UNL     1      46.176   6.203  11.026  0.00  0.00    +0.000 A 
ATOM      4  C   UNL     1      45.372   5.074  11.241  0.00  0.00    +0.000 A 
ATOM      5  C   UNL     1      45.486   4.405  12.462  0.00  0.00    +0.000 A 
ATOM      6  F   UNL     1      44.773   3.292  12.682  0.00  0.00    +0.000 F 
ATOM      7  C   UNL     1      46.336   4.862  13.465  0.00  0.00    +0.000 A 
ENDROOT
BRANCH   1   8
ATOM      8  C   UNL     1      47.960   6.565  14.382  0.00  0.00    +0.000 C 
BRANCH   8   9
ATOM      9  N   UNL     1      48.075   5.631  15.492  0.00  0.00    +0.000 NA
ATOM     10  H   UNL     1      47.848   4.695  15.164  0.00  0.00    +0.000 HD
ATOM     11  H   UNL     1      47.376   5.866  16.196  0.00  0.00    +0.000 HD
ENDBRANCH   8   9
ENDBRANCH   1   8
BRANCH   4  12
ATOM     12  C   UNL     1      44.398   4.603  10.198  0.00  0.00    +0.000 C 
BRANCH  12  13
ATOM     13  N   UNL     1      44.865   3.405   9.501  0.00  0.00    +0.000 N 
ATOM     14  C   UNL     1      44.376   2.138   9.729  0.00  0.00    +0.000 A 
ATOM     15  C   UNL     1      44.922   1.292   8.789  0.00  0.00    +0.000 A 
ATOM     16  C   UNL     1      45.766   2.066   7.962  0.00  0.00    +0.000 A 
ATOM     17  N   UNL     1      46.491   1.671   6.887  0.00  0.00    +0.000 NA
ATOM     18  C   UNL     1      47.202   2.650   6.293  0.00  0.00    +0.000 A 
ATOM     19  C   UNL     1      47.252   3.974   6.704  0.00  0.00    +0.000 A 
ATOM     20  C   UNL     1      46.504   4.372   7.808  0.00  0.00    +0.000 A 
ATOM     21  C   UNL     1      45.740   3.382   8.433  0.00  0.00    +0.000 A 
ENDBRANCH  12  13
ENDBRANCH   4  12
TORSDOF 4
ENDMDL
MODEL 7
REMARK VINA RESULT:    -5.971      2.201      2.878
REMARK INTER + INTRA:          -7.740
REMARK INTER:                  -7.279
REMARK INTRA:                  -0.461
REMARK UNBOUND:                -0.548
REMARK  Name = 
REMARK  4 active torsions:
REMARK  status: ('A' for Active; 'I' for Inactive)
REMARK    1  A    between atoms: N_1  and  C_2
REMARK    2  A    between atoms: C_2  and  C_3
REMARK    3  A    between atoms: C_6  and  C_7
REMARK    4  A    between atoms: C_7  and  N_8
REMARK                            x       y       z     vdW  Elec       q    Type
REMARK                         _______ _______ _______ _____ _____    ______ ____
ROOT
ATOM      1  C   UNL     1      45.634   3.318   8.379  0.00  0.00    +0.000 A 
ATOM      2  C   UNL     1      45.962   4.668   8.560  0.00  0.00    +0.000 A 
ATOM      3  C   UNL     1      45.437   5.393   9.635  0.00  0.00    +0.000 A 
ATOM      4  C   UNL     1      44.568   4.783  10.551  0.00  0.00    +0.000 A 
ATOM      5  C   UNL     1      44.211   3.451  10.335  0.00  0.00    +0.000 A 
ATOM      6  F   UNL     1      43.340   2.851  11.159  0.00  0.00    +0.000 F 
ATOM      7  C   UNL     1      44.733   2.721   9.271  0.00  0.00    +0.000 A 
ENDROOT
BRANCH   1   8
ATOM      8  C   UNL     1      46.274   2.507   7.282  0.00  0.00    +0.000 C 
BRANCH   8   9
ATOM      9  N   UNL     1      47.342   3.236   6.615  0.00  0.00    +0.000 NA
ATOM     10  H   UNL     1      47.652   3.995   7.219  0.00  0.00    +0.000 HD
ATOM     11  H   UNL     1      46.969   3.674   5.773  0.00  0.00    +0.000 HD
ENDBRANCH   8   9
ENDBRANCH   1   8
BRANCH   4  12
ATOM     12  C   UNL     1      44.046   5.532  11.745  0.00  0.00    +0.000 C 
BRANCH  12  13
ATOM     13  N   UNL     1      45.046   6.432  12.318  0.00  0.00    +0.000 N 
ATOM     14  C   UNL     1      46.113   6.016  13.083  0.00  0.00    +0.000 A 
ATOM     15  C   UNL     1      46.929   7.102  13.310  0.00  0.00    +0.000 A 
ATOM     16  C   UNL     1      46.344   8.212  12.662  0.00  0.00    +0.000 A 
ATOM     17  N   UNL     1      46.804   9.485  12.586  0.00  0.00    +0.000 NA
ATOM     18  C   UNL     1      46.019  10.329  11.886  0.00  0.00    +0.000 A 
ATOM     19  C   UNL     1      44.816   9.998  11.281  0.00  0.00    +0.000 A 
ATOM     20  C   UNL     1      44.352   8.689  11.363  0.00  0.00    +0.000 A 
ATOM     21  C   UNL     1      45.155   7.785  12.066  0.00  0.00    +0.000 A 
ENDBRANCH  12  13
ENDBRANCH   4  12
TORSDOF 4
ENDMDL
MODEL 8
REMARK VINA RESULT:    -5.538      2.216      3.588
REMARK INTER + INTRA:          -7.219
REMARK INTER:                  -6.772
REMARK INTRA:                  -0.447
REMARK UNBOUND:                -0.548
REMARK  Name = 
REMARK  4 active torsions:
REMARK  status: ('A' for Active; 'I' for Inactive)
REMARK    1  A    between atoms: N_1  and  C_2
REMARK    2  A    between atoms: C_2  and  C_3
REMARK    3  A    between atoms: C_6  and  C_7
REMARK    4  A    between atoms: C_7  and  N_8
REMARK                            x       y       z     vdW  Elec       q    Type
REMARK                         _______ _______ _______ _____ _____    ______ ____
ROOT
ATOM      1  C   UNL     1      44.822   2.708   9.477  0.00  0.00    +0.000 A 
ATOM      2  C   UNL     1      44.192   2.804  10.724  0.00  0.00    +0.000 A 
ATOM      3  C   UNL     1      44.223   3.999  11.452  0.00  0.00    +0.000 A 
ATOM      4  C   UNL     1      44.892   5.124  10.947  0.00  0.00    +0.000 A 
ATOM      5  C   UNL     1      45.556   5.004   9.725  0.00  0.00    +0.000 A 
ATOM      6  F   UNL     1      46.251   6.041   9.238  0.00  0.00    +0.000 F 
ATOM      7  C   UNL     1      45.524   3.820   8.993  0.00  0.00    +0.000 A 
ENDROOT
BRANCH   1   8
ATOM      8  C   UNL     1      44.707   1.456   8.646  0.00  0.00    +0.000 C 
BRANCH   8   9
ATOM      9  N   UNL     1      46.010   0.904   8.307  0.00  0.00    +0.000 NA
ATOM     10  H   UNL     1      46.720   1.350   8.884  0.00  0.00    +0.000 HD
ATOM     11  H   UNL     1      46.231   1.146   7.341  0.00  0.00    +0.000 HD
ENDBRANCH   8   9
ENDBRANCH   1   8
BRANCH   4  12
ATOM     12  C   UNL     1      44.882   6.431  11.688  0.00  0.00    +0.000 C 
BRANCH  12  13
ATOM     13  N   UNL     1      46.158   6.707  12.347  0.00  0.00    +0.000 N 
ATOM     14  C   UNL     1      46.947   7.803  12.075  0.00  0.00    +0.000 A 
ATOM     15  C   UNL     1      47.979   7.827  12.988  0.00  0.00    +0.000 A 
ATOM     16  C   UNL     1      47.811   6.715  13.843  0.00  0.00    +0.000 A 
ATOM     17  N   UNL     1      48.565   6.346  14.907  0.00  0.00    +0.000 NA
ATOM     18  C   UNL     1      48.148   5.229  15.537  0.00  0.00    +0.000 A 
ATOM     19  C   UNL     1      47.056   4.457  15.171  0.00  0.00    +0.000 A 
ATOM     20  C   UNL     1      46.286   4.843  14.077  0.00  0.00    +0.000 A 
ATOM     21  C   UNL     1      46.683   6.010  13.416  0.00  0.00    +0.000 A 
ENDBRANCH  12  13
ENDBRANCH   4  12
TORSDOF 4
ENDMDL
MODEL 9
REMARK VINA RESULT:    -5.340      3.276      6.298
REMARK INTER + INTRA:          -6.980
REMARK INTER:                  -6.423
REMARK INTRA:                  -0.557
REMARK UNBOUND:                -0.548
REMARK  Name = 
REMARK  4 active torsions:
REMARK  status: ('A' for Active; 'I' for Inactive)
REMARK    1  A    between atoms: N_1  and  C_2
REMARK    2  A    between atoms: C_2  and  C_3
REMARK    3  A    between atoms: C_6  and  C_7
REMARK    4  A    between atoms: C_7  and  N_8
REMARK                            x       y       z     vdW  Elec       q    Type
REMARK                         _______ _______ _______ _____ _____    ______ ____
ROOT
ATOM      1  C   UNL     1      50.103   8.387  12.851  0.00  0.00    +0.000 A 
ATOM      2  C   UNL     1      49.749   7.675  11.698  0.00  0.00    +0.000 A 
ATOM      3  C   UNL     1      48.409   7.390  11.417  0.00  0.00    +0.000 A 
ATOM      4  C   UNL     1      47.392   7.808  12.289  0.00  0.00    +0.000 A 
ATOM      5  C   UNL     1      47.760   8.476  13.459  0.00  0.00    +0.000 A 
ATOM      6  F   UNL     1      46.820   8.842  14.341  0.00  0.00    +0.000 F 
ATOM      7  C   UNL     1      49.091   8.769  13.742  0.00  0.00    +0.000 A 
ENDROOT
BRANCH   1   8
ATOM      8  C   UNL     1      51.535   8.783  13.107  0.00  0.00    +0.000 C 
BRANCH   8   9
ATOM      9  N   UNL     1      52.210   7.848  13.995  0.00  0.00    +0.000 NA
ATOM     10  H   UNL     1      52.903   7.327  13.462  0.00  0.00    +0.000 HD
ATOM     11  H   UNL     1      51.533   7.164  14.332  0.00  0.00    +0.000 HD
ENDBRANCH   8   9
ENDBRANCH   1   8
BRANCH   4  12
ATOM     12  C   UNL     1      45.944   7.562  11.969  0.00  0.00    +0.000 C 
BRANCH  12  13
ATOM     13  N   UNL     1      45.588   6.147  12.057  0.00  0.00    +0.000 N 
ATOM     14  C   UNL     1      45.226   5.511  13.223  0.00  0.00    +0.000 A 
ATOM     15  C   UNL     1      44.803   4.239  12.906  0.00  0.00    +0.000 A 
ATOM     16  C   UNL     1      44.906   4.096  11.505  0.00  0.00    +0.000 A 
ATOM     17  N   UNL     1      44.575   3.030  10.737  0.00  0.00    +0.000 NA
ATOM     18  C   UNL     1      44.784   3.197   9.416  0.00  0.00    +0.000 A 
ATOM     19  C   UNL     1      45.310   4.333   8.819  0.00  0.00    +0.000 A 
ATOM     20  C   UNL     1      45.646   5.425   9.615  0.00  0.00    +0.000 A 
ATOM     21  C   UNL     1      45.421   5.288  10.988  0.00  0.00    +0.000 A 
ENDBRANCH  12  13
ENDBRANCH   4  12
TORSDOF 4
ENDMDL
