MODEL 1
REMARK VINA RESULT:    -8.222      0.000      0.000
REMARK INTER + INTRA:         -10.464
REMARK INTER:                 -10.145
REMARK INTRA:                  -0.320
REMARK UNBOUND:                -0.320
REMARK  Name = 
REMARK  6 active torsions:
REMARK  status: ('A' for Active; 'I' for Inactive)
REMARK    1  A    between atoms: C_1  and  C_2
REMARK    2  A    between atoms: C_2  and  C_3
REMARK    3  A    between atoms: C_2  and  O_4
REMARK    4  A    between atoms: C_2  and  C_14
REMARK    5  A    between atoms: O_4  and  C_5
REMARK    6  A    between atoms: C_8  and  C_9
REMARK                            x       y       z     vdW  Elec       q    Type
REMARK                         _______ _______ _______ _____ _____    ______ ____
ROOT
ATOM      1  C   UNL     1      44.607   3.622   9.199  0.00  0.00    +0.000 A 
ATOM      2  C   UNL     1      44.981   2.281   9.201  0.00  0.00    +0.000 A 
ATOM      3  C   UNL     1      45.976   1.823   8.341  0.00  0.00    +0.000 A 
ATOM      4  C   UNL     1      46.618   2.745   7.530  0.00  0.00    +0.000 A 
ATOM      5  N   UNL     1      46.348   4.082   7.545  0.00  0.00    +0.000 NA
ATOM      6  C   UNL     1      45.353   4.476   8.388  0.00  0.00    +0.000 A 
ENDROOT
BRANCH   4   7
ATOM      7  C   UNL     1      47.658   2.254   6.569  0.00  0.00    +0.000 C 
ATOM      8  N   UNL     1      47.861   3.032   5.463  0.00  0.00    +0.000 N 
ATOM      9  O   UNL     1      48.285   1.219   6.750  0.00  0.00    +0.000 OA
ATOM     10  H   UNL     1      47.317   3.879   5.336  0.00  0.00    +0.000 HD
ATOM     11  H   UNL     1      48.536   2.742   4.769  0.00  0.00    +0.000 HD
ENDBRANCH   4   7
BRANCH   1  12
ATOM     12  O   UNL     1      43.591   4.173   9.924  0.00  0.00    +0.000 OA
BRANCH  12  14
ATOM     13  C   UNL     1      42.655   5.294  11.970  0.00  0.00    +0.000 C 
ATOM     14  C   UNL     1      43.669   4.287  11.369  0.00  0.00    +0.000 C 
ATOM     15  C   UNL     1      43.473   2.895  12.003  0.00  0.00    +0.000 C 
BRANCH  14  16
ATOM     16  C   UNL     1      45.116   4.826  11.726  0.00  0.00    +0.000 C 
ATOM     17  C   UNL     1      45.536   4.462  13.170  0.00  0.00    +0.000 C 
ATOM     18  C   UNL     1      46.961   4.912  13.486  0.00  0.00    +0.000 C 
ATOM     19  C   UNL     1      47.146   6.403  13.250  0.00  0.00    +0.000 C 
ATOM     20  C   UNL     1      46.742   6.785  11.833  0.00  0.00    +0.000 C 
ATOM     21  C   UNL     1      45.313   6.343  11.510  0.00  0.00    +0.000 C 
ENDBRANCH  14  16
ENDBRANCH  12  14
ENDBRANCH   1  12
TORSDOF 4
ENDMDL
MODEL 2
REMARK VINA RESULT:    -6.522      3.728      6.511
REMARK INTER + INTRA:          -8.367
REMARK INTER:                  -7.906
REMARK INTRA:                  -0.461
REMARK UNBOUND:                -0.320
REMARK  Name = 
REMARK  6 active torsions:
REMARK  status: ('A' for Active; 'I' for Inactive)
REMARK    1  A    between atoms: C_1  and  C_2
REMARK    2  A    between atoms: C_2  and  C_3
REMARK    3  A    between atoms: C_2  and  O_4
REMARK    4  A    between atoms: C_2  and  C_14
REMARK    5  A    between atoms: O_4  and  C_5
REMARK    6  A    between atoms: C_8  and  C_9
REMARK                            x       y       z     vdW  Elec       q    Type
REMARK                         _______ _______ _______ _____ _____    ______ ____
ROOT
ATOM      1  C   UNL     1      46.036   6.889  11.576  0.00  0.00    +0.000 A 
ATOM      2  C   UNL     1      47.382   6.639  11.824  0.00  0.00    +0.000 A 
ATOM      3  C   UNL     1      48.077   7.388  12.771  0.00  0.00    +0.000 A 
ATOM      4  C   UNL     1      47.380   8.342  13.494  0.00  0.00    +0.000 A 
ATOM      5  N   UNL     1      46.043   8.573  13.349  0.00  0.00    +0.000 NA
ATOM      6  C   UNL     1      45.414   7.830  12.396  0.00  0.00    +0.000 A 
ENDROOT
BRANCH   4   7
ATOM      7  C   UNL     1      48.130   9.182  14.483  0.00  0.00    +0.000 C 
ATOM      8  N   UNL     1      47.618   9.207  15.752  0.00  0.00    +0.000 N 
ATOM      9  O   UNL     1      49.132   9.817  14.182  0.00  0.00    +0.000 OA
ATOM     10  H   UNL     1      46.779   8.679  15.967  0.00  0.00    +0.000 HD
ATOM     11  H   UNL     1      48.069   9.772  16.458  0.00  0.00    +0.000 HD
ENDBRANCH   4   7
BRANCH   1  12
ATOM     12  O   UNL     1      45.272   6.291  10.616  0.00  0.00    +0.000 OA
BRANCH  12  14
ATOM     13  C   UNL     1      45.073   4.283  12.117  0.00  0.00    +0.000 C 
ATOM     14  C   UNL     1      44.547   5.062  10.884  0.00  0.00    +0.000 C 
ATOM     15  C   UNL     1      43.049   5.380  11.057  0.00  0.00    +0.000 C 
BRANCH  14  16
ATOM     16  C   UNL     1      44.739   4.115   9.627  0.00  0.00    +0.000 C 
ATOM     17  C   UNL     1      45.005   2.647  10.037  0.00  0.00    +0.000 C 
ATOM     18  C   UNL     1      45.109   1.721   8.826  0.00  0.00    +0.000 C 
ATOM     19  C   UNL     1      46.177   2.191   7.850  0.00  0.00    +0.000 C 
ATOM     20  C   UNL     1      45.935   3.633   7.429  0.00  0.00    +0.000 C 
ATOM     21  C   UNL     1      45.835   4.568   8.637  0.00  0.00    +0.000 C 
ENDBRANCH  14  16
ENDBRANCH  12  14
ENDBRANCH   1  12
TORSDOF 4
ENDMDL
MODEL 3
REMARK VINA RESULT:    -6.490      3.888      6.381
REMARK INTER + INTRA:          -8.327
REMARK INTER:                  -8.174
REMARK INTRA:                  -0.153
REMARK UNBOUND:                -0.320
REMARK  Name = 
REMARK  6 active torsions:
REMARK  status: ('A' for Active; 'I' for Inactive)
REMARK    1  A    between atoms: C_1  and  C_2
REMARK    2  A    between atoms: C_2  and  C_3
REMARK    3  A    between atoms: C_2  and  O_4
REMARK    4  A    between atoms: C_2  and  C_14
REMARK    5  A    between atoms: O_4  and  C_5
REMARK    6  A    between atoms: C_8  and  C_9
REMARK                            x       y       z     vdW  Elec       q    Type
REMARK                         _______ _______ _______ _____ _____    ______ ____
ROOT
ATOM      1  C   UNL     1      46.672   5.038  13.188  0.00  0.00    +0.000 A 
ATOM      2  C   UNL     1      47.090   5.787  14.283  0.00  0.00    +0.000 A 
ATOM      3  C   UNL     1      47.547   5.157  15.438  0.00  0.00    +0.000 A 
ATOM      4  C   UNL     1      47.625   3.774  15.444  0.00  0.00    +0.000 A 
ATOM      5  N   UNL     1      47.304   2.994  14.372  0.00  0.00    +0.000 NA
ATOM      6  C   UNL     1      46.844   3.656  13.274  0.00  0.00    +0.000 A 
ENDROOT
BRANCH   4   7
ATOM      7  C   UNL     1      48.072   3.086  16.699  0.00  0.00    +0.000 C 
ATOM      8  N   UNL     1      47.170   3.080  17.727  0.00  0.00    +0.000 N 
ATOM      9  O   UNL     1      49.175   2.569  16.809  0.00  0.00    +0.000 OA
ATOM     10  H   UNL     1      46.268   3.527  17.609  0.00  0.00    +0.000 HD
ATOM     11  H   UNL     1      47.422   2.648  18.605  0.00  0.00    +0.000 HD
ENDBRANCH   4   7
BRANCH   1  12
ATOM     12  O   UNL     1      46.123   5.531  12.041  0.00  0.00    +0.000 OA
BRANCH  12  14
ATOM     13  C   UNL     1      43.940   4.558  12.822  0.00  0.00    +0.000 C 
ATOM     14  C   UNL     1      44.716   5.345  11.735  0.00  0.00    +0.000 C 
ATOM     15  C   UNL     1      44.057   6.720  11.505  0.00  0.00    +0.000 C 
BRANCH  14  16
ATOM     16  C   UNL     1      44.628   4.493  10.401  0.00  0.00    +0.000 C 
ATOM     17  C   UNL     1      44.716   2.972  10.672  0.00  0.00    +0.000 C 
ATOM     18  C   UNL     1      44.551   2.149   9.395  0.00  0.00    +0.000 C 
ATOM     19  C   UNL     1      45.565   2.549   8.334  0.00  0.00    +0.000 C 
ATOM     20  C   UNL     1      45.494   4.042   8.048  0.00  0.00    +0.000 C 
ATOM     21  C   UNL     1      45.665   4.874   9.321  0.00  0.00    +0.000 C 
ENDBRANCH  14  16
ENDBRANCH  12  14
ENDBRANCH   1  12
TORSDOF 4
ENDMDL
MODEL 4
REMARK VINA RESULT:    -5.624      4.246      6.595
REMARK INTER + INTRA:          -7.259
REMARK INTER:                  -6.751
REMARK INTRA:                  -0.508
REMARK UNBOUND:                -0.320
REMARK  Name = 
REMARK  6 active torsions:
REMARK  status: ('A' for Active; 'I' for Inactive)
REMARK    1  A    between atoms: C_1  and  C_2
REMARK    2  A    between atoms: C_2  and  C_3
REMARK    3  A    between atoms: C_2  and  O_4
REMARK    4  A    between atoms: C_2  and  C_14
REMARK    5  A    between atoms: O_4  and  C_5
REMARK    6  A    between atoms: C_8  and  C_9
REMARK                            x       y       z     vdW  Elec       q    Type
REMARK                         _______ _______ _______ _____ _____    ______ ____
ROOT
ATOM      1  C   UNL     1      47.528   5.916  13.014  0.00  0.00    +0.000 A 
ATOM      2  C   UNL     1      46.597   6.279  12.046  0.00  0.00    +0.000 A 
ATOM      3  C   UNL     1      45.345   5.670  12.005  0.00  0.00    +0.000 A 
ATOM      4  C   UNL     1      45.035   4.740  12.983  0.00  0.00    +0.000 A 
ATOM      5  N   UNL     1      45.878   4.405  14.003  0.00  0.00    +0.000 NA
ATOM      6  C   UNL     1      47.097   5.012  13.986  0.00  0.00    +0.000 A 
ENDROOT
BRANCH   4   7
ATOM      7  C   UNL     1      43.707   4.047  12.920  0.00  0.00    +0.000 C 
ATOM      8  N   UNL     1      43.742   2.725  12.572  0.00  0.00    +0.000 N 
ATOM      9  O   UNL     1      42.653   4.622  13.153  0.00  0.00    +0.000 OA
ATOM     10  H   UNL     1      44.632   2.280  12.373  0.00  0.00    +0.000 HD
ATOM     11  H   UNL     1      42.877   2.209  12.493  0.00  0.00    +0.000 HD
ENDBRANCH   4   7
BRANCH   1  12
ATOM     12  O   UNL     1      48.811   6.369  13.104  0.00  0.00    +0.000 OA
BRANCH  12  14
ATOM     13  C   UNL     1      47.956   8.347  14.400  0.00  0.00    +0.000 C 
ATOM     14  C   UNL     1      49.109   7.706  13.585  0.00  0.00    +0.000 C 
ATOM     15  C   UNL     1      50.398   7.669  14.431  0.00  0.00    +0.000 C 
BRANCH  14  16
ATOM     16  C   UNL     1      49.341   8.626  12.316  0.00  0.00    +0.000 C 
ATOM     17  C   UNL     1      50.818   9.069  12.178  0.00  0.00    +0.000 C 
ATOM     18  C   UNL     1      51.056   9.890  10.911  0.00  0.00    +0.000 C 
ATOM     19  C   UNL     1      50.140  11.103  10.846  0.00  0.00    +0.000 C 
ATOM     20  C   UNL     1      48.681  10.691  10.977  0.00  0.00    +0.000 C 
ATOM     21  C   UNL     1      48.432   9.874  12.247  0.00  0.00    +0.000 C 
ENDBRANCH  14  16
ENDBRANCH  12  14
ENDBRANCH   1  12
TORSDOF 4
ENDMDL
MODEL 5
REMARK VINA RESULT:    -5.583      3.846      6.438
REMARK INTER + INTRA:          -7.208
REMARK INTER:                  -7.309
REMARK INTRA:                   0.101
REMARK UNBOUND:                -0.320
REMARK  Name = 
REMARK  6 active torsions:
REMARK  status: ('A' for Active; 'I' for Inactive)
REMARK    1  A    between atoms: C_1  and  C_2
REMARK    2  A    between atoms: C_2  and  C_3
REMARK    3  A    between atoms: C_2  and  O_4
REMARK    4  A    between atoms: C_2  and  C_14
REMARK    5  A    between atoms: O_4  and  C_5
REMARK    6  A    between atoms: C_8  and  C_9
REMARK                            x       y       z     vdW  Elec       q    Type
REMARK                         _______ _______ _______ _____ _____    ______ ____
ROOT
ATOM      1  C   UNL     1      46.784   5.099  13.254  0.00  0.00    +0.000 A 
ATOM      2  C   UNL     1      47.511   6.054  12.550  0.00  0.00    +0.000 A 
ATOM      3  C   UNL     1      48.457   6.843  13.200  0.00  0.00    +0.000 A 
ATOM      4  C   UNL     1      48.693   6.611  14.545  0.00  0.00    +0.000 A 
ATOM      5  N   UNL     1      48.068   5.636  15.265  0.00  0.00    +0.000 NA
ATOM      6  C   UNL     1      47.136   4.906  14.590  0.00  0.00    +0.000 A 
ENDROOT
BRANCH   4   7
ATOM      7  C   UNL     1      49.677   7.485  15.262  0.00  0.00    +0.000 C 
ATOM      8  N   UNL     1      50.953   7.472  14.768  0.00  0.00    +0.000 N 
ATOM      9  O   UNL     1      49.371   8.163  16.233  0.00  0.00    +0.000 OA
ATOM     10  H   UNL     1      51.178   6.891  13.969  0.00  0.00    +0.000 HD
ATOM     11  H   UNL     1      51.666   8.026  15.222  0.00  0.00    +0.000 HD
ENDBRANCH   4   7
BRANCH   1  12
ATOM     12  O   UNL     1      45.772   4.333  12.755  0.00  0.00    +0.000 OA
BRANCH  12  14
ATOM     13  C   UNL     1      43.270   4.586  12.774  0.00  0.00    +0.000 C 
ATOM     14  C   UNL     1      44.623   4.931  12.100  0.00  0.00    +0.000 C 
ATOM     15  C   UNL     1      44.808   6.460  12.038  0.00  0.00    +0.000 C 
BRANCH  14  16
ATOM     16  C   UNL     1      44.561   4.351  10.626  0.00  0.00    +0.000 C 
ATOM     17  C   UNL     1      44.692   2.809  10.598  0.00  0.00    +0.000 C 
ATOM     18  C   UNL     1      44.553   2.245   9.186  0.00  0.00    +0.000 C 
ATOM     19  C   UNL     1      45.557   2.870   8.229  0.00  0.00    +0.000 C 
ATOM     20  C   UNL     1      45.444   4.388   8.236  0.00  0.00    +0.000 C 
ATOM     21  C   UNL     1      45.589   4.962   9.648  0.00  0.00    +0.000 C 
ENDBRANCH  14  16
ENDBRANCH  12  14
ENDBRANCH   1  12
TORSDOF 4
ENDMDL
MODEL 6
REMARK VINA RESULT:    -5.485      3.223      5.580
REMARK INTER + INTRA:          -7.088
REMARK INTER:                  -6.754
REMARK INTRA:                  -0.334
REMARK UNBOUND:                -0.320
REMARK  Name = 
REMARK  6 active torsions:
REMARK  status: ('A' for Active; 'I' for Inactive)
REMARK    1  A    between atoms: C_1  and  C_2
REMARK    2  A    between atoms: C_2  and  C_3
REMARK    3  A    between atoms: C_2  and  O_4
REMARK    4  A    between atoms: C_2  and  C_14
REMARK    5  A    between atoms: O_4  and  C_5
REMARK    6  A    between atoms: C_8  and  C_9
REMARK                            x       y       z     vdW  Elec       q    Type
REMARK                         _______ _______ _______ _____ _____    ______ ____
ROOT
ATOM      1  C   UNL     1      45.684   6.636  12.431  0.00  0.00    +0.000 A 
ATOM      2  C   UNL     1      45.427   6.436  11.079  0.00  0.00    +0.000 A 
ATOM      3  C   UNL     1      44.897   5.228  10.631  0.00  0.00    +0.000 A 
ATOM      4  C   UNL     1      44.581   4.261  11.572  0.00  0.00    +0.000 A 
ATOM      5  N   UNL     1      44.737   4.434  12.916  0.00  0.00    +0.000 NA
ATOM      6  C   UNL     1      45.279   5.624  13.301  0.00  0.00    +0.000 A 
ENDROOT
BRANCH   4   7
ATOM      7  C   UNL     1      44.052   2.942  11.095  0.00  0.00    +0.000 C 
ATOM      8  N   UNL     1      44.761   2.346  10.088  0.00  0.00    +0.000 N 
ATOM      9  O   UNL     1      43.047   2.427  11.565  0.00  0.00    +0.000 OA
ATOM     10  H   UNL     1      45.584   2.804   9.712  0.00  0.00    +0.000 HD
ATOM     11  H   UNL     1      44.442   1.464   9.711  0.00  0.00    +0.000 HD
ENDBRANCH   4   7
BRANCH   1  12
ATOM     12  O   UNL     1      46.283   7.732  12.981  0.00  0.00    +0.000 OA
BRANCH  12  14
ATOM     13  C   UNL     1      48.156   7.720  14.658  0.00  0.00    +0.000 C 
ATOM     14  C   UNL     1      47.720   7.792  13.172  0.00  0.00    +0.000 C 
ATOM     15  C   UNL     1      48.391   6.660  12.367  0.00  0.00    +0.000 C 
BRANCH  14  16
ATOM     16  C   UNL     1      48.215   9.192  12.617  0.00  0.00    +0.000 C 
ATOM     17  C   UNL     1      47.053  10.039  12.046  0.00  0.00    +0.000 C 
ATOM     18  C   UNL     1      47.518  11.419  11.585  0.00  0.00    +0.000 C 
ATOM     19  C   UNL     1      48.642  11.322  10.564  0.00  0.00    +0.000 C 
ATOM     20  C   UNL     1      49.799  10.495  11.105  0.00  0.00    +0.000 C 
ATOM     21  C   UNL     1      49.342   9.108  11.563  0.00  0.00    +0.000 C 
ENDBRANCH  14  16
ENDBRANCH  12  14
ENDBRANCH   1  12
TORSDOF 4
ENDMDL
MODEL 7
REMARK VINA RESULT:    -5.479      3.289      5.413
REMARK INTER + INTRA:          -7.080
REMARK INTER:                  -6.583
REMARK INTRA:                  -0.497
REMARK UNBOUND:                -0.320
REMARK  Name = 
REMARK  6 active torsions:
REMARK  status: ('A' for Active; 'I' for Inactive)
REMARK    1  A    between atoms: C_1  and  C_2
REMARK    2  A    between atoms: C_2  and  C_3
REMARK    3  A    between atoms: C_2  and  O_4
REMARK    4  A    between atoms: C_2  and  C_14
REMARK    5  A    between atoms: O_4  and  C_5
REMARK    6  A    between atoms: C_8  and  C_9
REMARK                            x       y       z     vdW  Elec       q    Type
REMARK                         _______ _______ _______ _____ _____    ______ ____
ROOT
ATOM      1  C   UNL     1      45.570   6.549  12.520  0.00  0.00    +0.000 A 
ATOM      2  C   UNL     1      45.728   5.382  13.260  0.00  0.00    +0.000 A 
ATOM      3  C   UNL     1      45.205   4.176  12.799  0.00  0.00    +0.000 A 
ATOM      4  C   UNL     1      44.577   4.162  11.564  0.00  0.00    +0.000 A 
ATOM      5  N   UNL     1      44.465   5.258  10.760  0.00  0.00    +0.000 NA
ATOM      6  C   UNL     1      44.974   6.417  11.266  0.00  0.00    +0.000 A 
ENDROOT
BRANCH   4   7
ATOM      7  C   UNL     1      43.972   2.878  11.081  0.00  0.00    +0.000 C 
ATOM      8  N   UNL     1      44.578   2.307   9.996  0.00  0.00    +0.000 N 
ATOM      9  O   UNL     1      42.994   2.371  11.612  0.00  0.00    +0.000 OA
ATOM     10  H   UNL     1      45.380   2.758   9.571  0.00  0.00    +0.000 HD
ATOM     11  H   UNL     1      44.203   1.450   9.612  0.00  0.00    +0.000 HD
ENDBRANCH   4   7
BRANCH   1  12
ATOM     12  O   UNL     1      45.954   7.801  12.903  0.00  0.00    +0.000 OA
BRANCH  12  14
ATOM     13  C   UNL     1      48.158   7.428  11.753  0.00  0.00    +0.000 C 
ATOM     14  C   UNL     1      47.332   8.239  12.784  0.00  0.00    +0.000 C 
ATOM     15  C   UNL     1      47.363   9.738  12.426  0.00  0.00    +0.000 C 
BRANCH  14  16
ATOM     16  C   UNL     1      48.023   8.024  14.194  0.00  0.00    +0.000 C 
ATOM     17  C   UNL     1      48.289   9.362  14.925  0.00  0.00    +0.000 C 
ATOM     18  C   UNL     1      48.881   9.149  16.318  0.00  0.00    +0.000 C 
ATOM     19  C   UNL     1      50.156   8.321  16.267  0.00  0.00    +0.000 C 
ATOM     20  C   UNL     1      49.917   6.997  15.554  0.00  0.00    +0.000 C 
ATOM     21  C   UNL     1      49.330   7.202  14.156  0.00  0.00    +0.000 C 
ENDBRANCH  14  16
ENDBRANCH  12  14
ENDBRANCH   1  12
TORSDOF 4
ENDMDL
MODEL 8
REMARK VINA RESULT:    -5.425      4.977      7.764
REMARK INTER + INTRA:          -7.013
REMARK INTER:                  -6.518
REMARK INTRA:                  -0.496
REMARK UNBOUND:                -0.320
REMARK  Name = 
REMARK  6 active torsions:
REMARK  status: ('A' for Active; 'I' for Inactive)
REMARK    1  A    between atoms: C_1  and  C_2
REMARK    2  A    between atoms: C_2  and  C_3
REMARK    3  A    between atoms: C_2  and  O_4
REMARK    4  A    between atoms: C_2  and  C_14
REMARK    5  A    between atoms: O_4  and  C_5
REMARK    6  A    between atoms: C_8  and  C_9
REMARK                            x       y       z     vdW  Elec       q    Type
REMARK                         _______ _______ _______ _____ _____    ______ ____
ROOT
ATOM      1  C   UNL     1      47.979   5.511  14.656  0.00  0.00    +0.000 A 
ATOM      2  C   UNL     1      47.196   4.495  15.196  0.00  0.00    +0.000 A 
ATOM      3  C   UNL     1      47.214   4.241  16.566  0.00  0.00    +0.000 A 
ATOM      4  C   UNL     1      47.984   5.060  17.376  0.00  0.00    +0.000 A 
ATOM      5  N   UNL     1      48.706   6.120  16.910  0.00  0.00    +0.000 NA
ATOM      6  C   UNL     1      48.672   6.313  15.562  0.00  0.00    +0.000 A 
ENDROOT
BRANCH   4   7
ATOM      7  C   UNL     1      48.044   4.766  18.844  0.00  0.00    +0.000 C 
ATOM      8  N   UNL     1      48.388   3.485  19.180  0.00  0.00    +0.000 N 
ATOM      9  O   UNL     1      47.793   5.608  19.695  0.00  0.00    +0.000 OA
ATOM     10  H   UNL     1      48.579   2.807  18.450  0.00  0.00    +0.000 HD
ATOM     11  H   UNL     1      48.426   3.221  20.154  0.00  0.00    +0.000 HD
ENDBRANCH   4   7
BRANCH   1  12
ATOM     12  O   UNL     1      48.118   5.798  13.330  0.00  0.00    +0.000 OA
BRANCH  12  14
ATOM     13  C   UNL     1      46.559   7.763  13.500  0.00  0.00    +0.000 C 
ATOM     14  C   UNL     1      47.152   6.626  12.630  0.00  0.00    +0.000 C 
ATOM     15  C   UNL     1      47.806   7.214  11.363  0.00  0.00    +0.000 C 
BRANCH  14  16
ATOM     16  C   UNL     1      45.943   5.692  12.208  0.00  0.00    +0.000 C 
ATOM     17  C   UNL     1      45.691   5.714  10.682  0.00  0.00    +0.000 C 
ATOM     18  C   UNL     1      44.578   4.753  10.267  0.00  0.00    +0.000 C 
ATOM     19  C   UNL     1      43.283   5.038  11.013  0.00  0.00    +0.000 C 
ATOM     20  C   UNL     1      43.505   5.018  12.519  0.00  0.00    +0.000 C 
ATOM     21  C   UNL     1      44.615   5.983  12.942  0.00  0.00    +0.000 C 
ENDBRANCH  14  16
ENDBRANCH  12  14
ENDBRANCH   1  12
TORSDOF 4
ENDMDL
MODEL 9
REMARK VINA RESULT:    -5.305      3.789      6.161
REMARK INTER + INTRA:          -6.866
REMARK INTER:                  -6.384
REMARK INTRA:                  -0.482
REMARK UNBOUND:                -0.320
REMARK  Name = 
REMARK  6 active torsions:
REMARK  status: ('A' for Active; 'I' for Inactive)
REMARK    1  A    between atoms: C_1  and  C_2
REMARK    2  A    between atoms: C_2  and  C_3
REMARK    3  A    between atoms: C_2  and  O_4
REMARK    4  A    between atoms: C_2  and  C_14
REMARK    5  A    between atoms: O_4  and  C_5
REMARK    6  A    between atoms: C_8  and  C_9
REMARK                            x       y       z     vdW  Elec       q    Type
REMARK                         _______ _______ _______ _____ _____    ______ ____
ROOT
ATOM      1  C   UNL     1      47.143   5.887  12.679  0.00  0.00    +0.000 A 
ATOM      2  C   UNL     1      46.364   5.072  13.494  0.00  0.00    +0.000 A 
ATOM      3  C   UNL     1      45.045   4.783  13.152  0.00  0.00    +0.000 A 
ATOM      4  C   UNL     1      44.553   5.282  11.956  0.00  0.00    +0.000 A 
ATOM      5  N   UNL     1      45.296   6.018  11.081  0.00  0.00    +0.000 NA
ATOM      6  C   UNL     1      46.573   6.290  11.471  0.00  0.00    +0.000 A 
ENDROOT
BRANCH   4   7
ATOM      7  C   UNL     1      43.122   5.013  11.602  0.00  0.00    +0.000 C 
ATOM      8  N   UNL     1      42.276   6.085  11.692  0.00  0.00    +0.000 N 
ATOM      9  O   UNL     1      42.723   3.908  11.263  0.00  0.00    +0.000 OA
ATOM     10  H   UNL     1      42.635   6.987  11.987  0.00  0.00    +0.000 HD
ATOM     11  H   UNL     1      41.295   5.962  11.485  0.00  0.00    +0.000 HD
ENDBRANCH   4   7
BRANCH   1  12
ATOM     12  O   UNL     1      48.410   6.315  12.948  0.00  0.00    +0.000 OA
BRANCH  12  14
ATOM     13  C   UNL     1      47.405   8.398  13.934  0.00  0.00    +0.000 C 
ATOM     14  C   UNL     1      48.654   7.498  13.754  0.00  0.00    +0.000 C 
ATOM     15  C   UNL     1      49.204   7.073  15.130  0.00  0.00    +0.000 C 
BRANCH  14  16
ATOM     16  C   UNL     1      49.743   8.369  13.001  0.00  0.00    +0.000 C 
ATOM     17  C   UNL     1      49.264   9.820  12.755  0.00  0.00    +0.000 C 
ATOM     18  C   UNL     1      50.344  10.680  12.102  0.00  0.00    +0.000 C 
ATOM     19  C   UNL     1      50.840  10.068  10.801  0.00  0.00    +0.000 C 
ATOM     20  C   UNL     1      51.321   8.640  11.019  0.00  0.00    +0.000 C 
ATOM     21  C   UNL     1      50.242   7.770  11.667  0.00  0.00    +0.000 C 
ENDBRANCH  14  16
ENDBRANCH  12  14
ENDBRANCH   1  12
TORSDOF 4
ENDMDL
