MODEL 1
REMARK VINA RESULT:    -8.866      0.000      0.000
REMARK INTER + INTRA:         -12.192
REMARK INTER:                 -11.457
REMARK INTRA:                  -0.734
REMARK UNBOUND:                -0.734
REMARK  Name = 
REMARK  5 active torsions:
REMARK  status: ('A' for Active; 'I' for Inactive)
REMARK    1  A    between atoms: C_2  and  C_4
REMARK    2  A    between atoms: C_7  and  O_8
REMARK    3  A    between atoms: O_8  and  C_9
REMARK    4  A    between atoms: C_9  and  C_10
REMARK    5  A    between atoms: C_15  and  C_16
REMARK                            x       y       z     vdW  Elec       q    Type
REMARK                         _______ _______ _______ _____ _____    ______ ____
ROOT
ATOM      1  C   UNL     1      43.594   4.411  11.196  0.00  0.00    +0.000 C 
ENDROOT
BRANCH   1   2
ATOM      2  C   UNL     1      44.869   4.799  11.906  0.00  0.00    +0.000 A 
ATOM      3  C   UNL     1      45.465   3.930  12.823  0.00  0.00    +0.000 A 
ATOM      4  C   UNL     1      46.612   4.327  13.495  0.00  0.00    +0.000 A 
ATOM      5  F   UNL     1      47.175   3.495  14.382  0.00  0.00    +0.000 F 
ATOM      6  C   UNL     1      47.184   5.576  13.273  0.00  0.00    +0.000 A 
ATOM      7  C   UNL     1      46.611   6.483  12.365  0.00  0.00    +0.000 A 
ATOM      8  C   UNL     1      45.444   6.066  11.693  0.00  0.00    +0.000 A 
BRANCH   7   9
ATOM      9  C   UNL     1      47.198   7.821  12.133  0.00  0.00    +0.000 A 
ATOM     10  C   UNL     1      48.541   7.998  11.766  0.00  0.00    +0.000 A 
ATOM     11  C   UNL     1      49.062   9.274  11.553  0.00  0.00    +0.000 A 
ATOM     12  C   UNL     1      48.226  10.362  11.723  0.00  0.00    +0.000 A 
ATOM     13  N   UNL     1      46.932  10.255  12.077  0.00  0.00    +0.000 NA
ATOM     14  C   UNL     1      46.455   8.998  12.266  0.00  0.00    +0.000 A 
ENDBRANCH   7   9
ENDBRANCH   1   2
BRANCH   1  15
ATOM     15  O   UNL     1      43.693   4.750   9.810  0.00  0.00    +0.000 OA
BRANCH  15  19
ATOM     16  C   UNL     1      46.318   2.260   7.840  0.00  0.00    +0.000 A 
ATOM     17  C   UNL     1      45.416   1.722   8.762  0.00  0.00    +0.000 A 
ATOM     18  C   UNL     1      44.534   2.574   9.431  0.00  0.00    +0.000 A 
ATOM     19  C   UNL     1      44.588   3.932   9.150  0.00  0.00    +0.000 A 
ATOM     20  N   UNL     1      45.461   4.478   8.276  0.00  0.00    +0.000 NA
ATOM     21  C   UNL     1      46.312   3.634   7.649  0.00  0.00    +0.000 A 
BRANCH  16  23
ATOM     22  N   UNL     1      48.368   2.104   6.549  0.00  0.00    +0.000 N 
ATOM     23  C   UNL     1      47.283   1.454   7.069  0.00  0.00    +0.000 C 
ATOM     24  O   UNL     1      47.150   0.246   6.943  0.00  0.00    +0.000 OA
ATOM     25  H   UNL     1      49.081   1.516   6.136  0.00  0.00    +0.000 HD
ATOM     26  H   UNL     1      48.643   3.029   6.849  0.00  0.00    +0.000 HD
ENDBRANCH  16  23
ENDBRANCH  15  19
ENDBRANCH   1  15
TORSDOF 5
ENDMDL
MODEL 2
REMARK VINA RESULT:    -8.574      2.316      3.617
REMARK INTER + INTRA:         -11.815
REMARK INTER:                 -10.991
REMARK INTRA:                  -0.824
REMARK UNBOUND:                -0.734
REMARK  Name = 
REMARK  5 active torsions:
REMARK  status: ('A' for Active; 'I' for Inactive)
REMARK    1  A    between atoms: C_2  and  C_4
REMARK    2  A    between atoms: C_7  and  O_8
REMARK    3  A    between atoms: O_8  and  C_9
REMARK    4  A    between atoms: C_9  and  C_10
REMARK    5  A    between atoms: C_15  and  C_16
REMARK                            x       y       z     vdW  Elec       q    Type
REMARK                         _______ _______ _______ _____ _____    ______ ____
ROOT
ATOM      1  C   UNL     1      43.776   4.368  11.297  0.00  0.00    +0.000 C 
ENDROOT
BRANCH   1   2
ATOM      2  C   UNL     1      44.799   5.245  11.978  0.00  0.00    +0.000 A 
ATOM      3  C   UNL     1      45.063   6.530  11.500  0.00  0.00    +0.000 A 
ATOM      4  C   UNL     1      46.039   7.301  12.115  0.00  0.00    +0.000 A 
ATOM      5  F   UNL     1      46.298   8.530  11.647  0.00  0.00    +0.000 F 
ATOM      6  C   UNL     1      46.760   6.820  13.204  0.00  0.00    +0.000 A 
ATOM      7  C   UNL     1      46.531   5.529  13.710  0.00  0.00    +0.000 A 
ATOM      8  C   UNL     1      45.539   4.757  13.071  0.00  0.00    +0.000 A 
BRANCH   7   9
ATOM      9  C   UNL     1      47.303   4.998  14.854  0.00  0.00    +0.000 A 
ATOM     10  C   UNL     1      47.094   3.709  15.368  0.00  0.00    +0.000 A 
ATOM     11  C   UNL     1      47.842   3.239  16.448  0.00  0.00    +0.000 A 
ATOM     12  C   UNL     1      48.787   4.079  17.008  0.00  0.00    +0.000 A 
ATOM     13  N   UNL     1      49.029   5.326  16.561  0.00  0.00    +0.000 NA
ATOM     14  C   UNL     1      48.291   5.746  15.502  0.00  0.00    +0.000 A 
ENDBRANCH   7   9
ENDBRANCH   1   2
BRANCH   1  15
ATOM     15  O   UNL     1      43.724   4.682   9.902  0.00  0.00    +0.000 OA
BRANCH  15  19
ATOM     16  C   UNL     1      46.435   2.448   7.750  0.00  0.00    +0.000 A 
ATOM     17  C   UNL     1      45.563   1.809   8.635  0.00  0.00    +0.000 A 
ATOM     18  C   UNL     1      44.652   2.575   9.367  0.00  0.00    +0.000 A 
ATOM     19  C   UNL     1      44.648   3.950   9.182  0.00  0.00    +0.000 A 
ATOM     20  N   UNL     1      45.491   4.592   8.345  0.00  0.00    +0.000 NA
ATOM     21  C   UNL     1      46.372   3.831   7.657  0.00  0.00    +0.000 A 
BRANCH  16  23
ATOM     22  N   UNL     1      48.411   2.491   6.340  0.00  0.00    +0.000 N 
ATOM     23  C   UNL     1      47.428   1.739   6.920  0.00  0.00    +0.000 C 
ATOM     24  O   UNL     1      47.405   0.523   6.797  0.00  0.00    +0.000 OA
ATOM     25  H   UNL     1      49.152   1.974   5.883  0.00  0.00    +0.000 HD
ATOM     26  H   UNL     1      48.612   3.439   6.627  0.00  0.00    +0.000 HD
ENDBRANCH  16  23
ENDBRANCH  15  19
ENDBRANCH   1  15
TORSDOF 5
ENDMDL
MODEL 3
REMARK VINA RESULT:    -8.496      2.201      2.700
REMARK INTER + INTRA:         -11.713
REMARK INTER:                 -10.944
REMARK INTRA:                  -0.769
REMARK UNBOUND:                -0.734
REMARK  Name = 
REMARK  5 active torsions:
REMARK  status: ('A' for Active; 'I' for Inactive)
REMARK    1  A    between atoms: C_2  and  C_4
REMARK    2  A    between atoms: C_7  and  O_8
REMARK    3  A    between atoms: O_8  and  C_9
REMARK    4  A    between atoms: C_9  and  C_10
REMARK    5  A    between atoms: C_15  and  C_16
REMARK                            x       y       z     vdW  Elec       q    Type
REMARK                         _______ _______ _______ _____ _____    ______ ____
ROOT
ATOM      1  C   UNL     1      44.120   3.252  11.522  0.00  0.00    +0.000 C 
ENDROOT
BRANCH   1   2
ATOM      2  C   UNL     1      44.439   4.724  11.634  0.00  0.00    +0.000 A 
ATOM      3  C   UNL     1      43.480   5.686  11.311  0.00  0.00    +0.000 A 
ATOM      4  C   UNL     1      43.811   7.031  11.380  0.00  0.00    +0.000 A 
ATOM      5  F   UNL     1      42.892   7.951  11.058  0.00  0.00    +0.000 F 
ATOM      6  C   UNL     1      45.082   7.444  11.768  0.00  0.00    +0.000 A 
ATOM      7  C   UNL     1      46.079   6.508  12.093  0.00  0.00    +0.000 A 
ATOM      8  C   UNL     1      45.727   5.145  12.014  0.00  0.00    +0.000 A 
BRANCH   7   9
ATOM      9  C   UNL     1      47.439   6.932  12.489  0.00  0.00    +0.000 A 
ATOM     10  C   UNL     1      48.195   7.836  11.729  0.00  0.00    +0.000 A 
ATOM     11  C   UNL     1      49.475   8.217  12.133  0.00  0.00    +0.000 A 
ATOM     12  C   UNL     1      49.986   7.671  13.297  0.00  0.00    +0.000 A 
ATOM     13  N   UNL     1      49.310   6.797  14.065  0.00  0.00    +0.000 NA
ATOM     14  C   UNL     1      48.063   6.457  13.647  0.00  0.00    +0.000 A 
ENDBRANCH   7   9
ENDBRANCH   1   2
BRANCH   1  15
ATOM     15  O   UNL     1      43.562   2.978  10.233  0.00  0.00    +0.000 OA
BRANCH  15  19
ATOM     16  C   UNL     1      46.519   2.540   7.398  0.00  0.00    +0.000 A 
ATOM     17  C   UNL     1      45.845   3.759   7.509  0.00  0.00    +0.000 A 
ATOM     18  C   UNL     1      44.838   3.897   8.468  0.00  0.00    +0.000 A 
ATOM     19  C   UNL     1      44.548   2.809   9.280  0.00  0.00    +0.000 A 
ATOM     20  N   UNL     1      45.174   1.617   9.181  0.00  0.00    +0.000 NA
ATOM     21  C   UNL     1      46.136   1.505   8.238  0.00  0.00    +0.000 A 
BRANCH  16  23
ATOM     22  N   UNL     1      47.636   3.064   5.307  0.00  0.00    +0.000 N 
ATOM     23  C   UNL     1      47.604   2.287   6.431  0.00  0.00    +0.000 C 
ATOM     24  O   UNL     1      48.471   1.453   6.648  0.00  0.00    +0.000 OA
ATOM     25  H   UNL     1      48.456   2.964   4.722  0.00  0.00    +0.000 HD
ATOM     26  H   UNL     1      47.105   3.920   5.221  0.00  0.00    +0.000 HD
ENDBRANCH  16  23
ENDBRANCH  15  19
ENDBRANCH   1  15
TORSDOF 5
ENDMDL
MODEL 4
REMARK VINA RESULT:    -8.491      0.950      1.557
REMARK INTER + INTRA:         -11.707
REMARK INTER:                 -10.761
REMARK INTRA:                  -0.946
REMARK UNBOUND:                -0.734
REMARK  Name = 
REMARK  5 active torsions:
REMARK  status: ('A' for Active; 'I' for Inactive)
REMARK    1  A    between atoms: C_2  and  C_4
REMARK    2  A    between atoms: C_7  and  O_8
REMARK    3  A    between atoms: O_8  and  C_9
REMARK    4  A    between atoms: C_9  and  C_10
REMARK    5  A    between atoms: C_15  and  C_16
REMARK                            x       y       z     vdW  Elec       q    Type
REMARK                         _______ _______ _______ _____ _____    ______ ____
ROOT
ATOM      1  C   UNL     1      43.433   4.350  11.266  0.00  0.00    +0.000 C 
ENDROOT
BRANCH   1   2
ATOM      2  C   UNL     1      44.627   4.964  11.957  0.00  0.00    +0.000 A 
ATOM      3  C   UNL     1      45.409   4.208  12.833  0.00  0.00    +0.000 A 
ATOM      4  C   UNL     1      46.474   4.806  13.489  0.00  0.00    +0.000 A 
ATOM      5  F   UNL     1      47.215   4.081  14.337  0.00  0.00    +0.000 F 
ATOM      6  C   UNL     1      46.784   6.149  13.291  0.00  0.00    +0.000 A 
ATOM      7  C   UNL     1      46.016   6.948  12.425  0.00  0.00    +0.000 A 
ATOM      8  C   UNL     1      44.935   6.325  11.769  0.00  0.00    +0.000 A 
BRANCH   7   9
ATOM      9  C   UNL     1      46.322   8.380  12.219  0.00  0.00    +0.000 A 
ATOM     10  C   UNL     1      45.319   9.341  12.021  0.00  0.00    +0.000 A 
ATOM     11  C   UNL     1      45.643  10.685  11.831  0.00  0.00    +0.000 A 
ATOM     12  C   UNL     1      46.978  11.045  11.832  0.00  0.00    +0.000 A 
ATOM     13  N   UNL     1      47.984  10.168  12.013  0.00  0.00    +0.000 NA
ATOM     14  C   UNL     1      47.631   8.871  12.205  0.00  0.00    +0.000 A 
ENDBRANCH   7   9
ENDBRANCH   1   2
BRANCH   1  15
ATOM     15  O   UNL     1      43.506   4.608   9.861  0.00  0.00    +0.000 OA
BRANCH  15  19
ATOM     16  C   UNL     1      46.220   2.132   7.996  0.00  0.00    +0.000 A 
ATOM     17  C   UNL     1      46.244   3.504   7.734  0.00  0.00    +0.000 A 
ATOM     18  C   UNL     1      45.316   4.335   8.365  0.00  0.00    +0.000 A 
ATOM     19  C   UNL     1      44.400   3.761   9.235  0.00  0.00    +0.000 A 
ATOM     20  N   UNL     1      44.346   2.437   9.492  0.00  0.00    +0.000 NA
ATOM     21  C   UNL     1      45.247   1.651   8.861  0.00  0.00    +0.000 A 
BRANCH  16  23
ATOM     22  N   UNL     1      48.160   1.665   6.613  0.00  0.00    +0.000 N 
ATOM     23  C   UNL     1      47.158   1.164   7.397  0.00  0.00    +0.000 C 
ATOM     24  O   UNL     1      47.078  -0.033   7.632  0.00  0.00    +0.000 OA
ATOM     25  H   UNL     1      48.865   1.002   6.318  0.00  0.00    +0.000 HD
ATOM     26  H   UNL     1      48.411   2.644   6.610  0.00  0.00    +0.000 HD
ENDBRANCH  16  23
ENDBRANCH  15  19
ENDBRANCH   1  15
TORSDOF 5
ENDMDL
MODEL 5
REMARK VINA RESULT:    -7.852      2.897      7.016
REMARK INTER + INTRA:         -10.881
REMARK INTER:                 -10.136
REMARK INTRA:                  -0.745
REMARK UNBOUND:                -0.734
REMARK  Name = 
REMARK  5 active torsions:
REMARK  status: ('A' for Active; 'I' for Inactive)
REMARK    1  A    between atoms: C_2  and  C_4
REMARK    2  A    between atoms: C_7  and  O_8
REMARK    3  A    between atoms: O_8  and  C_9
REMARK    4  A    between atoms: C_9  and  C_10
REMARK    5  A    between atoms: C_15  and  C_16
REMARK                            x       y       z     vdW  Elec       q    Type
REMARK                         _______ _______ _______ _____ _____    ______ ____
ROOT
ATOM      1  C   UNL     1      44.563   6.612  10.975  0.00  0.00    +0.000 C 
ENDROOT
BRANCH   1   2
ATOM      2  C   UNL     1      44.464   5.154  10.596  0.00  0.00    +0.000 A 
ATOM      3  C   UNL     1      43.674   4.277  11.342  0.00  0.00    +0.000 A 
ATOM      4  C   UNL     1      43.634   2.933  11.001  0.00  0.00    +0.000 A 
ATOM      5  F   UNL     1      42.884   2.093  11.726  0.00  0.00    +0.000 F 
ATOM      6  C   UNL     1      44.366   2.439   9.925  0.00  0.00    +0.000 A 
ATOM      7  C   UNL     1      45.181   3.286   9.154  0.00  0.00    +0.000 A 
ATOM      8  C   UNL     1      45.212   4.648   9.516  0.00  0.00    +0.000 A 
BRANCH   7   9
ATOM      9  C   UNL     1      45.977   2.771   8.019  0.00  0.00    +0.000 A 
ATOM     10  C   UNL     1      46.297   3.563   6.906  0.00  0.00    +0.000 A 
ATOM     11  C   UNL     1      47.052   3.045   5.853  0.00  0.00    +0.000 A 
ATOM     12  C   UNL     1      47.469   1.729   5.928  0.00  0.00    +0.000 A 
ATOM     13  N   UNL     1      47.190   0.921   6.968  0.00  0.00    +0.000 NA
ATOM     14  C   UNL     1      46.462   1.460   7.979  0.00  0.00    +0.000 A 
ENDBRANCH   7   9
ENDBRANCH   1   2
BRANCH   1  15
ATOM     15  O   UNL     1      44.521   6.743  12.400  0.00  0.00    +0.000 OA
BRANCH  15  19
ATOM     16  C   UNL     1      48.294   7.023  14.031  0.00  0.00    +0.000 A 
ATOM     17  C   UNL     1      47.717   8.144  13.429  0.00  0.00    +0.000 A 
ATOM     18  C   UNL     1      46.441   8.038  12.871  0.00  0.00    +0.000 A 
ATOM     19  C   UNL     1      45.790   6.815  12.940  0.00  0.00    +0.000 A 
ATOM     20  N   UNL     1      46.332   5.713  13.503  0.00  0.00    +0.000 NA
ATOM     21  C   UNL     1      47.573   5.837  14.025  0.00  0.00    +0.000 A 
BRANCH  16  23
ATOM     22  N   UNL     1      50.611   7.745  14.044  0.00  0.00    +0.000 N 
ATOM     23  C   UNL     1      49.628   7.022  14.660  0.00  0.00    +0.000 C 
ATOM     24  O   UNL     1      49.835   6.444  15.717  0.00  0.00    +0.000 OA
ATOM     25  H   UNL     1      51.480   7.838  14.556  0.00  0.00    +0.000 HD
ATOM     26  H   UNL     1      50.415   8.434  13.332  0.00  0.00    +0.000 HD
ENDBRANCH  16  23
ENDBRANCH  15  19
ENDBRANCH   1  15
TORSDOF 5
ENDMDL
MODEL 6
REMARK VINA RESULT:    -7.520      3.539      7.158
REMARK INTER + INTRA:         -10.453
REMARK INTER:                  -9.975
REMARK INTRA:                  -0.478
REMARK UNBOUND:                -0.734
REMARK  Name = 
REMARK  5 active torsions:
REMARK  status: ('A' for Active; 'I' for Inactive)
REMARK    1  A    between atoms: C_2  and  C_4
REMARK    2  A    between atoms: C_7  and  O_8
REMARK    3  A    between atoms: O_8  and  C_9
REMARK    4  A    between atoms: C_9  and  C_10
REMARK    5  A    between atoms: C_15  and  C_16
REMARK                            x       y       z     vdW  Elec       q    Type
REMARK                         _______ _______ _______ _____ _____    ______ ____
ROOT
ATOM      1  C   UNL     1      46.333   7.250  12.128  0.00  0.00    +0.000 C 
ENDROOT
BRANCH   1   2
ATOM      2  C   UNL     1      45.403   6.294  11.420  0.00  0.00    +0.000 A 
ATOM      3  C   UNL     1      44.040   6.272  11.724  0.00  0.00    +0.000 A 
ATOM      4  C   UNL     1      43.213   5.356  11.092  0.00  0.00    +0.000 A 
ATOM      5  F   UNL     1      41.908   5.330  11.394  0.00  0.00    +0.000 F 
ATOM      6  C   UNL     1      43.714   4.455  10.156  0.00  0.00    +0.000 A 
ATOM      7  C   UNL     1      45.081   4.439   9.828  0.00  0.00    +0.000 A 
ATOM      8  C   UNL     1      45.908   5.375  10.482  0.00  0.00    +0.000 A 
BRANCH   7   9
ATOM      9  C   UNL     1      45.630   3.476   8.849  0.00  0.00    +0.000 A 
ATOM     10  C   UNL     1      46.238   3.886   7.653  0.00  0.00    +0.000 A 
ATOM     11  C   UNL     1      46.747   2.950   6.752  0.00  0.00    +0.000 A 
ATOM     12  C   UNL     1      46.628   1.607   7.061  0.00  0.00    +0.000 A 
ATOM     13  N   UNL     1      46.052   1.154   8.190  0.00  0.00    +0.000 NA
ATOM     14  C   UNL     1      45.577   2.093   9.049  0.00  0.00    +0.000 A 
ENDBRANCH   7   9
ENDBRANCH   1   2
BRANCH   1  15
ATOM     15  O   UNL     1      47.597   6.616  12.349  0.00  0.00    +0.000 OA
BRANCH  15  19
ATOM     16  C   UNL     1      47.641   4.600  15.941  0.00  0.00    +0.000 A 
ATOM     17  C   UNL     1      48.200   5.878  15.860  0.00  0.00    +0.000 A 
ATOM     18  C   UNL     1      48.187   6.552  14.637  0.00  0.00    +0.000 A 
ATOM     19  C   UNL     1      47.614   5.921  13.542  0.00  0.00    +0.000 A 
ATOM     20  N   UNL     1      47.082   4.680  13.591  0.00  0.00    +0.000 NA
ATOM     21  C   UNL     1      47.116   4.044  14.783  0.00  0.00    +0.000 A 
BRANCH  16  23
ATOM     22  N   UNL     1      48.609   3.968  18.076  0.00  0.00    +0.000 N 
ATOM     23  C   UNL     1      47.588   3.803  17.182  0.00  0.00    +0.000 C 
ATOM     24  O   UNL     1      46.646   3.064  17.426  0.00  0.00    +0.000 OA
ATOM     25  H   UNL     1      48.490   3.513  18.973  0.00  0.00    +0.000 HD
ATOM     26  H   UNL     1      49.252   4.746  18.031  0.00  0.00    +0.000 HD
ENDBRANCH  16  23
ENDBRANCH  15  19
ENDBRANCH   1  15
TORSDOF 5
ENDMDL
MODEL 7
REMARK VINA RESULT:    -7.267      4.204      7.635
REMARK INTER + INTRA:         -10.125
REMARK INTER:                  -9.415
REMARK INTRA:                  -0.710
REMARK UNBOUND:                -0.734
REMARK  Name = 
REMARK  5 active torsions:
REMARK  status: ('A' for Active; 'I' for Inactive)
REMARK    1  A    between atoms: C_2  and  C_4
REMARK    2  A    between atoms: C_7  and  O_8
REMARK    3  A    between atoms: O_8  and  C_9
REMARK    4  A    between atoms: C_9  and  C_10
REMARK    5  A    between atoms: C_15  and  C_16
REMARK                            x       y       z     vdW  Elec       q    Type
REMARK                         _______ _______ _______ _____ _____    ______ ____
ROOT
ATOM      1  C   UNL     1      46.256   6.503  13.351  0.00  0.00    +0.000 C 
ENDROOT
BRANCH   1   2
ATOM      2  C   UNL     1      45.303   5.907  12.343  0.00  0.00    +0.000 A 
ATOM      3  C   UNL     1      43.922   6.010  12.523  0.00  0.00    +0.000 A 
ATOM      4  C   UNL     1      43.067   5.417  11.607  0.00  0.00    +0.000 A 
ATOM      5  F   UNL     1      41.742   5.507  11.789  0.00  0.00    +0.000 F 
ATOM      6  C   UNL     1      43.557   4.722  10.505  0.00  0.00    +0.000 A 
ATOM      7  C   UNL     1      44.940   4.588  10.291  0.00  0.00    +0.000 A 
ATOM      8  C   UNL     1      45.795   5.194  11.234  0.00  0.00    +0.000 A 
BRANCH   7   9
ATOM      9  C   UNL     1      45.475   3.837   9.135  0.00  0.00    +0.000 A 
ATOM     10  C   UNL     1      45.524   2.435   9.107  0.00  0.00    +0.000 A 
ATOM     11  C   UNL     1      46.034   1.758   7.999  0.00  0.00    +0.000 A 
ATOM     12  C   UNL     1      46.500   2.503   6.932  0.00  0.00    +0.000 A 
ATOM     13  N   UNL     1      46.483   3.849   6.902  0.00  0.00    +0.000 NA
ATOM     14  C   UNL     1      45.971   4.474   7.993  0.00  0.00    +0.000 A 
ENDBRANCH   7   9
ENDBRANCH   1   2
BRANCH   1  15
ATOM     15  O   UNL     1      47.426   5.684  13.449  0.00  0.00    +0.000 OA
BRANCH  15  19
ATOM     16  C   UNL     1      48.267   4.658  17.350  0.00  0.00    +0.000 A 
ATOM     17  C   UNL     1      47.343   3.904  16.622  0.00  0.00    +0.000 A 
ATOM     18  C   UNL     1      47.058   4.264  15.302  0.00  0.00    +0.000 A 
ATOM     19  C   UNL     1      47.711   5.362  14.762  0.00  0.00    +0.000 A 
ATOM     20  N   UNL     1      48.596   6.116  15.449  0.00  0.00    +0.000 NA
ATOM     21  C   UNL     1      48.847   5.755  16.728  0.00  0.00    +0.000 A 
BRANCH  16  23
ATOM     22  N   UNL     1      48.305   3.140  19.244  0.00  0.00    +0.000 N 
ATOM     23  C   UNL     1      48.653   4.364  18.743  0.00  0.00    +0.000 C 
ATOM     24  O   UNL     1      49.303   5.158  19.407  0.00  0.00    +0.000 OA
ATOM     25  H   UNL     1      48.688   2.909  20.152  0.00  0.00    +0.000 HD
ATOM     26  H   UNL     1      48.007   2.375  18.655  0.00  0.00    +0.000 HD
ENDBRANCH  16  23
ENDBRANCH  15  19
ENDBRANCH   1  15
TORSDOF 5
ENDMDL
MODEL 8
REMARK VINA RESULT:    -6.850      5.470      7.855
REMARK INTER + INTRA:          -9.587
REMARK INTER:                  -8.818
REMARK INTRA:                  -0.769
REMARK UNBOUND:                -0.734
REMARK  Name = 
REMARK  5 active torsions:
REMARK  status: ('A' for Active; 'I' for Inactive)
REMARK    1  A    between atoms: C_2  and  C_4
REMARK    2  A    between atoms: C_7  and  O_8
REMARK    3  A    between atoms: O_8  and  C_9
REMARK    4  A    between atoms: C_9  and  C_10
REMARK    5  A    between atoms: C_15  and  C_16
REMARK                            x       y       z     vdW  Elec       q    Type
REMARK                         _______ _______ _______ _____ _____    ______ ____
ROOT
ATOM      1  C   UNL     1      48.667   6.353  15.890  0.00  0.00    +0.000 C 
ENDROOT
BRANCH   1   2
ATOM      2  C   UNL     1      48.231   6.434  14.447  0.00  0.00    +0.000 A 
ATOM      3  C   UNL     1      48.923   7.236  13.538  0.00  0.00    +0.000 A 
ATOM      4  C   UNL     1      48.477   7.328  12.228  0.00  0.00    +0.000 A 
ATOM      5  F   UNL     1      49.138   8.108  11.361  0.00  0.00    +0.000 F 
ATOM      6  C   UNL     1      47.351   6.633  11.797  0.00  0.00    +0.000 A 
ATOM      7  C   UNL     1      46.620   5.821  12.682  0.00  0.00    +0.000 A 
ATOM      8  C   UNL     1      47.085   5.742  14.011  0.00  0.00    +0.000 A 
BRANCH   7   9
ATOM      9  C   UNL     1      45.411   5.091  12.243  0.00  0.00    +0.000 A 
ATOM     10  C   UNL     1      45.179   3.750  12.583  0.00  0.00    +0.000 A 
ATOM     11  C   UNL     1      44.026   3.092  12.153  0.00  0.00    +0.000 A 
ATOM     12  C   UNL     1      43.122   3.791  11.374  0.00  0.00    +0.000 A 
ATOM     13  N   UNL     1      43.292   5.076  11.013  0.00  0.00    +0.000 NA
ATOM     14  C   UNL     1      44.420   5.688  11.458  0.00  0.00    +0.000 A 
ENDBRANCH   7   9
ENDBRANCH   1   2
BRANCH   1  15
ATOM     15  O   UNL     1      48.117   5.179  16.494  0.00  0.00    +0.000 OA
BRANCH  15  19
ATOM     16  C   UNL     1      51.060   2.451  17.427  0.00  0.00    +0.000 A 
ATOM     17  C   UNL     1      51.259   3.805  17.709  0.00  0.00    +0.000 A 
ATOM     18  C   UNL     1      50.259   4.724  17.383  0.00  0.00    +0.000 A 
ATOM     19  C   UNL     1      49.098   4.252  16.789  0.00  0.00    +0.000 A 
ATOM     20  N   UNL     1      48.888   2.952  16.492  0.00  0.00    +0.000 NA
ATOM     21  C   UNL     1      49.874   2.083  16.807  0.00  0.00    +0.000 A 
BRANCH  16  23
ATOM     22  N   UNL     1      51.550   0.184  18.145  0.00  0.00    +0.000 N 
ATOM     23  C   UNL     1      52.040   1.394  17.739  0.00  0.00    +0.000 C 
ATOM     24  O   UNL     1      53.240   1.573  17.590  0.00  0.00    +0.000 OA
ATOM     25  H   UNL     1      52.228  -0.563  18.229  0.00  0.00    +0.000 HD
ATOM     26  H   UNL     1      50.581  -0.077  18.028  0.00  0.00    +0.000 HD
ENDBRANCH  16  23
ENDBRANCH  15  19
ENDBRANCH   1  15
TORSDOF 5
ENDMDL
MODEL 9
REMARK VINA RESULT:    -6.770      4.835      8.258
REMARK INTER + INTRA:          -9.484
REMARK INTER:                  -8.813
REMARK INTRA:                  -0.670
REMARK UNBOUND:                -0.734
REMARK  Name = 
REMARK  5 active torsions:
REMARK  status: ('A' for Active; 'I' for Inactive)
REMARK    1  A    between atoms: C_2  and  C_4
REMARK    2  A    between atoms: C_7  and  O_8
REMARK    3  A    between atoms: O_8  and  C_9
REMARK    4  A    between atoms: C_9  and  C_10
REMARK    5  A    between atoms: C_15  and  C_16
REMARK                            x       y       z     vdW  Elec       q    Type
REMARK                         _______ _______ _______ _____ _____    ______ ____
ROOT
ATOM      1  C   UNL     1      48.218   7.024  14.151  0.00  0.00    +0.000 C 
ENDROOT
BRANCH   1   2
ATOM      2  C   UNL     1      47.087   7.193  13.165  0.00  0.00    +0.000 A 
ATOM      3  C   UNL     1      46.350   8.379  13.125  0.00  0.00    +0.000 A 
ATOM      4  C   UNL     1      45.288   8.495  12.241  0.00  0.00    +0.000 A 
ATOM      5  F   UNL     1      44.576   9.630  12.214  0.00  0.00    +0.000 F 
ATOM      6  C   UNL     1      44.940   7.452  11.388  0.00  0.00    +0.000 A 
ATOM      7  C   UNL     1      45.650   6.238  11.403  0.00  0.00    +0.000 A 
ATOM      8  C   UNL     1      46.725   6.136  12.310  0.00  0.00    +0.000 A 
BRANCH   7   9
ATOM      9  C   UNL     1      45.281   5.115  10.515  0.00  0.00    +0.000 A 
ATOM     10  C   UNL     1      45.679   5.058   9.171  0.00  0.00    +0.000 A 
ATOM     11  C   UNL     1      45.314   3.982   8.361  0.00  0.00    +0.000 A 
ATOM     12  C   UNL     1      44.540   2.977   8.913  0.00  0.00    +0.000 A 
ATOM     13  N   UNL     1      44.125   2.979  10.193  0.00  0.00    +0.000 NA
ATOM     14  C   UNL     1      44.508   4.036  10.955  0.00  0.00    +0.000 A 
ENDBRANCH   7   9
ENDBRANCH   1   2
BRANCH   1  15
ATOM     15  O   UNL     1      48.293   5.657  14.566  0.00  0.00    +0.000 OA
BRANCH  15  19
ATOM     16  C   UNL     1      48.252   5.250  18.666  0.00  0.00    +0.000 A 
ATOM     17  C   UNL     1      47.684   4.254  17.868  0.00  0.00    +0.000 A 
ATOM     18  C   UNL     1      47.695   4.403  16.479  0.00  0.00    +0.000 A 
ATOM     19  C   UNL     1      48.277   5.543  15.943  0.00  0.00    +0.000 A 
ATOM     20  N   UNL     1      48.818   6.527  16.693  0.00  0.00    +0.000 NA
ATOM     21  C   UNL     1      48.784   6.365  18.035  0.00  0.00    +0.000 A 
BRANCH  16  23
ATOM     22  N   UNL     1      48.539   3.971  20.710  0.00  0.00    +0.000 N 
ATOM     23  C   UNL     1      48.306   5.191  20.139  0.00  0.00    +0.000 C 
ATOM     24  O   UNL     1      48.200   6.200  20.822  0.00  0.00    +0.000 OA
ATOM     25  H   UNL     1      48.700   3.973  21.709  0.00  0.00    +0.000 HD
ATOM     26  H   UNL     1      48.886   3.182  20.183  0.00  0.00    +0.000 HD
ENDBRANCH  16  23
ENDBRANCH  15  19
ENDBRANCH   1  15
TORSDOF 5
ENDMDL
