MODEL 1
REMARK VINA RESULT:    -7.697      0.000      0.000
REMARK INTER + INTRA:         -10.732
REMARK INTER:                 -10.172
REMARK INTRA:                  -0.561
REMARK UNBOUND:                -0.561
REMARK  Name = 
REMARK  6 active torsions:
REMARK  status: ('A' for Active; 'I' for Inactive)
REMARK    1  A    between atoms: N_1  and  C_2
REMARK    2  A    between atoms: C_2  and  C_3
REMARK    3  A    between atoms: C_3  and  C_4
REMARK    4  A    between atoms: C_7  and  C_8
REMARK    5  A    between atoms: C_8  and  N_9
REMARK    6  A    between atoms: C_14  and  C_15
REMARK                            x       y       z     vdW  Elec       q    Type
REMARK                         _______ _______ _______ _____ _____    ______ ____
ROOT
ATOM      1  N   UNL     1      44.183   4.436  10.534  0.00  0.00    +0.000 N 
ATOM      2  C   UNL     1      43.580   3.315  11.042  0.00  0.00    +0.000 A 
ATOM      3  N   UNL     1      43.926   2.237  10.381  0.00  0.00    +0.000 NA
ATOM      4  C   UNL     1      44.800   2.672   9.421  0.00  0.00    +0.000 A 
ATOM      5  C   UNL     1      45.560   1.914   8.538  0.00  0.00    +0.000 A 
ATOM      6  C   UNL     1      46.403   2.634   7.708  0.00  0.00    +0.000 A 
ATOM      7  N   UNL     1      46.454   3.999   7.636  0.00  0.00    +0.000 NA
ATOM      8  C   UNL     1      45.687   4.731   8.487  0.00  0.00    +0.000 A 
ATOM      9  C   UNL     1      44.911   4.058   9.428  0.00  0.00    +0.000 A 
ENDROOT
BRANCH   6  10
ATOM     10  C   UNL     1      47.392   1.856   6.895  0.00  0.00    +0.000 C 
ATOM     11  N   UNL     1      48.494   2.533   6.452  0.00  0.00    +0.000 N 
ATOM     12  O   UNL     1      47.257   0.661   6.660  0.00  0.00    +0.000 OA
ATOM     13  H   UNL     1      48.625   3.510   6.696  0.00  0.00    +0.000 HD
ATOM     14  H   UNL     1      49.212   2.019   5.967  0.00  0.00    +0.000 HD
ENDBRANCH   6  10
BRANCH   1  15
ATOM     15  C   UNL     1      44.197   5.719  11.223  0.00  0.00    +0.000 C 
BRANCH  15  19
ATOM     16  C   UNL     1      47.868   6.587  13.237  0.00  0.00    +0.000 A 
ATOM     17  C   UNL     1      47.019   5.614  13.765  0.00  0.00    +0.000 A 
ATOM     18  C   UNL     1      45.837   5.282  13.099  0.00  0.00    +0.000 A 
ATOM     19  C   UNL     1      45.538   5.920  11.898  0.00  0.00    +0.000 A 
ATOM     20  N   UNL     1      46.379   6.826  11.338  0.00  0.00    +0.000 NA
ATOM     21  C   UNL     1      47.506   7.147  12.019  0.00  0.00    +0.000 A 
BRANCH  16  22
ATOM     22  C   UNL     1      49.115   7.026  13.958  0.00  0.00    +0.000 C 
BRANCH  22  23
ATOM     23  C   UNL     1      48.953   7.008  15.482  0.00  0.00    +0.000 C 
BRANCH  23  24
ATOM     24  N   UNL     1      49.845   6.023  16.092  0.00  0.00    +0.000 NA
ATOM     25  H   UNL     1      50.692   5.935  15.530  0.00  0.00    +0.000 HD
ATOM     26  H   UNL     1      49.406   5.104  16.087  0.00  0.00    +0.000 HD
ENDBRANCH  23  24
ENDBRANCH  22  23
ENDBRANCH  16  22
ENDBRANCH  15  19
ENDBRANCH   1  15
TORSDOF 6
ENDMDL
MODEL 2
REMARK VINA RESULT:    -7.684      2.657      6.586
REMARK INTER + INTRA:         -10.715
REMARK INTER:                 -10.365
REMARK INTRA:                  -0.350
REMARK UNBOUND:                -0.561
REMARK  Name = 
REMARK  6 active torsions:
REMARK  status: ('A' for Active; 'I' for Inactive)
REMARK    1  A    between atoms: N_1  and  C_2
REMARK    2  A    between atoms: C_2  and  C_3
REMARK    3  A    between atoms: C_3  and  C_4
REMARK    4  A    between atoms: C_7  and  C_8
REMARK    5  A    between atoms: C_8  and  N_9
REMARK    6  A    between atoms: C_14  and  C_15
REMARK                            x       y       z     vdW  Elec       q    Type
REMARK                         _______ _______ _______ _____ _____    ______ ____
ROOT
ATOM      1  N   UNL     1      44.041   5.005  11.886  0.00  0.00    +0.000 N 
ATOM      2  C   UNL     1      43.567   6.245  11.543  0.00  0.00    +0.000 A 
ATOM      3  N   UNL     1      44.390   7.197  11.912  0.00  0.00    +0.000 NA
ATOM      4  C   UNL     1      45.444   6.551  12.499  0.00  0.00    +0.000 A 
ATOM      5  C   UNL     1      46.646   7.088  12.944  0.00  0.00    +0.000 A 
ATOM      6  C   UNL     1      47.555   6.174  13.451  0.00  0.00    +0.000 A 
ATOM      7  N   UNL     1      47.309   4.841  13.631  0.00  0.00    +0.000 NA
ATOM      8  C   UNL     1      46.119   4.331  13.216  0.00  0.00    +0.000 A 
ATOM      9  C   UNL     1      45.215   5.182  12.585  0.00  0.00    +0.000 A 
ENDROOT
BRANCH   6  10
ATOM     10  C   UNL     1      48.938   6.673  13.742  0.00  0.00    +0.000 C 
ATOM     11  N   UNL     1      49.678   7.095  12.674  0.00  0.00    +0.000 N 
ATOM     12  O   UNL     1      49.387   6.742  14.880  0.00  0.00    +0.000 OA
ATOM     13  H   UNL     1      49.279   7.084  11.740  0.00  0.00    +0.000 HD
ATOM     14  H   UNL     1      50.583   7.505  12.846  0.00  0.00    +0.000 HD
ENDBRANCH   6  10
BRANCH   1  15
ATOM     15  C   UNL     1      43.479   3.763  11.374  0.00  0.00    +0.000 C 
BRANCH  15  19
ATOM     16  C   UNL     1      45.652   2.926   7.787  0.00  0.00    +0.000 A 
ATOM     17  C   UNL     1      45.492   1.914   8.734  0.00  0.00    +0.000 A 
ATOM     18  C   UNL     1      44.747   2.152   9.891  0.00  0.00    +0.000 A 
ATOM     19  C   UNL     1      44.155   3.400  10.068  0.00  0.00    +0.000 A 
ATOM     20  N   UNL     1      44.251   4.378   9.131  0.00  0.00    +0.000 NA
ATOM     21  C   UNL     1      45.001   4.128   8.031  0.00  0.00    +0.000 A 
BRANCH  16  22
ATOM     22  C   UNL     1      46.507   2.736   6.561  0.00  0.00    +0.000 C 
BRANCH  22  23
ATOM     23  C   UNL     1      47.796   1.960   6.854  0.00  0.00    +0.000 C 
BRANCH  23  24
ATOM     24  N   UNL     1      48.601   1.806   5.644  0.00  0.00    +0.000 NA
ATOM     25  H   UNL     1      48.831   0.823   5.509  0.00  0.00    +0.000 HD
ATOM     26  H   UNL     1      49.490   2.293   5.751  0.00  0.00    +0.000 HD
ENDBRANCH  23  24
ENDBRANCH  22  23
ENDBRANCH  16  22
ENDBRANCH  15  19
ENDBRANCH   1  15
TORSDOF 6
ENDMDL
MODEL 3
REMARK VINA RESULT:    -7.404      3.038      7.168
REMARK INTER + INTRA:         -10.345
REMARK INTER:                  -9.844
REMARK INTRA:                  -0.502
REMARK UNBOUND:                -0.561
REMARK  Name = 
REMARK  6 active torsions:
REMARK  status: ('A' for Active; 'I' for Inactive)
REMARK    1  A    between atoms: N_1  and  C_2
REMARK    2  A    between atoms: C_2  and  C_3
REMARK    3  A    between atoms: C_3  and  C_4
REMARK    4  A    between atoms: C_7  and  C_8
REMARK    5  A    between atoms: C_8  and  N_9
REMARK    6  A    between atoms: C_14  and  C_15
REMARK                            x       y       z     vdW  Elec       q    Type
REMARK                         _______ _______ _______ _____ _____    ______ ____
ROOT
ATOM      1  N   UNL     1      45.676   4.486  12.482  0.00  0.00    +0.000 N 
ATOM      2  C   UNL     1      46.138   3.458  13.261  0.00  0.00    +0.000 A 
ATOM      3  N   UNL     1      47.068   3.861  14.093  0.00  0.00    +0.000 NA
ATOM      4  C   UNL     1      47.199   5.203  13.858  0.00  0.00    +0.000 A 
ATOM      5  C   UNL     1      47.958   6.132  14.561  0.00  0.00    +0.000 A 
ATOM      6  C   UNL     1      47.853   7.442  14.122  0.00  0.00    +0.000 A 
ATOM      7  N   UNL     1      47.156   7.843  13.015  0.00  0.00    +0.000 NA
ATOM      8  C   UNL     1      46.440   6.921  12.319  0.00  0.00    +0.000 A 
ATOM      9  C   UNL     1      46.409   5.611  12.789  0.00  0.00    +0.000 A 
ENDROOT
BRANCH   6  10
ATOM     10  C   UNL     1      48.478   8.503  14.975  0.00  0.00    +0.000 C 
ATOM     11  N   UNL     1      47.640   9.214  15.787  0.00  0.00    +0.000 N 
ATOM     12  O   UNL     1      49.685   8.712  14.986  0.00  0.00    +0.000 OA
ATOM     13  H   UNL     1      46.648   8.998  15.811  0.00  0.00    +0.000 HD
ATOM     14  H   UNL     1      48.040   9.882  16.426  0.00  0.00    +0.000 HD
ENDBRANCH   6  10
BRANCH   1  15
ATOM     15  C   UNL     1      44.472   4.394  11.667  0.00  0.00    +0.000 C 
BRANCH  15  19
ATOM     16  C   UNL     1      45.830   3.137   7.812  0.00  0.00    +0.000 A 
ATOM     17  C   UNL     1      45.260   2.196   8.670  0.00  0.00    +0.000 A 
ATOM     18  C   UNL     1      44.767   2.593   9.914  0.00  0.00    +0.000 A 
ATOM     19  C   UNL     1      44.837   3.938  10.270  0.00  0.00    +0.000 A 
ATOM     20  N   UNL     1      45.336   4.877   9.426  0.00  0.00    +0.000 NA
ATOM     21  C   UNL     1      45.829   4.460   8.235  0.00  0.00    +0.000 A 
BRANCH  16  22
ATOM     22  C   UNL     1      46.438   2.741   6.492  0.00  0.00    +0.000 C 
BRANCH  22  23
ATOM     23  C   UNL     1      47.553   1.700   6.644  0.00  0.00    +0.000 C 
BRANCH  23  24
ATOM     24  N   UNL     1      48.568   1.865   5.606  0.00  0.00    +0.000 NA
ATOM     25  H   UNL     1      48.362   1.245   4.824  0.00  0.00    +0.000 HD
ATOM     26  H   UNL     1      49.480   1.579   5.960  0.00  0.00    +0.000 HD
ENDBRANCH  23  24
ENDBRANCH  22  23
ENDBRANCH  16  22
ENDBRANCH  15  19
ENDBRANCH   1  15
TORSDOF 6
ENDMDL
MODEL 4
REMARK VINA RESULT:    -5.801      4.010      6.633
REMARK INTER + INTRA:          -8.227
REMARK INTER:                  -7.704
REMARK INTRA:                  -0.522
REMARK UNBOUND:                -0.561
REMARK  Name = 
REMARK  6 active torsions:
REMARK  status: ('A' for Active; 'I' for Inactive)
REMARK    1  A    between atoms: N_1  and  C_2
REMARK    2  A    between atoms: C_2  and  C_3
REMARK    3  A    between atoms: C_3  and  C_4
REMARK    4  A    between atoms: C_7  and  C_8
REMARK    5  A    between atoms: C_8  and  N_9
REMARK    6  A    between atoms: C_14  and  C_15
REMARK                            x       y       z     vdW  Elec       q    Type
REMARK                         _______ _______ _______ _____ _____    ______ ____
ROOT
ATOM      1  N   UNL     1      48.305   5.907  15.458  0.00  0.00    +0.000 N 
ATOM      2  C   UNL     1      49.121   6.922  15.031  0.00  0.00    +0.000 A 
ATOM      3  N   UNL     1      48.867   7.260  13.789  0.00  0.00    +0.000 NA
ATOM      4  C   UNL     1      47.834   6.447  13.404  0.00  0.00    +0.000 A 
ATOM      5  C   UNL     1      47.100   6.486  12.224  0.00  0.00    +0.000 A 
ATOM      6  C   UNL     1      46.071   5.564  12.133  0.00  0.00    +0.000 A 
ATOM      7  N   UNL     1      45.810   4.587  13.054  0.00  0.00    +0.000 NA
ATOM      8  C   UNL     1      46.551   4.542  14.192  0.00  0.00    +0.000 A 
ATOM      9  C   UNL     1      47.520   5.523  14.393  0.00  0.00    +0.000 A 
ENDROOT
BRANCH   6  10
ATOM     10  C   UNL     1      45.122   5.708  10.982  0.00  0.00    +0.000 C 
ATOM     11  N   UNL     1      45.644   5.548   9.729  0.00  0.00    +0.000 N 
ATOM     12  O   UNL     1      43.925   5.919  11.137  0.00  0.00    +0.000 OA
ATOM     13  H   UNL     1      46.627   5.320   9.612  0.00  0.00    +0.000 HD
ATOM     14  H   UNL     1      45.018   5.565   8.940  0.00  0.00    +0.000 HD
ENDBRANCH   6  10
BRANCH   1  15
ATOM     15  C   UNL     1      48.179   5.515  16.854  0.00  0.00    +0.000 C 
BRANCH  15  19
ATOM     16  C   UNL     1      50.966   2.313  17.368  0.00  0.00    +0.000 A 
ATOM     17  C   UNL     1      51.326   3.597  17.778  0.00  0.00    +0.000 A 
ATOM     18  C   UNL     1      50.414   4.648  17.663  0.00  0.00    +0.000 A 
ATOM     19  C   UNL     1      49.144   4.387  17.155  0.00  0.00    +0.000 A 
ATOM     20  N   UNL     1      48.756   3.135  16.805  0.00  0.00    +0.000 NA
ATOM     21  C   UNL     1      49.669   2.138  16.904  0.00  0.00    +0.000 A 
BRANCH  16  22
ATOM     22  C   UNL     1      51.942   1.166  17.408  0.00  0.00    +0.000 C 
BRANCH  22  23
ATOM     23  C   UNL     1      53.358   1.608  17.791  0.00  0.00    +0.000 C 
BRANCH  23  24
ATOM     24  N   UNL     1      53.886   0.789  18.880  0.00  0.00    +0.000 NA
ATOM     25  H   UNL     1      54.763   0.357  18.589  0.00  0.00    +0.000 HD
ATOM     26  H   UNL     1      53.246   0.021  19.082  0.00  0.00    +0.000 HD
ENDBRANCH  23  24
ENDBRANCH  22  23
ENDBRANCH  16  22
ENDBRANCH  15  19
ENDBRANCH   1  15
TORSDOF 6
ENDMDL
MODEL 5
REMARK VINA RESULT:    -5.544      3.192      5.087
REMARK INTER + INTRA:          -7.887
REMARK INTER:                  -7.382
REMARK INTRA:                  -0.506
REMARK UNBOUND:                -0.561
REMARK  Name = 
REMARK  6 active torsions:
REMARK  status: ('A' for Active; 'I' for Inactive)
REMARK    1  A    between atoms: N_1  and  C_2
REMARK    2  A    between atoms: C_2  and  C_3
REMARK    3  A    between atoms: C_3  and  C_4
REMARK    4  A    between atoms: C_7  and  C_8
REMARK    5  A    between atoms: C_8  and  N_9
REMARK    6  A    between atoms: C_14  and  C_15
REMARK                            x       y       z     vdW  Elec       q    Type
REMARK                         _______ _______ _______ _____ _____    ______ ____
ROOT
ATOM      1  N   UNL     1      47.034   6.875  13.573  0.00  0.00    +0.000 N 
ATOM      2  C   UNL     1      47.831   6.031  14.302  0.00  0.00    +0.000 A 
ATOM      3  N   UNL     1      47.438   4.784  14.199  0.00  0.00    +0.000 NA
ATOM      4  C   UNL     1      46.359   4.819  13.356  0.00  0.00    +0.000 A 
ATOM      5  C   UNL     1      45.653   3.752  12.814  0.00  0.00    +0.000 A 
ATOM      6  C   UNL     1      44.632   4.094  11.943  0.00  0.00    +0.000 A 
ATOM      7  N   UNL     1      44.225   5.373  11.677  0.00  0.00    +0.000 NA
ATOM      8  C   UNL     1      44.906   6.408  12.234  0.00  0.00    +0.000 A 
ATOM      9  C   UNL     1      46.020   6.125  13.020  0.00  0.00    +0.000 A 
ENDROOT
BRANCH   6  10
ATOM     10  C   UNL     1      43.986   2.983  11.173  0.00  0.00    +0.000 C 
ATOM     11  N   UNL     1      44.668   2.509  10.087  0.00  0.00    +0.000 N 
ATOM     12  O   UNL     1      42.918   2.484  11.507  0.00  0.00    +0.000 OA
ATOM     13  H   UNL     1      45.577   2.892   9.849  0.00  0.00    +0.000 HD
ATOM     14  H   UNL     1      44.295   1.713   9.594  0.00  0.00    +0.000 HD
ENDBRANCH   6  10
BRANCH   1  15
ATOM     15  C   UNL     1      47.385   8.260  13.287  0.00  0.00    +0.000 C 
BRANCH  15  19
ATOM     16  C   UNL     1      51.365   8.171  11.726  0.00  0.00    +0.000 A 
ATOM     17  C   UNL     1      50.323   7.656  10.954  0.00  0.00    +0.000 A 
ATOM     18  C   UNL     1      49.010   7.717  11.425  0.00  0.00    +0.000 A 
ATOM     19  C   UNL     1      48.762   8.315  12.658  0.00  0.00    +0.000 A 
ATOM     20  N   UNL     1      49.755   8.873  13.396  0.00  0.00    +0.000 NA
ATOM     21  C   UNL     1      51.022   8.777  12.927  0.00  0.00    +0.000 A 
BRANCH  16  22
ATOM     22  C   UNL     1      52.803   8.061  11.289  0.00  0.00    +0.000 C 
BRANCH  22  23
ATOM     23  C   UNL     1      52.974   7.205  10.030  0.00  0.00    +0.000 C 
BRANCH  23  24
ATOM     24  N   UNL     1      53.437   5.860  10.369  0.00  0.00    +0.000 NA
ATOM     25  H   UNL     1      52.909   5.510  11.168  0.00  0.00    +0.000 HD
ATOM     26  H   UNL     1      54.412   5.890  10.665  0.00  0.00    +0.000 HD
ENDBRANCH  23  24
ENDBRANCH  22  23
ENDBRANCH  16  22
ENDBRANCH  15  19
ENDBRANCH   1  15
TORSDOF 6
ENDMDL
MODEL 6
REMARK VINA RESULT:    -5.433      4.826      9.046
REMARK INTER + INTRA:          -7.741
REMARK INTER:                  -7.260
REMARK INTRA:                  -0.481
REMARK UNBOUND:                -0.561
REMARK  Name = 
REMARK  6 active torsions:
REMARK  status: ('A' for Active; 'I' for Inactive)
REMARK    1  A    between atoms: N_1  and  C_2
REMARK    2  A    between atoms: C_2  and  C_3
REMARK    3  A    between atoms: C_3  and  C_4
REMARK    4  A    between atoms: C_7  and  C_8
REMARK    5  A    between atoms: C_8  and  N_9
REMARK    6  A    between atoms: C_14  and  C_15
REMARK                            x       y       z     vdW  Elec       q    Type
REMARK                         _______ _______ _______ _____ _____    ______ ____
ROOT
ATOM      1  N   UNL     1      48.665   3.477  16.626  0.00  0.00    +0.000 N 
ATOM      2  C   UNL     1      48.914   2.178  16.267  0.00  0.00    +0.000 A 
ATOM      3  N   UNL     1      50.082   1.771  16.702  0.00  0.00    +0.000 NA
ATOM      4  C   UNL     1      50.601   2.838  17.384  0.00  0.00    +0.000 A 
ATOM      5  C   UNL     1      51.760   2.892  18.150  0.00  0.00    +0.000 A 
ATOM      6  C   UNL     1      52.007   4.105  18.772  0.00  0.00    +0.000 A 
ATOM      7  N   UNL     1      51.263   5.239  18.600  0.00  0.00    +0.000 NA
ATOM      8  C   UNL     1      50.146   5.182  17.827  0.00  0.00    +0.000 A 
ATOM      9  C   UNL     1      49.781   3.955  17.277  0.00  0.00    +0.000 A 
ENDROOT
BRANCH   6  10
ATOM     10  C   UNL     1      53.120   4.147  19.773  0.00  0.00    +0.000 C 
ATOM     11  N   UNL     1      52.770   4.039  21.089  0.00  0.00    +0.000 N 
ATOM     12  O   UNL     1      54.298   4.235  19.445  0.00  0.00    +0.000 OA
ATOM     13  H   UNL     1      51.796   3.913  21.349  0.00  0.00    +0.000 HD
ATOM     14  H   UNL     1      53.502   3.989  21.781  0.00  0.00    +0.000 HD
ENDBRANCH   6  10
BRANCH   1  15
ATOM     15  C   UNL     1      47.354   4.101  16.516  0.00  0.00    +0.000 C 
BRANCH  15  19
ATOM     16  C   UNL     1      46.489   5.678  12.636  0.00  0.00    +0.000 A 
ATOM     17  C   UNL     1      47.493   6.273  13.401  0.00  0.00    +0.000 A 
ATOM     18  C   UNL     1      47.824   5.745  14.651  0.00  0.00    +0.000 A 
ATOM     19  C   UNL     1      47.152   4.613  15.104  0.00  0.00    +0.000 A 
ATOM     20  N   UNL     1      46.213   3.986  14.350  0.00  0.00    +0.000 NA
ATOM     21  C   UNL     1      45.895   4.534  13.153  0.00  0.00    +0.000 A 
BRANCH  16  22
ATOM     22  C   UNL     1      46.051   6.256  11.316  0.00  0.00    +0.000 C 
BRANCH  22  23
ATOM     23  C   UNL     1      45.262   5.255  10.465  0.00  0.00    +0.000 C 
BRANCH  23  24
ATOM     24  N   UNL     1      45.620   5.371   9.052  0.00  0.00    +0.000 NA
ATOM     25  H   UNL     1      45.058   6.101   8.617  0.00  0.00    +0.000 HD
ATOM     26  H   UNL     1      45.392   4.507   8.561  0.00  0.00    +0.000 HD
ENDBRANCH  23  24
ENDBRANCH  22  23
ENDBRANCH  16  22
ENDBRANCH  15  19
ENDBRANCH   1  15
TORSDOF 6
ENDMDL
MODEL 7
REMARK VINA RESULT:    -5.157      2.370      3.697
REMARK INTER + INTRA:          -7.376
REMARK INTER:                  -6.815
REMARK INTRA:                  -0.561
REMARK UNBOUND:                -0.561
REMARK  Name = 
REMARK  6 active torsions:
REMARK  status: ('A' for Active; 'I' for Inactive)
REMARK    1  A    between atoms: N_1  and  C_2
REMARK    2  A    between atoms: C_2  and  C_3
REMARK    3  A    between atoms: C_3  and  C_4
REMARK    4  A    between atoms: C_7  and  C_8
REMARK    5  A    between atoms: C_8  and  N_9
REMARK    6  A    between atoms: C_14  and  C_15
REMARK                            x       y       z     vdW  Elec       q    Type
REMARK                         _______ _______ _______ _____ _____    ______ ____
ROOT
ATOM      1  N   UNL     1      46.011   6.093  13.188  0.00  0.00    +0.000 N 
ATOM      2  C   UNL     1      46.365   5.094  14.056  0.00  0.00    +0.000 A 
ATOM      3  N   UNL     1      46.112   3.907  13.559  0.00  0.00    +0.000 NA
ATOM      4  C   UNL     1      45.593   4.145  12.315  0.00  0.00    +0.000 A 
ATOM      5  C   UNL     1      45.280   3.227  11.320  0.00  0.00    +0.000 A 
ATOM      6  C   UNL     1      44.815   3.769  10.133  0.00  0.00    +0.000 A 
ATOM      7  N   UNL     1      44.556   5.096   9.927  0.00  0.00    +0.000 NA
ATOM      8  C   UNL     1      44.841   5.983  10.916  0.00  0.00    +0.000 A 
ATOM      9  C   UNL     1      45.427   5.507  12.087  0.00  0.00    +0.000 A 
ENDROOT
BRANCH   6  10
ATOM     10  C   UNL     1      44.670   2.841   8.966  0.00  0.00    +0.000 C 
ATOM     11  N   UNL     1      44.542   1.510   9.248  0.00  0.00    +0.000 N 
ATOM     12  O   UNL     1      44.626   3.241   7.808  0.00  0.00    +0.000 OA
ATOM     13  H   UNL     1      44.526   1.193  10.213  0.00  0.00    +0.000 HD
ATOM     14  H   UNL     1      44.368   0.871   8.489  0.00  0.00    +0.000 HD
ENDBRANCH   6  10
BRANCH   1  15
ATOM     15  C   UNL     1      46.417   7.481  13.357  0.00  0.00    +0.000 C 
BRANCH  15  19
ATOM     16  C   UNL     1      50.535   8.162  12.429  0.00  0.00    +0.000 A 
ATOM     17  C   UNL     1      50.121   8.227  13.759  0.00  0.00    +0.000 A 
ATOM     18  C   UNL     1      48.790   7.962  14.090  0.00  0.00    +0.000 A 
ATOM     19  C   UNL     1      47.899   7.615  13.077  0.00  0.00    +0.000 A 
ATOM     20  N   UNL     1      48.296   7.491  11.785  0.00  0.00    +0.000 NA
ATOM     21  C   UNL     1      49.587   7.777  11.490  0.00  0.00    +0.000 A 
BRANCH  16  22
ATOM     22  C   UNL     1      51.942   8.509  12.019  0.00  0.00    +0.000 C 
BRANCH  22  23
ATOM     23  C   UNL     1      52.919   8.508  13.201  0.00  0.00    +0.000 C 
BRANCH  23  24
ATOM     24  N   UNL     1      53.879   7.412  13.085  0.00  0.00    +0.000 NA
ATOM     25  H   UNL     1      54.728   7.646  13.599  0.00  0.00    +0.000 HD
ATOM     26  H   UNL     1      54.161   7.295  12.112  0.00  0.00    +0.000 HD
ENDBRANCH  23  24
ENDBRANCH  22  23
ENDBRANCH  16  22
ENDBRANCH  15  19
ENDBRANCH   1  15
TORSDOF 6
ENDMDL
MODEL 8
REMARK VINA RESULT:    -5.114      2.929      5.328
REMARK INTER + INTRA:          -7.319
REMARK INTER:                  -7.110
REMARK INTRA:                  -0.209
REMARK UNBOUND:                -0.561
REMARK  Name = 
REMARK  6 active torsions:
REMARK  status: ('A' for Active; 'I' for Inactive)
REMARK    1  A    between atoms: N_1  and  C_2
REMARK    2  A    between atoms: C_2  and  C_3
REMARK    3  A    between atoms: C_3  and  C_4
REMARK    4  A    between atoms: C_7  and  C_8
REMARK    5  A    between atoms: C_8  and  N_9
REMARK    6  A    between atoms: C_14  and  C_15
REMARK                            x       y       z     vdW  Elec       q    Type
REMARK                         _______ _______ _______ _____ _____    ______ ____
ROOT
ATOM      1  N   UNL     1      47.559   5.707  14.517  0.00  0.00    +0.000 N 
ATOM      2  C   UNL     1      47.537   4.558  15.265  0.00  0.00    +0.000 A 
ATOM      3  N   UNL     1      46.782   3.637  14.716  0.00  0.00    +0.000 NA
ATOM      4  C   UNL     1      46.314   4.202  13.560  0.00  0.00    +0.000 A 
ATOM      5  C   UNL     1      45.577   3.604  12.544  0.00  0.00    +0.000 A 
ATOM      6  C   UNL     1      45.287   4.417  11.461  0.00  0.00    +0.000 A 
ATOM      7  N   UNL     1      45.581   5.751  11.382  0.00  0.00    +0.000 NA
ATOM      8  C   UNL     1      46.279   6.331  12.394  0.00  0.00    +0.000 A 
ATOM      9  C   UNL     1      46.704   5.532  13.451  0.00  0.00    +0.000 A 
ENDROOT
BRANCH   6  10
ATOM     10  C   UNL     1      44.686   3.763  10.254  0.00  0.00    +0.000 C 
ATOM     11  N   UNL     1      44.928   2.429  10.092  0.00  0.00    +0.000 N 
ATOM     12  O   UNL     1      43.977   4.371   9.461  0.00  0.00    +0.000 OA
ATOM     13  H   UNL     1      45.472   1.921  10.783  0.00  0.00    +0.000 HD
ATOM     14  H   UNL     1      44.476   1.946   9.331  0.00  0.00    +0.000 HD
ENDBRANCH   6  10
BRANCH   1  15
ATOM     15  C   UNL     1      48.510   6.787  14.738  0.00  0.00    +0.000 C 
BRANCH  15  19
ATOM     16  C   UNL     1      50.507   6.600  18.515  0.00  0.00    +0.000 A 
ATOM     17  C   UNL     1      49.292   7.280  18.424  0.00  0.00    +0.000 A 
ATOM     18  C   UNL     1      48.600   7.313  17.212  0.00  0.00    +0.000 A 
ATOM     19  C   UNL     1      49.132   6.644  16.112  0.00  0.00    +0.000 A 
ATOM     20  N   UNL     1      50.283   5.929  16.196  0.00  0.00    +0.000 NA
ATOM     21  C   UNL     1      50.945   5.934  17.378  0.00  0.00    +0.000 A 
BRANCH  16  22
ATOM     22  C   UNL     1      51.321   6.598  19.782  0.00  0.00    +0.000 C 
BRANCH  22  23
ATOM     23  C   UNL     1      51.560   5.186  20.329  0.00  0.00    +0.000 C 
BRANCH  23  24
ATOM     24  N   UNL     1      50.299   4.552  20.710  0.00  0.00    +0.000 NA
ATOM     25  H   UNL     1      49.518   5.106  20.359  0.00  0.00    +0.000 HD
ATOM     26  H   UNL     1      50.205   4.541  21.725  0.00  0.00    +0.000 HD
ENDBRANCH  23  24
ENDBRANCH  22  23
ENDBRANCH  16  22
ENDBRANCH  15  19
ENDBRANCH   1  15
TORSDOF 6
ENDMDL
MODEL 9
REMARK VINA RESULT:    -4.991      4.191      6.323
REMARK INTER + INTRA:          -7.156
REMARK INTER:                  -6.604
REMARK INTRA:                  -0.552
REMARK UNBOUND:                -0.561
REMARK  Name = 
REMARK  6 active torsions:
REMARK  status: ('A' for Active; 'I' for Inactive)
REMARK    1  A    between atoms: N_1  and  C_2
REMARK    2  A    between atoms: C_2  and  C_3
REMARK    3  A    between atoms: C_3  and  C_4
REMARK    4  A    between atoms: C_7  and  C_8
REMARK    5  A    between atoms: C_8  and  N_9
REMARK    6  A    between atoms: C_14  and  C_15
REMARK                            x       y       z     vdW  Elec       q    Type
REMARK                         _______ _______ _______ _____ _____    ______ ____
ROOT
ATOM      1  N   UNL     1      48.327   7.114  13.796  0.00  0.00    +0.000 N 
ATOM      2  C   UNL     1      47.907   8.309  13.274  0.00  0.00    +0.000 A 
ATOM      3  N   UNL     1      46.703   8.218  12.762  0.00  0.00    +0.000 NA
ATOM      4  C   UNL     1      46.322   6.921  12.977  0.00  0.00    +0.000 A 
ATOM      5  C   UNL     1      45.083   6.336  12.744  0.00  0.00    +0.000 A 
ATOM      6  C   UNL     1      44.973   5.005  13.111  0.00  0.00    +0.000 A 
ATOM      7  N   UNL     1      46.004   4.233  13.575  0.00  0.00    +0.000 NA
ATOM      8  C   UNL     1      47.218   4.810  13.773  0.00  0.00    +0.000 A 
ATOM      9  C   UNL     1      47.352   6.175  13.538  0.00  0.00    +0.000 A 
ENDROOT
BRANCH   6  10
ATOM     10  C   UNL     1      43.606   4.395  13.080  0.00  0.00    +0.000 C 
ATOM     11  N   UNL     1      42.548   5.256  13.003  0.00  0.00    +0.000 N 
ATOM     12  O   UNL     1      43.425   3.182  13.082  0.00  0.00    +0.000 OA
ATOM     13  H   UNL     1      42.709   6.257  12.947  0.00  0.00    +0.000 HD
ATOM     14  H   UNL     1      41.621   4.873  12.904  0.00  0.00    +0.000 HD
ENDBRANCH   6  10
BRANCH   1  15
ATOM     15  C   UNL     1      49.495   6.982  14.656  0.00  0.00    +0.000 C 
BRANCH  15  19
ATOM     16  C   UNL     1      48.056   7.734  18.612  0.00  0.00    +0.000 A 
ATOM     17  C   UNL     1      48.224   6.414  18.192  0.00  0.00    +0.000 A 
ATOM     18  C   UNL     1      48.737   6.146  16.921  0.00  0.00    +0.000 A 
ATOM     19  C   UNL     1      49.093   7.212  16.098  0.00  0.00    +0.000 A 
ATOM     20  N   UNL     1      48.990   8.501  16.511  0.00  0.00    +0.000 NA
ATOM     21  C   UNL     1      48.467   8.733  17.739  0.00  0.00    +0.000 A 
BRANCH  16  22
ATOM     22  C   UNL     1      47.440   8.068  19.945  0.00  0.00    +0.000 C 
BRANCH  22  23
ATOM     23  C   UNL     1      47.078   9.552  20.074  0.00  0.00    +0.000 C 
BRANCH  23  24
ATOM     24  N   UNL     1      47.855  10.190  21.135  0.00  0.00    +0.000 NA
ATOM     25  H   UNL     1      47.719   9.685  22.009  0.00  0.00    +0.000 HD
ATOM     26  H   UNL     1      47.512  11.136  21.299  0.00  0.00    +0.000 HD
ENDBRANCH  23  24
ENDBRANCH  22  23
ENDBRANCH  16  22
ENDBRANCH  15  19
ENDBRANCH   1  15
TORSDOF 6
ENDMDL
