MODEL 1
REMARK VINA RESULT:    -7.920      0.000      0.000
REMARK INTER + INTRA:         -11.706
REMARK INTER:                 -10.698
REMARK INTRA:                  -1.008
REMARK UNBOUND:                -1.008
REMARK  Name = 
REMARK  6 active torsions:
REMARK  status: ('A' for Active; 'I' for Inactive)
REMARK    1  A    between atoms: C_2  and  C_20
REMARK    2  A    between atoms: N_3  and  C_4
REMARK    3  A    between atoms: C_4  and  C_5
REMARK    4  A    between atoms: C_8  and  C_9
REMARK    5  A    between atoms: C_9  and  N_10
REMARK    6  A    between atoms: C_11  and  C_13
REMARK                            x       y       z     vdW  Elec       q    Type
REMARK                         _______ _______ _______ _____ _____    ______ ____
ROOT
ATOM      1  C   UNL     1      46.159   4.478  13.767  0.00  0.00    +0.000 A 
ATOM      2  C   UNL     1      45.911   3.302  13.045  0.00  0.00    +0.000 A 
ATOM      3  C   UNL     1      45.148   3.332  11.873  0.00  0.00    +0.000 A 
ATOM      4  C   UNL     1      44.637   4.540  11.383  0.00  0.00    +0.000 A 
ATOM      5  C   UNL     1      44.895   5.717  12.097  0.00  0.00    +0.000 A 
ATOM      6  C   UNL     1      45.659   5.688  13.272  0.00  0.00    +0.000 A 
ENDROOT
BRANCH   1   7
ATOM      7  C   UNL     1      46.955   4.437  15.047  0.00  0.00    +0.000 C 
BRANCH   7  10
ATOM      8  O   UNL     1      49.094   4.748  16.770  0.00  0.00    +0.000 OA
ATOM      9  C   UNL     1      48.712   5.734  16.141  0.00  0.00    +0.000 C 
ATOM     10  N   UNL     1      47.614   5.690  15.318  0.00  0.00    +0.000 N 
ATOM     11  H   UNL     1      47.455   6.446  14.659  0.00  0.00    +0.000 HD
BRANCH   9  12
ATOM     12  C   UNL     1      49.390   7.028  16.273  0.00  0.00    +0.000 A 
ATOM     13  C   UNL     1      49.647   7.551  17.533  0.00  0.00    +0.000 A 
ATOM     14  S   UNL     1      50.430   9.065  17.501  0.00  0.00    +0.000 S 
ATOM     15  C   UNL     1      50.501   9.053  15.800  0.00  0.00    +0.000 A 
ATOM     16  N   UNL     1      51.097  10.067  15.117  0.00  0.00    +0.000 NA
ATOM     17  C   UNL     1      51.116   9.906  13.835  0.00  0.00    +0.000 A 
ATOM     18  N   UNL     1      50.583   8.829  13.176  0.00  0.00    +0.000 N 
ATOM     19  C   UNL     1      49.937   7.803  13.821  0.00  0.00    +0.000 A 
ATOM     20  O   UNL     1      49.420   6.882  13.195  0.00  0.00    +0.000 OA
ATOM     21  C   UNL     1      49.908   7.923  15.266  0.00  0.00    +0.000 A 
ATOM     22  H   UNL     1      50.617   8.770  12.167  0.00  0.00    +0.000 HD
ENDBRANCH   9  12
ENDBRANCH   7  10
ENDBRANCH   1   7
BRANCH   4  23
ATOM     23  C   UNL     1      43.849   4.578  10.099  0.00  0.00    +0.000 C 
BRANCH  23  24
ATOM     24  N   UNL     1      44.383   3.717   9.075  0.00  0.00    +0.000 N 
ATOM     25  C   UNL     1      45.510   4.087   8.375  0.00  0.00    +0.000 C 
ATOM     26  O   UNL     1      46.055   5.181   8.517  0.00  0.00    +0.000 OA
ATOM     27  H   UNL     1      44.101   2.744   8.998  0.00  0.00    +0.000 HD
BRANCH  25  28
ATOM     28  C   UNL     1      46.007   3.074   7.340  0.00  0.00    +0.000 C 
ATOM     29  C   UNL     1      46.332   1.732   7.967  0.00  0.00    +0.000 C 
ATOM     30  C   UNL     1      47.192   1.072   6.907  0.00  0.00    +0.000 C 
ATOM     31  C   UNL     1      47.891   2.229   6.203  0.00  0.00    +0.000 C 
ATOM     32  N   UNL     1      47.307   3.466   6.741  0.00  0.00    +0.000 NA
ATOM     33  H   UNL     1      47.146   4.133   5.986  0.00  0.00    +0.000 HD
ENDBRANCH  25  28
ENDBRANCH  23  24
ENDBRANCH   4  23
TORSDOF 6
ENDMDL
MODEL 2
REMARK VINA RESULT:    -7.906      1.986      3.518
REMARK INTER + INTRA:         -11.688
REMARK INTER:                 -10.785
REMARK INTRA:                  -0.902
REMARK UNBOUND:                -1.008
REMARK  Name = 
REMARK  6 active torsions:
REMARK  status: ('A' for Active; 'I' for Inactive)
REMARK    1  A    between atoms: C_2  and  C_20
REMARK    2  A    between atoms: N_3  and  C_4
REMARK    3  A    between atoms: C_4  and  C_5
REMARK    4  A    between atoms: C_8  and  C_9
REMARK    5  A    between atoms: C_9  and  N_10
REMARK    6  A    between atoms: C_11  and  C_13
REMARK                            x       y       z     vdW  Elec       q    Type
REMARK                         _______ _______ _______ _____ _____    ______ ____
ROOT
ATOM      1  C   UNL     1      46.416   7.436  12.860  0.00  0.00    +0.000 A 
ATOM      2  C   UNL     1      46.576   6.046  12.773  0.00  0.00    +0.000 A 
ATOM      3  C   UNL     1      45.674   5.268  12.039  0.00  0.00    +0.000 A 
ATOM      4  C   UNL     1      44.606   5.864  11.356  0.00  0.00    +0.000 A 
ATOM      5  C   UNL     1      44.453   7.255  11.432  0.00  0.00    +0.000 A 
ATOM      6  C   UNL     1      45.356   8.034  12.167  0.00  0.00    +0.000 A 
ENDROOT
BRANCH   1   7
ATOM      7  C   UNL     1      47.372   8.267  13.677  0.00  0.00    +0.000 C 
BRANCH   7  10
ATOM      8  O   UNL     1      49.822   7.034  14.015  0.00  0.00    +0.000 OA
ATOM      9  C   UNL     1      49.055   7.063  14.975  0.00  0.00    +0.000 C 
ATOM     10  N   UNL     1      47.790   7.591  14.879  0.00  0.00    +0.000 N 
ATOM     11  H   UNL     1      47.270   7.792  15.727  0.00  0.00    +0.000 HD
BRANCH   9  12
ATOM     12  C   UNL     1      49.438   6.494  16.272  0.00  0.00    +0.000 A 
ATOM     13  C   UNL     1      50.399   7.127  17.049  0.00  0.00    +0.000 A 
ATOM     14  S   UNL     1      50.730   6.324  18.517  0.00  0.00    +0.000 S 
ATOM     15  C   UNL     1      49.563   5.129  18.190  0.00  0.00    +0.000 A 
ATOM     16  N   UNL     1      49.309   4.136  19.083  0.00  0.00    +0.000 NA
ATOM     17  C   UNL     1      48.370   3.324  18.724  0.00  0.00    +0.000 A 
ATOM     18  N   UNL     1      47.671   3.410  17.548  0.00  0.00    +0.000 N 
ATOM     19  C   UNL     1      47.921   4.372  16.599  0.00  0.00    +0.000 A 
ATOM     20  O   UNL     1      47.316   4.386  15.531  0.00  0.00    +0.000 OA
ATOM     21  C   UNL     1      48.952   5.325  16.964  0.00  0.00    +0.000 A 
ATOM     22  H   UNL     1      46.957   2.733  17.319  0.00  0.00    +0.000 HD
ENDBRANCH   9  12
ENDBRANCH   7  10
ENDBRANCH   1   7
BRANCH   4  23
ATOM     23  C   UNL     1      43.658   5.031  10.534  0.00  0.00    +0.000 C 
BRANCH  23  24
ATOM     24  N   UNL     1      44.246   4.526   9.319  0.00  0.00    +0.000 N 
ATOM     25  C   UNL     1      44.735   3.240   9.266  0.00  0.00    +0.000 C 
ATOM     26  O   UNL     1      44.780   2.502  10.249  0.00  0.00    +0.000 OA
ATOM     27  H   UNL     1      44.112   4.998   8.428  0.00  0.00    +0.000 HD
BRANCH  25  28
ATOM     28  C   UNL     1      45.298   2.803   7.911  0.00  0.00    +0.000 C 
ATOM     29  C   UNL     1      46.353   1.724   8.053  0.00  0.00    +0.000 C 
ATOM     30  C   UNL     1      47.059   1.774   6.712  0.00  0.00    +0.000 C 
ATOM     31  C   UNL     1      46.928   3.224   6.262  0.00  0.00    +0.000 C 
ATOM     32  N   UNL     1      46.046   3.890   7.231  0.00  0.00    +0.000 NA
ATOM     33  H   UNL     1      45.390   4.500   6.743  0.00  0.00    +0.000 HD
ENDBRANCH  25  28
ENDBRANCH  23  24
ENDBRANCH   4  23
TORSDOF 6
ENDMDL
MODEL 3
REMARK VINA RESULT:    -7.682      2.956      4.011
REMARK INTER + INTRA:         -11.385
REMARK INTER:                 -10.424
REMARK INTRA:                  -0.961
REMARK UNBOUND:                -1.008
REMARK  Name = 
REMARK  6 active torsions:
REMARK  status: ('A' for Active; 'I' for Inactive)
REMARK    1  A    between atoms: C_2  and  C_20
REMARK    2  A    between atoms: N_3  and  C_4
REMARK    3  A    between atoms: C_4  and  C_5
REMARK    4  A    between atoms: C_8  and  C_9
REMARK    5  A    between atoms: C_9  and  N_10
REMARK    6  A    between atoms: C_11  and  C_13
REMARK                            x       y       z     vdW  Elec       q    Type
REMARK                         _______ _______ _______ _____ _____    ______ ____
ROOT
ATOM      1  C   UNL     1      46.500   4.795  14.340  0.00  0.00    +0.000 A 
ATOM      2  C   UNL     1      45.402   4.311  13.615  0.00  0.00    +0.000 A 
ATOM      3  C   UNL     1      45.156   4.753  12.311  0.00  0.00    +0.000 A 
ATOM      4  C   UNL     1      46.016   5.670  11.693  0.00  0.00    +0.000 A 
ATOM      5  C   UNL     1      47.120   6.145  12.413  0.00  0.00    +0.000 A 
ATOM      6  C   UNL     1      47.366   5.703  13.719  0.00  0.00    +0.000 A 
ENDROOT
BRANCH   1   7
ATOM      7  C   UNL     1      46.744   4.339  15.756  0.00  0.00    +0.000 C 
BRANCH   7  10
ATOM      8  O   UNL     1      47.887   5.247  18.103  0.00  0.00    +0.000 OA
ATOM      9  C   UNL     1      48.614   4.680  17.290  0.00  0.00    +0.000 C 
ATOM     10  N   UNL     1      48.149   4.260  16.068  0.00  0.00    +0.000 N 
ATOM     11  H   UNL     1      48.708   3.617  15.517  0.00  0.00    +0.000 HD
BRANCH   9  12
ATOM     12  C   UNL     1      50.038   4.460  17.568  0.00  0.00    +0.000 A 
ATOM     13  C   UNL     1      50.823   5.507  18.034  0.00  0.00    +0.000 A 
ATOM     14  S   UNL     1      52.452   5.078  18.293  0.00  0.00    +0.000 S 
ATOM     15  C   UNL     1      52.157   3.464  17.842  0.00  0.00    +0.000 A 
ATOM     16  N   UNL     1      53.148   2.534  17.879  0.00  0.00    +0.000 NA
ATOM     17  C   UNL     1      52.772   1.341  17.553  0.00  0.00    +0.000 A 
ATOM     18  N   UNL     1      51.497   0.999  17.181  0.00  0.00    +0.000 N 
ATOM     19  C   UNL     1      50.475   1.912  17.091  0.00  0.00    +0.000 A 
ATOM     20  O   UNL     1      49.359   1.583  16.700  0.00  0.00    +0.000 OA
ATOM     21  C   UNL     1      50.839   3.264  17.470  0.00  0.00    +0.000 A 
ATOM     22  H   UNL     1      51.271   0.049  16.923  0.00  0.00    +0.000 HD
ENDBRANCH   9  12
ENDBRANCH   7  10
ENDBRANCH   1   7
BRANCH   4  23
ATOM     23  C   UNL     1      45.773   6.117  10.275  0.00  0.00    +0.000 C 
BRANCH  23  24
ATOM     24  N   UNL     1      46.186   5.148   9.292  0.00  0.00    +0.000 N 
ATOM     25  C   UNL     1      45.260   4.308   8.713  0.00  0.00    +0.000 C 
ATOM     26  O   UNL     1      44.080   4.276   9.059  0.00  0.00    +0.000 OA
ATOM     27  H   UNL     1      47.093   5.207   8.836  0.00  0.00    +0.000 HD
BRANCH  25  28
ATOM     28  C   UNL     1      45.811   3.350   7.653  0.00  0.00    +0.000 C 
ATOM     29  C   UNL     1      46.098   1.974   8.222  0.00  0.00    +0.000 C 
ATOM     30  C   UNL     1      47.013   1.369   7.176  0.00  0.00    +0.000 C 
ATOM     31  C   UNL     1      47.751   2.559   6.574  0.00  0.00    +0.000 C 
ATOM     32  N   UNL     1      47.142   3.768   7.147  0.00  0.00    +0.000 NA
ATOM     33  H   UNL     1      47.023   4.476   6.422  0.00  0.00    +0.000 HD
ENDBRANCH  25  28
ENDBRANCH  23  24
ENDBRANCH   4  23
TORSDOF 6
ENDMDL
MODEL 4
REMARK VINA RESULT:    -7.410      2.431      3.014
REMARK INTER + INTRA:         -11.018
REMARK INTER:                 -10.037
REMARK INTRA:                  -0.981
REMARK UNBOUND:                -1.008
REMARK  Name = 
REMARK  6 active torsions:
REMARK  status: ('A' for Active; 'I' for Inactive)
REMARK    1  A    between atoms: C_2  and  C_20
REMARK    2  A    between atoms: N_3  and  C_4
REMARK    3  A    between atoms: C_4  and  C_5
REMARK    4  A    between atoms: C_8  and  C_9
REMARK    5  A    between atoms: C_9  and  N_10
REMARK    6  A    between atoms: C_11  and  C_13
REMARK                            x       y       z     vdW  Elec       q    Type
REMARK                         _______ _______ _______ _____ _____    ______ ____
ROOT
ATOM      1  C   UNL     1      47.129   4.969  14.433  0.00  0.00    +0.000 A 
ATOM      2  C   UNL     1      47.533   6.137  13.771  0.00  0.00    +0.000 A 
ATOM      3  C   UNL     1      46.982   6.483  12.532  0.00  0.00    +0.000 A 
ATOM      4  C   UNL     1      45.998   5.682  11.939  0.00  0.00    +0.000 A 
ATOM      5  C   UNL     1      45.585   4.521  12.606  0.00  0.00    +0.000 A 
ATOM      6  C   UNL     1      46.137   4.175  13.846  0.00  0.00    +0.000 A 
ENDROOT
BRANCH   1   7
ATOM      7  C   UNL     1      47.747   4.584  15.753  0.00  0.00    +0.000 C 
BRANCH   7  10
ATOM      8  O   UNL     1      49.590   5.429  17.632  0.00  0.00    +0.000 OA
ATOM      9  C   UNL     1      48.481   5.961  17.632  0.00  0.00    +0.000 C 
ATOM     10  N   UNL     1      47.481   5.556  16.782  0.00  0.00    +0.000 N 
ATOM     11  H   UNL     1      46.663   6.146  16.660  0.00  0.00    +0.000 HD
BRANCH   9  12
ATOM     12  C   UNL     1      48.155   7.037  18.575  0.00  0.00    +0.000 A 
ATOM     13  C   UNL     1      48.048   6.758  19.932  0.00  0.00    +0.000 A 
ATOM     14  S   UNL     1      47.652   8.119  20.880  0.00  0.00    +0.000 S 
ATOM     15  C   UNL     1      47.661   9.140  19.519  0.00  0.00    +0.000 A 
ATOM     16  N   UNL     1      47.431  10.474  19.642  0.00  0.00    +0.000 NA
ATOM     17  C   UNL     1      47.511  11.133  18.534  0.00  0.00    +0.000 A 
ATOM     18  N   UNL     1      47.789  10.576  17.313  0.00  0.00    +0.000 N 
ATOM     19  C   UNL     1      47.989   9.228  17.135  0.00  0.00    +0.000 A 
ATOM     20  O   UNL     1      48.179   8.755  16.018  0.00  0.00    +0.000 OA
ATOM     21  C   UNL     1      47.933   8.444  18.353  0.00  0.00    +0.000 A 
ATOM     22  H   UNL     1      47.823  11.146  16.479  0.00  0.00    +0.000 HD
ENDBRANCH   9  12
ENDBRANCH   7  10
ENDBRANCH   1   7
BRANCH   4  23
ATOM     23  C   UNL     1      45.377   6.075  10.624  0.00  0.00    +0.000 C 
BRANCH  23  24
ATOM     24  N   UNL     1      45.776   5.230   9.528  0.00  0.00    +0.000 N 
ATOM     25  C   UNL     1      44.924   4.256   9.054  0.00  0.00    +0.000 C 
ATOM     26  O   UNL     1      43.843   4.001   9.584  0.00  0.00    +0.000 OA
ATOM     27  H   UNL     1      46.568   5.466   8.935  0.00  0.00    +0.000 HD
BRANCH  25  28
ATOM     28  C   UNL     1      45.442   3.449   7.861  0.00  0.00    +0.000 C 
ATOM     29  C   UNL     1      46.036   2.120   8.286  0.00  0.00    +0.000 C 
ATOM     30  C   UNL     1      46.854   1.722   7.074  0.00  0.00    +0.000 C 
ATOM     31  C   UNL     1      47.283   3.043   6.447  0.00  0.00    +0.000 C 
ATOM     32  N   UNL     1      46.589   4.107   7.186  0.00  0.00    +0.000 NA
ATOM     33  H   UNL     1      46.240   4.813   6.536  0.00  0.00    +0.000 HD
ENDBRANCH  25  28
ENDBRANCH  23  24
ENDBRANCH   4  23
TORSDOF 6
ENDMDL
MODEL 5
REMARK VINA RESULT:    -7.163      2.364      2.533
REMARK INTER + INTRA:         -10.683
REMARK INTER:                  -9.779
REMARK INTRA:                  -0.904
REMARK UNBOUND:                -1.008
REMARK  Name = 
REMARK  6 active torsions:
REMARK  status: ('A' for Active; 'I' for Inactive)
REMARK    1  A    between atoms: C_2  and  C_20
REMARK    2  A    between atoms: N_3  and  C_4
REMARK    3  A    between atoms: C_4  and  C_5
REMARK    4  A    between atoms: C_8  and  C_9
REMARK    5  A    between atoms: C_9  and  N_10
REMARK    6  A    between atoms: C_11  and  C_13
REMARK                            x       y       z     vdW  Elec       q    Type
REMARK                         _______ _______ _______ _____ _____    ______ ____
ROOT
ATOM      1  C   UNL     1      46.789   4.745  14.198  0.00  0.00    +0.000 A 
ATOM      2  C   UNL     1      45.858   3.978  13.484  0.00  0.00    +0.000 A 
ATOM      3  C   UNL     1      45.391   4.402  12.235  0.00  0.00    +0.000 A 
ATOM      4  C   UNL     1      45.861   5.590  11.662  0.00  0.00    +0.000 A 
ATOM      5  C   UNL     1      46.800   6.352  12.370  0.00  0.00    +0.000 A 
ATOM      6  C   UNL     1      47.268   5.927  13.620  0.00  0.00    +0.000 A 
ENDROOT
BRANCH   1   7
ATOM      7  C   UNL     1      47.266   4.300  15.557  0.00  0.00    +0.000 C 
BRANCH   7  10
ATOM      8  O   UNL     1      47.549   4.318  18.306  0.00  0.00    +0.000 OA
ATOM      9  C   UNL     1      47.995   5.275  17.675  0.00  0.00    +0.000 C 
ATOM     10  N   UNL     1      47.837   5.385  16.315  0.00  0.00    +0.000 N 
ATOM     11  H   UNL     1      48.391   6.064  15.803  0.00  0.00    +0.000 HD
BRANCH   9  12
ATOM     12  C   UNL     1      48.687   6.377  18.353  0.00  0.00    +0.000 A 
ATOM     13  C   UNL     1      48.017   7.135  19.303  0.00  0.00    +0.000 A 
ATOM     14  S   UNL     1      48.966   8.379  19.981  0.00  0.00    +0.000 S 
ATOM     15  C   UNL     1      50.324   7.915  19.066  0.00  0.00    +0.000 A 
ATOM     16  N   UNL     1      51.513   8.562  19.201  0.00  0.00    +0.000 NA
ATOM     17  C   UNL     1      52.468   8.078  18.477  0.00  0.00    +0.000 A 
ATOM     18  N   UNL     1      52.337   7.013  17.624  0.00  0.00    +0.000 N 
ATOM     19  C   UNL     1      51.147   6.356  17.426  0.00  0.00    +0.000 A 
ATOM     20  O   UNL     1      51.051   5.442  16.612  0.00  0.00    +0.000 OA
ATOM     21  C   UNL     1      50.046   6.846  18.233  0.00  0.00    +0.000 A 
ATOM     22  H   UNL     1      53.121   6.691  17.073  0.00  0.00    +0.000 HD
ENDBRANCH   9  12
ENDBRANCH   7  10
ENDBRANCH   1   7
BRANCH   4  23
ATOM     23  C   UNL     1      45.387   6.027  10.300  0.00  0.00    +0.000 C 
BRANCH  23  24
ATOM     24  N   UNL     1      45.885   5.201   9.229  0.00  0.00    +0.000 N 
ATOM     25  C   UNL     1      45.094   4.211   8.691  0.00  0.00    +0.000 C 
ATOM     26  O   UNL     1      43.986   3.923   9.141  0.00  0.00    +0.000 OA
ATOM     27  H   UNL     1      46.710   5.463   8.696  0.00  0.00    +0.000 HD
BRANCH  25  28
ATOM     28  C   UNL     1      45.716   3.427   7.532  0.00  0.00    +0.000 C 
ATOM     29  C   UNL     1      46.191   2.053   7.962  0.00  0.00    +0.000 C 
ATOM     30  C   UNL     1      47.131   1.662   6.840  0.00  0.00    +0.000 C 
ATOM     31  C   UNL     1      47.695   2.984   6.331  0.00  0.00    +0.000 C 
ATOM     32  N   UNL     1      46.965   4.051   7.031  0.00  0.00    +0.000 NA
ATOM     33  H   UNL     1      46.733   4.800   6.378  0.00  0.00    +0.000 HD
ENDBRANCH  25  28
ENDBRANCH  23  24
ENDBRANCH   4  23
TORSDOF 6
ENDMDL
MODEL 6
REMARK VINA RESULT:    -7.001      4.218      5.536
REMARK INTER + INTRA:         -10.465
REMARK INTER:                  -9.518
REMARK INTRA:                  -0.947
REMARK UNBOUND:                -1.008
REMARK  Name = 
REMARK  6 active torsions:
REMARK  status: ('A' for Active; 'I' for Inactive)
REMARK    1  A    between atoms: C_2  and  C_20
REMARK    2  A    between atoms: N_3  and  C_4
REMARK    3  A    between atoms: C_4  and  C_5
REMARK    4  A    between atoms: C_8  and  C_9
REMARK    5  A    between atoms: C_9  and  N_10
REMARK    6  A    between atoms: C_11  and  C_13
REMARK                            x       y       z     vdW  Elec       q    Type
REMARK                         _______ _______ _______ _____ _____    ______ ____
ROOT
ATOM      1  C   UNL     1      48.176   4.900  16.233  0.00  0.00    +0.000 A 
ATOM      2  C   UNL     1      48.640   6.127  15.741  0.00  0.00    +0.000 A 
ATOM      3  C   UNL     1      48.156   6.641  14.533  0.00  0.00    +0.000 A 
ATOM      4  C   UNL     1      47.181   5.951  13.802  0.00  0.00    +0.000 A 
ATOM      5  C   UNL     1      46.708   4.730  14.300  0.00  0.00    +0.000 A 
ATOM      6  C   UNL     1      47.193   4.215  15.509  0.00  0.00    +0.000 A 
ENDROOT
BRANCH   1   7
ATOM      7  C   UNL     1      48.722   4.335  17.520  0.00  0.00    +0.000 C 
BRANCH   7  10
ATOM      8  O   UNL     1      50.572   4.693  19.541  0.00  0.00    +0.000 OA
ATOM      9  C   UNL     1      50.952   4.158  18.501  0.00  0.00    +0.000 C 
ATOM     10  N   UNL     1      50.121   4.005  17.418  0.00  0.00    +0.000 N 
ATOM     11  H   UNL     1      50.394   3.379  16.667  0.00  0.00    +0.000 HD
BRANCH   9  12
ATOM     12  C   UNL     1      52.335   3.692  18.347  0.00  0.00    +0.000 A 
ATOM     13  C   UNL     1      53.390   4.530  18.683  0.00  0.00    +0.000 A 
ATOM     14  S   UNL     1      54.925   3.832  18.431  0.00  0.00    +0.000 S 
ATOM     15  C   UNL     1      54.235   2.366  17.914  0.00  0.00    +0.000 A 
ATOM     16  N   UNL     1      55.016   1.305  17.575  0.00  0.00    +0.000 NA
ATOM     17  C   UNL     1      54.358   0.244  17.243  0.00  0.00    +0.000 A 
ATOM     18  N   UNL     1      52.990   0.152  17.207  0.00  0.00    +0.000 N 
ATOM     19  C   UNL     1      52.163   1.209  17.502  0.00  0.00    +0.000 A 
ATOM     20  O   UNL     1      50.944   1.109  17.405  0.00  0.00    +0.000 OA
ATOM     21  C   UNL     1      52.852   2.420  17.905  0.00  0.00    +0.000 A 
ATOM     22  H   UNL     1      52.536  -0.704  16.923  0.00  0.00    +0.000 HD
ENDBRANCH   9  12
ENDBRANCH   7  10
ENDBRANCH   1   7
BRANCH   4  23
ATOM     23  C   UNL     1      46.632   6.523  12.521  0.00  0.00    +0.000 C 
BRANCH  23  24
ATOM     24  N   UNL     1      46.083   5.525  11.638  0.00  0.00    +0.000 N 
ATOM     25  C   UNL     1      44.836   5.703  11.079  0.00  0.00    +0.000 C 
ATOM     26  O   UNL     1      44.106   6.650  11.365  0.00  0.00    +0.000 OA
ATOM     27  H   UNL     1      46.665   4.801  11.226  0.00  0.00    +0.000 HD
BRANCH  25  28
ATOM     28  C   UNL     1      44.377   4.596  10.127  0.00  0.00    +0.000 C 
ATOM     29  C   UNL     1      44.882   3.231  10.552  0.00  0.00    +0.000 C 
ATOM     30  C   UNL     1      44.709   2.407   9.291  0.00  0.00    +0.000 C 
ATOM     31  C   UNL     1      44.871   3.408   8.153  0.00  0.00    +0.000 C 
ATOM     32  N   UNL     1      44.957   4.739   8.768  0.00  0.00    +0.000 NA
ATOM     33  H   UNL     1      44.404   5.408   8.232  0.00  0.00    +0.000 HD
ENDBRANCH  25  28
ENDBRANCH  23  24
ENDBRANCH   4  23
TORSDOF 6
ENDMDL
MODEL 7
REMARK VINA RESULT:    -6.850      2.256      3.078
REMARK INTER + INTRA:         -10.261
REMARK INTER:                  -9.549
REMARK INTRA:                  -0.712
REMARK UNBOUND:                -1.008
REMARK  Name = 
REMARK  6 active torsions:
REMARK  status: ('A' for Active; 'I' for Inactive)
REMARK    1  A    between atoms: C_2  and  C_20
REMARK    2  A    between atoms: N_3  and  C_4
REMARK    3  A    between atoms: C_4  and  C_5
REMARK    4  A    between atoms: C_8  and  C_9
REMARK    5  A    between atoms: C_9  and  N_10
REMARK    6  A    between atoms: C_11  and  C_13
REMARK                            x       y       z     vdW  Elec       q    Type
REMARK                         _______ _______ _______ _____ _____    ______ ____
ROOT
ATOM      1  C   UNL     1      46.736   6.354  13.129  0.00  0.00    +0.000 A 
ATOM      2  C   UNL     1      46.343   5.158  13.748  0.00  0.00    +0.000 A 
ATOM      3  C   UNL     1      45.579   4.213  13.055  0.00  0.00    +0.000 A 
ATOM      4  C   UNL     1      45.210   4.431  11.722  0.00  0.00    +0.000 A 
ATOM      5  C   UNL     1      45.612   5.620  11.099  0.00  0.00    +0.000 A 
ATOM      6  C   UNL     1      46.377   6.567  11.793  0.00  0.00    +0.000 A 
ENDROOT
BRANCH   1   7
ATOM      7  C   UNL     1      47.533   7.383  13.889  0.00  0.00    +0.000 C 
BRANCH   7  10
ATOM      8  O   UNL     1      50.146   6.984  14.698  0.00  0.00    +0.000 OA
ATOM      9  C   UNL     1      49.253   6.808  15.525  0.00  0.00    +0.000 C 
ATOM     10  N   UNL     1      47.924   6.914  15.194  0.00  0.00    +0.000 N 
ATOM     11  H   UNL     1      47.231   6.974  15.933  0.00  0.00    +0.000 HD
BRANCH   9  12
ATOM     12  C   UNL     1      49.563   6.432  16.909  0.00  0.00    +0.000 A 
ATOM     13  C   UNL     1      49.694   5.092  17.250  0.00  0.00    +0.000 A 
ATOM     14  S   UNL     1      50.043   4.836  18.899  0.00  0.00    +0.000 S 
ATOM     15  C   UNL     1      50.084   6.510  19.207  0.00  0.00    +0.000 A 
ATOM     16  N   UNL     1      50.375   6.986  20.446  0.00  0.00    +0.000 NA
ATOM     17  C   UNL     1      50.414   8.276  20.526  0.00  0.00    +0.000 A 
ATOM     18  N   UNL     1      50.175   9.129  19.480  0.00  0.00    +0.000 N 
ATOM     19  C   UNL     1      49.839   8.693  18.221  0.00  0.00    +0.000 A 
ATOM     20  O   UNL     1      49.576   9.485  17.321  0.00  0.00    +0.000 OA
ATOM     21  C   UNL     1      49.805   7.251  18.072  0.00  0.00    +0.000 A 
ATOM     22  H   UNL     1      50.207  10.131  19.611  0.00  0.00    +0.000 HD
ENDBRANCH   9  12
ENDBRANCH   7  10
ENDBRANCH   1   7
BRANCH   4  23
ATOM     23  C   UNL     1      44.420   3.396  10.963  0.00  0.00    +0.000 C 
BRANCH  23  24
ATOM     24  N   UNL     1      45.145   2.818   9.861  0.00  0.00    +0.000 N 
ATOM     25  C   UNL     1      45.005   3.334   8.591  0.00  0.00    +0.000 C 
ATOM     26  O   UNL     1      44.209   4.232   8.319  0.00  0.00    +0.000 OA
ATOM     27  H   UNL     1      45.930   2.191  10.011  0.00  0.00    +0.000 HD
BRANCH  25  28
ATOM     28  C   UNL     1      45.857   2.664   7.509  0.00  0.00    +0.000 C 
ATOM     29  C   UNL     1      46.460   1.357   7.986  0.00  0.00    +0.000 C 
ATOM     30  C   UNL     1      47.568   1.118   6.980  0.00  0.00    +0.000 C 
ATOM     31  C   UNL     1      48.003   2.513   6.547  0.00  0.00    +0.000 C 
ATOM     32  N   UNL     1      47.060   3.459   7.161  0.00  0.00    +0.000 NA
ATOM     33  H   UNL     1      46.806   4.184   6.489  0.00  0.00    +0.000 HD
ENDBRANCH  25  28
ENDBRANCH  23  24
ENDBRANCH   4  23
TORSDOF 6
ENDMDL
MODEL 8
REMARK VINA RESULT:    -6.812      2.821      4.013
REMARK INTER + INTRA:         -10.210
REMARK INTER:                  -9.324
REMARK INTRA:                  -0.886
REMARK UNBOUND:                -1.008
REMARK  Name = 
REMARK  6 active torsions:
REMARK  status: ('A' for Active; 'I' for Inactive)
REMARK    1  A    between atoms: C_2  and  C_20
REMARK    2  A    between atoms: N_3  and  C_4
REMARK    3  A    between atoms: C_4  and  C_5
REMARK    4  A    between atoms: C_8  and  C_9
REMARK    5  A    between atoms: C_9  and  N_10
REMARK    6  A    between atoms: C_11  and  C_13
REMARK                            x       y       z     vdW  Elec       q    Type
REMARK                         _______ _______ _______ _____ _____    ______ ____
ROOT
ATOM      1  C   UNL     1      47.904   6.987  14.037  0.00  0.00    +0.000 A 
ATOM      2  C   UNL     1      47.056   7.400  12.999  0.00  0.00    +0.000 A 
ATOM      3  C   UNL     1      46.113   6.521  12.456  0.00  0.00    +0.000 A 
ATOM      4  C   UNL     1      45.979   5.219  12.954  0.00  0.00    +0.000 A 
ATOM      5  C   UNL     1      46.818   4.810  13.999  0.00  0.00    +0.000 A 
ATOM      6  C   UNL     1      47.763   5.689  14.543  0.00  0.00    +0.000 A 
ENDROOT
BRANCH   1   7
ATOM      7  C   UNL     1      48.940   7.927  14.599  0.00  0.00    +0.000 C 
BRANCH   7  10
ATOM      8  O   UNL     1      49.611   7.670  17.267  0.00  0.00    +0.000 OA
ATOM      9  C   UNL     1      50.316   7.097  16.439  0.00  0.00    +0.000 C 
ATOM     10  N   UNL     1      50.101   7.227  15.088  0.00  0.00    +0.000 N 
ATOM     11  H   UNL     1      50.556   6.584  14.448  0.00  0.00    +0.000 HD
BRANCH   9  12
ATOM     12  C   UNL     1      51.458   6.273  16.851  0.00  0.00    +0.000 A 
ATOM     13  C   UNL     1      52.724   6.836  16.933  0.00  0.00    +0.000 A 
ATOM     14  S   UNL     1      53.933   5.735  17.416  0.00  0.00    +0.000 S 
ATOM     15  C   UNL     1      52.799   4.478  17.584  0.00  0.00    +0.000 A 
ATOM     16  N   UNL     1      53.178   3.246  18.016  0.00  0.00    +0.000 NA
ATOM     17  C   UNL     1      52.207   2.402  18.138  0.00  0.00    +0.000 A 
ATOM     18  N   UNL     1      50.894   2.677  17.856  0.00  0.00    +0.000 N 
ATOM     19  C   UNL     1      50.471   3.895  17.380  0.00  0.00    +0.000 A 
ATOM     20  O   UNL     1      49.296   4.090  17.083  0.00  0.00    +0.000 OA
ATOM     21  C   UNL     1      51.520   4.887  17.247  0.00  0.00    +0.000 A 
ATOM     22  H   UNL     1      50.182   1.967  17.958  0.00  0.00    +0.000 HD
ENDBRANCH   9  12
ENDBRANCH   7  10
ENDBRANCH   1   7
BRANCH   4  23
ATOM     23  C   UNL     1      44.936   4.286  12.395  0.00  0.00    +0.000 C 
BRANCH  23  24
ATOM     24  N   UNL     1      45.249   3.805  11.073  0.00  0.00    +0.000 N 
ATOM     25  C   UNL     1      44.451   4.147  10.004  0.00  0.00    +0.000 C 
ATOM     26  O   UNL     1      43.408   4.787  10.127  0.00  0.00    +0.000 OA
ATOM     27  H   UNL     1      46.159   3.411  10.852  0.00  0.00    +0.000 HD
BRANCH  25  28
ATOM     28  C   UNL     1      44.906   3.611   8.643  0.00  0.00    +0.000 C 
ATOM     29  C   UNL     1      45.610   2.273   8.764  0.00  0.00    +0.000 C 
ATOM     30  C   UNL     1      46.339   2.163   7.439  0.00  0.00    +0.000 C 
ATOM     31  C   UNL     1      46.634   3.604   7.041  0.00  0.00    +0.000 C 
ATOM     32  N   UNL     1      45.949   4.462   8.018  0.00  0.00    +0.000 NA
ATOM     33  H   UNL     1      45.505   5.247   7.541  0.00  0.00    +0.000 HD
ENDBRANCH  25  28
ENDBRANCH  23  24
ENDBRANCH   4  23
TORSDOF 6
ENDMDL
MODEL 9
REMARK VINA RESULT:    -6.590      2.765      3.918
REMARK INTER + INTRA:          -9.910
REMARK INTER:                  -8.844
REMARK INTRA:                  -1.066
REMARK UNBOUND:                -1.008
REMARK  Name = 
REMARK  6 active torsions:
REMARK  status: ('A' for Active; 'I' for Inactive)
REMARK    1  A    between atoms: C_2  and  C_20
REMARK    2  A    between atoms: N_3  and  C_4
REMARK    3  A    between atoms: C_4  and  C_5
REMARK    4  A    between atoms: C_8  and  C_9
REMARK    5  A    between atoms: C_9  and  N_10
REMARK    6  A    between atoms: C_11  and  C_13
REMARK                            x       y       z     vdW  Elec       q    Type
REMARK                         _______ _______ _______ _____ _____    ______ ____
ROOT
ATOM      1  C   UNL     1      47.367   8.032  13.636  0.00  0.00    +0.000 A 
ATOM      2  C   UNL     1      47.446   6.655  13.384  0.00  0.00    +0.000 A 
ATOM      3  C   UNL     1      46.436   6.001  12.671  0.00  0.00    +0.000 A 
ATOM      4  C   UNL     1      45.337   6.712  12.173  0.00  0.00    +0.000 A 
ATOM      5  C   UNL     1      45.264   8.090  12.414  0.00  0.00    +0.000 A 
ATOM      6  C   UNL     1      46.275   8.746  13.128  0.00  0.00    +0.000 A 
ENDROOT
BRANCH   1   7
ATOM      7  C   UNL     1      48.443   8.728  14.431  0.00  0.00    +0.000 C 
BRANCH   7  10
ATOM      8  O   UNL     1      49.909  10.790  13.318  0.00  0.00    +0.000 OA
ATOM      9  C   UNL     1      50.425   9.675  13.363  0.00  0.00    +0.000 C 
ATOM     10  N   UNL     1      49.745   8.578  13.832  0.00  0.00    +0.000 N 
ATOM     11  H   UNL     1      50.259   7.731  14.053  0.00  0.00    +0.000 HD
BRANCH   9  12
ATOM     12  C   UNL     1      51.790   9.449  12.874  0.00  0.00    +0.000 A 
ATOM     13  C   UNL     1      52.852  10.142  13.440  0.00  0.00    +0.000 A 
ATOM     14  S   UNL     1      54.363   9.767  12.745  0.00  0.00    +0.000 S 
ATOM     15  C   UNL     1      53.659   8.626  11.697  0.00  0.00    +0.000 A 
ATOM     16  N   UNL     1      54.423   7.898  10.840  0.00  0.00    +0.000 NA
ATOM     17  C   UNL     1      53.762   7.040  10.135  0.00  0.00    +0.000 A 
ATOM     18  N   UNL     1      52.406   6.853  10.203  0.00  0.00    +0.000 N 
ATOM     19  C   UNL     1      51.591   7.592  11.025  0.00  0.00    +0.000 A 
ATOM     20  O   UNL     1      50.373   7.438  11.019  0.00  0.00    +0.000 OA
ATOM     21  C   UNL     1      52.286   8.556  11.856  0.00  0.00    +0.000 A 
ATOM     22  H   UNL     1      51.947   6.173   9.612  0.00  0.00    +0.000 HD
ENDBRANCH   9  12
ENDBRANCH   7  10
ENDBRANCH   1   7
BRANCH   4  23
ATOM     23  C   UNL     1      44.268   6.014  11.372  0.00  0.00    +0.000 C 
BRANCH  23  24
ATOM     24  N   UNL     1      44.773   5.364  10.190  0.00  0.00    +0.000 N 
ATOM     25  C   UNL     1      44.285   4.132   9.813  0.00  0.00    +0.000 C 
ATOM     26  O   UNL     1      43.482   3.496  10.493  0.00  0.00    +0.000 OA
ATOM     27  H   UNL     1      45.310   5.872   9.492  0.00  0.00    +0.000 HD
BRANCH  25  28
ATOM     28  C   UNL     1      44.868   3.560   8.518  0.00  0.00    +0.000 C 
ATOM     29  C   UNL     1      45.612   2.260   8.753  0.00  0.00    +0.000 C 
ATOM     30  C   UNL     1      46.448   2.126   7.495  0.00  0.00    +0.000 C 
ATOM     31  C   UNL     1      46.717   3.561   7.057  0.00  0.00    +0.000 C 
ATOM     32  N   UNL     1      45.923   4.428   7.938  0.00  0.00    +0.000 NA
ATOM     33  H   UNL     1      45.488   5.174   7.394  0.00  0.00    +0.000 HD
ENDBRANCH  25  28
ENDBRANCH  23  24
ENDBRANCH   4  23
TORSDOF 6
ENDMDL
