MODEL 1
REMARK VINA RESULT:    -8.353      0.000      0.000
REMARK INTER + INTRA:         -12.598
REMARK INTER:                 -11.527
REMARK INTRA:                  -1.070
REMARK UNBOUND:                -1.070
REMARK  Name = 
REMARK  8 active torsions:
REMARK  status: ('A' for Active; 'I' for Inactive)
REMARK    1  A    between atoms: C_1  and  C_2
REMARK    2  A    between atoms: C_2  and  N_3
REMARK    3  A    between atoms: C_2  and  C_19
REMARK    4  A    between atoms: N_3  and  C_4
REMARK    5  A    between atoms: C_7  and  C_8
REMARK    6  A    between atoms: C_8  and  O_9
REMARK    7  A    between atoms: C_8  and  C_10
REMARK    8  A    between atoms: C_10  and  C_11
REMARK                            x       y       z     vdW  Elec       q    Type
REMARK                         _______ _______ _______ _____ _____    ______ ____
ROOT
ATOM      1  C   UNL     1      46.392   6.107  13.150  0.00  0.00    +0.000 A 
ATOM      2  C   UNL     1      45.586   5.073  13.634  0.00  0.00    +0.000 A 
ATOM      3  C   UNL     1      44.917   4.214  12.759  0.00  0.00    +0.000 A 
ATOM      4  C   UNL     1      45.032   4.374  11.372  0.00  0.00    +0.000 A 
ATOM      5  C   UNL     1      45.740   5.484  10.894  0.00  0.00    +0.000 A 
ATOM      6  C   UNL     1      46.404   6.341  11.775  0.00  0.00    +0.000 A 
ENDROOT
BRANCH   1   7
ATOM      7  N   UNL     1      47.161   6.945  13.956  0.00  0.00    +0.000 N 
ATOM      8  H   UNL     1      46.603   7.386  14.680  0.00  0.00    +0.000 HD
BRANCH   7  10
ATOM      9  C   UNL     1      49.525   7.397  13.769  0.00  0.00    +0.000 C 
ATOM     10  C   UNL     1      48.476   6.483  14.414  0.00  0.00    +0.000 C 
BRANCH  10  11
ATOM     11  C   UNL     1      48.680   6.420  15.916  0.00  0.00    +0.000 A 
ATOM     12  C   UNL     1      49.047   7.491  16.716  0.00  0.00    +0.000 A 
ATOM     13  S   UNL     1      49.189   7.080  18.368  0.00  0.00    +0.000 S 
ATOM     14  C   UNL     1      48.760   5.460  18.065  0.00  0.00    +0.000 A 
ATOM     15  N   UNL     1      48.688   4.549  19.071  0.00  0.00    +0.000 NA
ATOM     16  C   UNL     1      48.336   3.365  18.689  0.00  0.00    +0.000 A 
ATOM     17  N   UNL     1      48.049   3.010  17.394  0.00  0.00    +0.000 N 
ATOM     18  C   UNL     1      48.127   3.892  16.339  0.00  0.00    +0.000 A 
ATOM     19  O   UNL     1      47.891   3.539  15.188  0.00  0.00    +0.000 OA
ATOM     20  C   UNL     1      48.510   5.238  16.725  0.00  0.00    +0.000 A 
ATOM     21  H   UNL     1      47.781   2.064  17.163  0.00  0.00    +0.000 HD
ENDBRANCH  10  11
ENDBRANCH   7  10
ENDBRANCH   1   7
BRANCH   4  22
ATOM     22  C   UNL     1      44.388   3.357  10.451  0.00  0.00    +0.000 C 
BRANCH  22  23
ATOM     23  O   UNL     1      43.063   3.137  10.923  0.00  0.00    +0.000 OA
ATOM     24  H   UNL     1      43.119   3.001  11.885  0.00  0.00    +0.000 HD
ENDBRANCH  22  23
BRANCH  22  25
ATOM     25  C   UNL     1      44.423   3.774   8.970  0.00  0.00    +0.000 C 
BRANCH  25  26
ATOM     26  C   UNL     1      45.459   3.051   8.152  0.00  0.00    +0.000 A 
ATOM     27  C   UNL     1      45.846   1.749   8.451  0.00  0.00    +0.000 A 
ATOM     28  C   UNL     1      46.817   1.140   7.661  0.00  0.00    +0.000 A 
ATOM     29  C   UNL     1      47.381   1.850   6.607  0.00  0.00    +0.000 A 
ATOM     30  C   UNL     1      46.951   3.145   6.386  0.00  0.00    +0.000 A 
ATOM     31  N   UNL     1      46.010   3.758   7.133  0.00  0.00    +0.000 NA
ENDBRANCH  25  26
ENDBRANCH  22  25
ENDBRANCH   4  22
TORSDOF 7
ENDMDL
MODEL 2
REMARK VINA RESULT:    -7.631      1.855      2.429
REMARK INTER + INTRA:         -11.600
REMARK INTER:                 -10.197
REMARK INTRA:                  -1.404
REMARK UNBOUND:                -1.070
REMARK  Name = 
REMARK  8 active torsions:
REMARK  status: ('A' for Active; 'I' for Inactive)
REMARK    1  A    between atoms: C_1  and  C_2
REMARK    2  A    between atoms: C_2  and  N_3
REMARK    3  A    between atoms: C_2  and  C_19
REMARK    4  A    between atoms: N_3  and  C_4
REMARK    5  A    between atoms: C_7  and  C_8
REMARK    6  A    between atoms: C_8  and  O_9
REMARK    7  A    between atoms: C_8  and  C_10
REMARK    8  A    between atoms: C_10  and  C_11
REMARK                            x       y       z     vdW  Elec       q    Type
REMARK                         _______ _______ _______ _____ _____    ______ ____
ROOT
ATOM      1  C   UNL     1      47.540   6.830  13.513  0.00  0.00    +0.000 A 
ATOM      2  C   UNL     1      47.292   5.481  13.776  0.00  0.00    +0.000 A 
ATOM      3  C   UNL     1      46.053   4.907  13.483  0.00  0.00    +0.000 A 
ATOM      4  C   UNL     1      45.024   5.675  12.924  0.00  0.00    +0.000 A 
ATOM      5  C   UNL     1      45.236   7.052  12.776  0.00  0.00    +0.000 A 
ATOM      6  C   UNL     1      46.476   7.619  13.075  0.00  0.00    +0.000 A 
ENDROOT
BRANCH   1   7
ATOM      7  N   UNL     1      48.776   7.450  13.693  0.00  0.00    +0.000 N 
ATOM      8  H   UNL     1      48.742   8.434  13.445  0.00  0.00    +0.000 HD
BRANCH   7  10
ATOM      9  C   UNL     1      50.937   7.782  14.715  0.00  0.00    +0.000 C 
ATOM     10  C   UNL     1      49.546   7.166  14.908  0.00  0.00    +0.000 C 
BRANCH  10  11
ATOM     11  C   UNL     1      48.936   7.635  16.215  0.00  0.00    +0.000 A 
ATOM     12  C   UNL     1      48.556   8.938  16.494  0.00  0.00    +0.000 A 
ATOM     13  S   UNL     1      47.898   9.127  18.060  0.00  0.00    +0.000 S 
ATOM     14  C   UNL     1      48.098   7.472  18.410  0.00  0.00    +0.000 A 
ATOM     15  N   UNL     1      47.728   6.956  19.611  0.00  0.00    +0.000 NA
ATOM     16  C   UNL     1      47.927   5.683  19.725  0.00  0.00    +0.000 A 
ATOM     17  N   UNL     1      48.463   4.881  18.746  0.00  0.00    +0.000 N 
ATOM     18  C   UNL     1      48.869   5.362  17.521  0.00  0.00    +0.000 A 
ATOM     19  O   UNL     1      49.369   4.626  16.677  0.00  0.00    +0.000 OA
ATOM     20  C   UNL     1      48.655   6.787  17.348  0.00  0.00    +0.000 A 
ATOM     21  H   UNL     1      48.593   3.892  18.900  0.00  0.00    +0.000 HD
ENDBRANCH  10  11
ENDBRANCH   7  10
ENDBRANCH   1   7
BRANCH   4  22
ATOM     22  C   UNL     1      43.732   4.998  12.511  0.00  0.00    +0.000 C 
BRANCH  22  23
ATOM     23  O   UNL     1      42.703   5.491  13.363  0.00  0.00    +0.000 OA
ATOM     24  H   UNL     1      42.503   4.790  14.007  0.00  0.00    +0.000 HD
ENDBRANCH  22  23
BRANCH  22  25
ATOM     25  C   UNL     1      43.400   5.184  11.019  0.00  0.00    +0.000 C 
BRANCH  25  26
ATOM     26  C   UNL     1      44.182   4.288  10.098  0.00  0.00    +0.000 A 
ATOM     27  C   UNL     1      45.086   4.803   9.174  0.00  0.00    +0.000 A 
ATOM     28  C   UNL     1      45.771   3.920   8.344  0.00  0.00    +0.000 A 
ATOM     29  C   UNL     1      45.526   2.556   8.450  0.00  0.00    +0.000 A 
ATOM     30  C   UNL     1      44.603   2.128   9.385  0.00  0.00    +0.000 A 
ATOM     31  N   UNL     1      43.927   2.960  10.204  0.00  0.00    +0.000 NA
ENDBRANCH  25  26
ENDBRANCH  22  25
ENDBRANCH   4  22
TORSDOF 7
ENDMDL
MODEL 3
REMARK VINA RESULT:    -7.414      2.041      2.839
REMARK INTER + INTRA:         -11.301
REMARK INTER:                 -10.446
REMARK INTRA:                  -0.856
REMARK UNBOUND:                -1.070
REMARK  Name = 
REMARK  8 active torsions:
REMARK  status: ('A' for Active; 'I' for Inactive)
REMARK    1  A    between atoms: C_1  and  C_2
REMARK    2  A    between atoms: C_2  and  N_3
REMARK    3  A    between atoms: C_2  and  C_19
REMARK    4  A    between atoms: N_3  and  C_4
REMARK    5  A    between atoms: C_7  and  C_8
REMARK    6  A    between atoms: C_8  and  O_9
REMARK    7  A    between atoms: C_8  and  C_10
REMARK    8  A    between atoms: C_10  and  C_11
REMARK                            x       y       z     vdW  Elec       q    Type
REMARK                         _______ _______ _______ _____ _____    ______ ____
ROOT
ATOM      1  C   UNL     1      46.533   6.082  13.148  0.00  0.00    +0.000 A 
ATOM      2  C   UNL     1      46.559   4.713  13.427  0.00  0.00    +0.000 A 
ATOM      3  C   UNL     1      45.790   3.814  12.684  0.00  0.00    +0.000 A 
ATOM      4  C   UNL     1      44.968   4.266  11.644  0.00  0.00    +0.000 A 
ATOM      5  C   UNL     1      44.851   5.648  11.450  0.00  0.00    +0.000 A 
ATOM      6  C   UNL     1      45.620   6.541  12.199  0.00  0.00    +0.000 A 
ENDROOT
BRANCH   1   7
ATOM      7  N   UNL     1      47.339   7.026  13.783  0.00  0.00    +0.000 N 
ATOM      8  H   UNL     1      46.796   7.641  14.381  0.00  0.00    +0.000 HD
BRANCH   7  10
ATOM      9  C   UNL     1      49.723   7.376  13.646  0.00  0.00    +0.000 C 
ATOM     10  C   UNL     1      48.615   6.598  14.367  0.00  0.00    +0.000 C 
BRANCH  10  11
ATOM     11  C   UNL     1      48.751   6.751  15.869  0.00  0.00    +0.000 A 
ATOM     12  C   UNL     1      49.100   5.734  16.745  0.00  0.00    +0.000 A 
ATOM     13  S   UNL     1      49.167   6.243  18.375  0.00  0.00    +0.000 S 
ATOM     14  C   UNL     1      48.737   7.837  17.959  0.00  0.00    +0.000 A 
ATOM     15  N   UNL     1      48.616   8.805  18.905  0.00  0.00    +0.000 NA
ATOM     16  C   UNL     1      48.298   9.967  18.437  0.00  0.00    +0.000 A 
ATOM     17  N   UNL     1      48.090  10.249  17.108  0.00  0.00    +0.000 N 
ATOM     18  C   UNL     1      48.183   9.299  16.116  0.00  0.00    +0.000 A 
ATOM     19  O   UNL     1      47.966   9.574  14.941  0.00  0.00    +0.000 OA
ATOM     20  C   UNL     1      48.548   7.979  16.597  0.00  0.00    +0.000 A 
ATOM     21  H   UNL     1      47.842  11.181  16.808  0.00  0.00    +0.000 HD
ENDBRANCH  10  11
ENDBRANCH   7  10
ENDBRANCH   1   7
BRANCH   4  22
ATOM     22  C   UNL     1      44.236   3.255  10.783  0.00  0.00    +0.000 C 
BRANCH  22  23
ATOM     23  O   UNL     1      42.920   3.121  11.311  0.00  0.00    +0.000 OA
ATOM     24  H   UNL     1      42.904   3.589  12.165  0.00  0.00    +0.000 HD
ENDBRANCH  22  23
BRANCH  22  25
ATOM     25  C   UNL     1      44.235   3.621   9.288  0.00  0.00    +0.000 C 
BRANCH  25  26
ATOM     26  C   UNL     1      45.339   2.974   8.496  0.00  0.00    +0.000 A 
ATOM     27  C   UNL     1      46.115   3.702   7.599  0.00  0.00    +0.000 A 
ATOM     28  C   UNL     1      47.114   3.042   6.890  0.00  0.00    +0.000 A 
ATOM     29  C   UNL     1      47.301   1.678   7.084  0.00  0.00    +0.000 A 
ATOM     30  C   UNL     1      46.477   1.027   7.983  0.00  0.00    +0.000 A 
ATOM     31  N   UNL     1      45.504   1.641   8.686  0.00  0.00    +0.000 NA
ENDBRANCH  25  26
ENDBRANCH  22  25
ENDBRANCH   4  22
TORSDOF 7
ENDMDL
MODEL 4
REMARK VINA RESULT:    -7.341      2.641      4.150
REMARK INTER + INTRA:         -11.201
REMARK INTER:                 -10.226
REMARK INTRA:                  -0.975
REMARK UNBOUND:                -1.070
REMARK  Name = 
REMARK  8 active torsions:
REMARK  status: ('A' for Active; 'I' for Inactive)
REMARK    1  A    between atoms: C_1  and  C_2
REMARK    2  A    between atoms: C_2  and  N_3
REMARK    3  A    between atoms: C_2  and  C_19
REMARK    4  A    between atoms: N_3  and  C_4
REMARK    5  A    between atoms: C_7  and  C_8
REMARK    6  A    between atoms: C_8  and  O_9
REMARK    7  A    between atoms: C_8  and  C_10
REMARK    8  A    between atoms: C_10  and  C_11
REMARK                            x       y       z     vdW  Elec       q    Type
REMARK                         _______ _______ _______ _____ _____    ______ ____
ROOT
ATOM      1  C   UNL     1      46.765   5.763  13.434  0.00  0.00    +0.000 A 
ATOM      2  C   UNL     1      46.033   4.647  13.850  0.00  0.00    +0.000 A 
ATOM      3  C   UNL     1      45.192   3.969  12.964  0.00  0.00    +0.000 A 
ATOM      4  C   UNL     1      45.057   4.397  11.638  0.00  0.00    +0.000 A 
ATOM      5  C   UNL     1      45.695   5.585  11.261  0.00  0.00    +0.000 A 
ATOM      6  C   UNL     1      46.532   6.260  12.152  0.00  0.00    +0.000 A 
ENDROOT
BRANCH   1   7
ATOM      7  N   UNL     1      47.691   6.434  14.232  0.00  0.00    +0.000 N 
ATOM      8  H   UNL     1      48.333   5.791  14.683  0.00  0.00    +0.000 HD
BRANCH   7  10
ATOM      9  C   UNL     1      47.511   8.841  14.236  0.00  0.00    +0.000 C 
ATOM     10  C   UNL     1      48.326   7.651  13.715  0.00  0.00    +0.000 C 
BRANCH  10  11
ATOM     11  C   UNL     1      49.796   7.832  14.042  0.00  0.00    +0.000 A 
ATOM     12  C   UNL     1      50.411   7.406  15.209  0.00  0.00    +0.000 A 
ATOM     13  S   UNL     1      52.081   7.764  15.260  0.00  0.00    +0.000 S 
ATOM     14  C   UNL     1      52.034   8.493  13.722  0.00  0.00    +0.000 A 
ATOM     15  N   UNL     1      53.152   9.020  13.157  0.00  0.00    +0.000 NA
ATOM     16  C   UNL     1      52.963   9.527  11.982  0.00  0.00    +0.000 A 
ATOM     17  N   UNL     1      51.758   9.553  11.323  0.00  0.00    +0.000 N 
ATOM     18  C   UNL     1      50.596   9.050  11.862  0.00  0.00    +0.000 A 
ATOM     19  O   UNL     1      49.529   9.112  11.260  0.00  0.00    +0.000 OA
ATOM     20  C   UNL     1      50.764   8.462  13.178  0.00  0.00    +0.000 A 
ATOM     21  H   UNL     1      51.679   9.966  10.404  0.00  0.00    +0.000 HD
ENDBRANCH  10  11
ENDBRANCH   7  10
ENDBRANCH   1   7
BRANCH   4  22
ATOM     22  C   UNL     1      44.227   3.573  10.673  0.00  0.00    +0.000 C 
BRANCH  22  23
ATOM     23  O   UNL     1      42.882   3.599  11.139  0.00  0.00    +0.000 OA
ATOM     24  H   UNL     1      42.860   4.183  11.918  0.00  0.00    +0.000 HD
ENDBRANCH  22  23
BRANCH  22  25
ATOM     25  C   UNL     1      44.353   4.043   9.212  0.00  0.00    +0.000 C 
BRANCH  25  26
ATOM     26  C   UNL     1      45.356   3.268   8.401  0.00  0.00    +0.000 A 
ATOM     27  C   UNL     1      45.638   1.933   8.672  0.00  0.00    +0.000 A 
ATOM     28  C   UNL     1      46.583   1.276   7.890  0.00  0.00    +0.000 A 
ATOM     29  C   UNL     1      47.227   1.970   6.872  0.00  0.00    +0.000 A 
ATOM     30  C   UNL     1      46.899   3.298   6.677  0.00  0.00    +0.000 A 
ATOM     31  N   UNL     1      45.985   3.959   7.417  0.00  0.00    +0.000 NA
ENDBRANCH  25  26
ENDBRANCH  22  25
ENDBRANCH   4  22
TORSDOF 7
ENDMDL
MODEL 5
REMARK VINA RESULT:    -7.121      2.513      3.230
REMARK INTER + INTRA:         -10.898
REMARK INTER:                 -10.039
REMARK INTRA:                  -0.858
REMARK UNBOUND:                -1.070
REMARK  Name = 
REMARK  8 active torsions:
REMARK  status: ('A' for Active; 'I' for Inactive)
REMARK    1  A    between atoms: C_1  and  C_2
REMARK    2  A    between atoms: C_2  and  N_3
REMARK    3  A    between atoms: C_2  and  C_19
REMARK    4  A    between atoms: N_3  and  C_4
REMARK    5  A    between atoms: C_7  and  C_8
REMARK    6  A    between atoms: C_8  and  O_9
REMARK    7  A    between atoms: C_8  and  C_10
REMARK    8  A    between atoms: C_10  and  C_11
REMARK                            x       y       z     vdW  Elec       q    Type
REMARK                         _______ _______ _______ _____ _____    ______ ____
ROOT
ATOM      1  C   UNL     1      46.707   5.727  13.489  0.00  0.00    +0.000 A 
ATOM      2  C   UNL     1      46.646   4.332  13.530  0.00  0.00    +0.000 A 
ATOM      3  C   UNL     1      45.771   3.626  12.702  0.00  0.00    +0.000 A 
ATOM      4  C   UNL     1      44.926   4.302  11.813  0.00  0.00    +0.000 A 
ATOM      5  C   UNL     1      44.902   5.702  11.863  0.00  0.00    +0.000 A 
ATOM      6  C   UNL     1      45.778   6.401  12.697  0.00  0.00    +0.000 A 
ENDROOT
BRANCH   1   7
ATOM      7  N   UNL     1      47.616   6.494  14.217  0.00  0.00    +0.000 N 
ATOM      8  H   UNL     1      48.381   5.931  14.574  0.00  0.00    +0.000 HD
BRANCH   7  10
ATOM      9  C   UNL     1      47.439   8.867  14.619  0.00  0.00    +0.000 C 
ATOM     10  C   UNL     1      48.029   7.800  13.690  0.00  0.00    +0.000 C 
BRANCH  10  11
ATOM     11  C   UNL     1      49.521   8.012  13.518  0.00  0.00    +0.000 A 
ATOM     12  C   UNL     1      50.130   8.492  12.368  0.00  0.00    +0.000 A 
ATOM     13  S   UNL     1      51.828   8.615  12.507  0.00  0.00    +0.000 S 
ATOM     14  C   UNL     1      51.801   8.036  14.108  0.00  0.00    +0.000 A 
ATOM     15  N   UNL     1      52.945   7.895  14.827  0.00  0.00    +0.000 NA
ATOM     16  C   UNL     1      52.764   7.458  16.031  0.00  0.00    +0.000 A 
ATOM     17  N   UNL     1      51.543   7.151  16.580  0.00  0.00    +0.000 N 
ATOM     18  C   UNL     1      50.359   7.259  15.886  0.00  0.00    +0.000 A 
ATOM     19  O   UNL     1      49.286   6.952  16.394  0.00  0.00    +0.000 OA
ATOM     20  C   UNL     1      50.515   7.755  14.531  0.00  0.00    +0.000 A 
ATOM     21  H   UNL     1      51.472   6.812  17.529  0.00  0.00    +0.000 HD
ENDBRANCH  10  11
ENDBRANCH   7  10
ENDBRANCH   1   7
BRANCH   4  22
ATOM     22  C   UNL     1      44.072   3.504  10.847  0.00  0.00    +0.000 C 
BRANCH  22  23
ATOM     23  O   UNL     1      42.737   3.527  11.342  0.00  0.00    +0.000 OA
ATOM     24  H   UNL     1      42.672   2.836  12.024  0.00  0.00    +0.000 HD
ENDBRANCH  22  23
BRANCH  22  25
ATOM     25  C   UNL     1      44.170   4.007   9.395  0.00  0.00    +0.000 C 
BRANCH  25  26
ATOM     26  C   UNL     1      45.210   3.301   8.569  0.00  0.00    +0.000 A 
ATOM     27  C   UNL     1      45.497   1.952   8.755  0.00  0.00    +0.000 A 
ATOM     28  C   UNL     1      46.478   1.361   7.963  0.00  0.00    +0.000 A 
ATOM     29  C   UNL     1      47.150   2.131   7.022  0.00  0.00    +0.000 A 
ATOM     30  C   UNL     1      46.815   3.467   6.911  0.00  0.00    +0.000 A 
ATOM     31  N   UNL     1      45.867   4.066   7.661  0.00  0.00    +0.000 NA
ENDBRANCH  25  26
ENDBRANCH  22  25
ENDBRANCH   4  22
TORSDOF 7
ENDMDL
MODEL 6
REMARK VINA RESULT:    -6.954      1.857      2.424
REMARK INTER + INTRA:         -10.666
REMARK INTER:                  -9.631
REMARK INTRA:                  -1.035
REMARK UNBOUND:                -1.070
REMARK  Name = 
REMARK  8 active torsions:
REMARK  status: ('A' for Active; 'I' for Inactive)
REMARK    1  A    between atoms: C_1  and  C_2
REMARK    2  A    between atoms: C_2  and  N_3
REMARK    3  A    between atoms: C_2  and  C_19
REMARK    4  A    between atoms: N_3  and  C_4
REMARK    5  A    between atoms: C_7  and  C_8
REMARK    6  A    between atoms: C_8  and  O_9
REMARK    7  A    between atoms: C_8  and  C_10
REMARK    8  A    between atoms: C_10  and  C_11
REMARK                            x       y       z     vdW  Elec       q    Type
REMARK                         _______ _______ _______ _____ _____    ______ ____
ROOT
ATOM      1  C   UNL     1      46.856   6.898  12.662  0.00  0.00    +0.000 A 
ATOM      2  C   UNL     1      46.870   5.553  13.044  0.00  0.00    +0.000 A 
ATOM      3  C   UNL     1      45.916   4.658  12.554  0.00  0.00    +0.000 A 
ATOM      4  C   UNL     1      44.917   5.089  11.673  0.00  0.00    +0.000 A 
ATOM      5  C   UNL     1      44.833   6.458  11.391  0.00  0.00    +0.000 A 
ATOM      6  C   UNL     1      45.788   7.348  11.886  0.00  0.00    +0.000 A 
ENDROOT
BRANCH   1   7
ATOM      7  N   UNL     1      47.825   7.828  13.035  0.00  0.00    +0.000 N 
ATOM      8  H   UNL     1      47.494   8.438  13.775  0.00  0.00    +0.000 HD
BRANCH   7  10
ATOM      9  C   UNL     1      49.941   7.675  11.883  0.00  0.00    +0.000 C 
ATOM     10  C   UNL     1      49.214   7.384  13.202  0.00  0.00    +0.000 C 
BRANCH  10  11
ATOM     11  C   UNL     1      49.974   7.981  14.370  0.00  0.00    +0.000 A 
ATOM     12  C   UNL     1      50.746   9.131  14.313  0.00  0.00    +0.000 A 
ATOM     13  S   UNL     1      51.467   9.533  15.810  0.00  0.00    +0.000 S 
ATOM     14  C   UNL     1      50.765   8.185  16.579  0.00  0.00    +0.000 A 
ATOM     15  N   UNL     1      50.980   7.934  17.897  0.00  0.00    +0.000 NA
ATOM     16  C   UNL     1      50.370   6.884  18.343  0.00  0.00    +0.000 A 
ATOM     17  N   UNL     1      49.564   6.065  17.590  0.00  0.00    +0.000 N 
ATOM     18  C   UNL     1      49.331   6.268  16.248  0.00  0.00    +0.000 A 
ATOM     19  O   UNL     1      48.628   5.504  15.595  0.00  0.00    +0.000 OA
ATOM     20  C   UNL     1      49.991   7.443  15.708  0.00  0.00    +0.000 A 
ATOM     21  H   UNL     1      49.117   5.258  18.001  0.00  0.00    +0.000 HD
ENDBRANCH  10  11
ENDBRANCH   7  10
ENDBRANCH   1   7
BRANCH   4  22
ATOM     22  C   UNL     1      43.969   4.071  11.071  0.00  0.00    +0.000 C 
BRANCH  22  23
ATOM     23  O   UNL     1      42.708   4.232  11.713  0.00  0.00    +0.000 OA
ATOM     24  H   UNL     1      42.791   4.988  12.321  0.00  0.00    +0.000 HD
ENDBRANCH  22  23
BRANCH  22  25
ATOM     25  C   UNL     1      43.864   4.173   9.538  0.00  0.00    +0.000 C 
BRANCH  25  26
ATOM     26  C   UNL     1      44.947   3.437   8.797  0.00  0.00    +0.000 A 
ATOM     27  C   UNL     1      45.780   4.086   7.890  0.00  0.00    +0.000 A 
ATOM     28  C   UNL     1      46.756   3.345   7.231  0.00  0.00    +0.000 A 
ATOM     29  C   UNL     1      46.865   1.982   7.483  0.00  0.00    +0.000 A 
ATOM     30  C   UNL     1      45.989   1.413   8.387  0.00  0.00    +0.000 A 
ATOM     31  N   UNL     1      45.036   2.106   9.044  0.00  0.00    +0.000 NA
ENDBRANCH  25  26
ENDBRANCH  22  25
ENDBRANCH   4  22
TORSDOF 7
ENDMDL
MODEL 7
REMARK VINA RESULT:    -6.823      3.343      8.188
REMARK INTER + INTRA:         -10.486
REMARK INTER:                  -9.609
REMARK INTRA:                  -0.877
REMARK UNBOUND:                -1.070
REMARK  Name = 
REMARK  8 active torsions:
REMARK  status: ('A' for Active; 'I' for Inactive)
REMARK    1  A    between atoms: C_1  and  C_2
REMARK    2  A    between atoms: C_2  and  N_3
REMARK    3  A    between atoms: C_2  and  C_19
REMARK    4  A    between atoms: N_3  and  C_4
REMARK    5  A    between atoms: C_7  and  C_8
REMARK    6  A    between atoms: C_8  and  O_9
REMARK    7  A    between atoms: C_8  and  C_10
REMARK    8  A    between atoms: C_10  and  C_11
REMARK                            x       y       z     vdW  Elec       q    Type
REMARK                         _______ _______ _______ _____ _____    ______ ____
ROOT
ATOM      1  C   UNL     1      47.463   6.029  14.075  0.00  0.00    +0.000 A 
ATOM      2  C   UNL     1      48.322   6.615  15.009  0.00  0.00    +0.000 A 
ATOM      3  C   UNL     1      48.717   5.922  16.155  0.00  0.00    +0.000 A 
ATOM      4  C   UNL     1      48.257   4.623  16.400  0.00  0.00    +0.000 A 
ATOM      5  C   UNL     1      47.302   4.087  15.526  0.00  0.00    +0.000 A 
ATOM      6  C   UNL     1      46.908   4.787  14.384  0.00  0.00    +0.000 A 
ENDROOT
BRANCH   1   7
ATOM      7  N   UNL     1      47.098   6.620  12.866  0.00  0.00    +0.000 N 
ATOM      8  H   UNL     1      47.790   6.455  12.143  0.00  0.00    +0.000 HD
BRANCH   7  10
ATOM      9  C   UNL     1      45.224   7.914  12.067  0.00  0.00    +0.000 C 
ATOM     10  C   UNL     1      45.710   6.499  12.404  0.00  0.00    +0.000 C 
BRANCH  10  11
ATOM     11  C   UNL     1      45.471   5.563  11.236  0.00  0.00    +0.000 A 
ATOM     12  C   UNL     1      45.933   5.766   9.945  0.00  0.00    +0.000 A 
ATOM     13  S   UNL     1      45.489   4.517   8.867  0.00  0.00    +0.000 S 
ATOM     14  C   UNL     1      44.670   3.666  10.093  0.00  0.00    +0.000 A 
ATOM     15  N   UNL     1      44.050   2.484   9.838  0.00  0.00    +0.000 NA
ATOM     16  C   UNL     1      43.483   1.949  10.871  0.00  0.00    +0.000 A 
ATOM     17  N   UNL     1      43.481   2.490  12.134  0.00  0.00    +0.000 N 
ATOM     18  C   UNL     1      44.079   3.692  12.436  0.00  0.00    +0.000 A 
ATOM     19  O   UNL     1      44.039   4.163  13.568  0.00  0.00    +0.000 OA
ATOM     20  C   UNL     1      44.737   4.323  11.307  0.00  0.00    +0.000 A 
ATOM     21  H   UNL     1      43.017   2.020  12.898  0.00  0.00    +0.000 HD
ENDBRANCH  10  11
ENDBRANCH   7  10
ENDBRANCH   1   7
BRANCH   4  22
ATOM     22  C   UNL     1      48.795   3.856  17.592  0.00  0.00    +0.000 C 
BRANCH  22  23
ATOM     23  O   UNL     1      47.751   3.784  18.557  0.00  0.00    +0.000 OA
ATOM     24  H   UNL     1      47.317   2.920  18.447  0.00  0.00    +0.000 HD
ENDBRANCH  22  23
BRANCH  22  25
ATOM     25  C   UNL     1      49.348   2.469  17.220  0.00  0.00    +0.000 C 
BRANCH  25  26
ATOM     26  C   UNL     1      50.820   2.302  17.484  0.00  0.00    +0.000 A 
ATOM     27  C   UNL     1      51.634   3.389  17.787  0.00  0.00    +0.000 A 
ATOM     28  C   UNL     1      52.990   3.167  18.012  0.00  0.00    +0.000 A 
ATOM     29  C   UNL     1      53.495   1.876  17.916  0.00  0.00    +0.000 A 
ATOM     30  C   UNL     1      52.621   0.854  17.596  0.00  0.00    +0.000 A 
ATOM     31  N   UNL     1      51.303   1.038  17.377  0.00  0.00    +0.000 NA
ENDBRANCH  25  26
ENDBRANCH  22  25
ENDBRANCH   4  22
TORSDOF 7
ENDMDL
MODEL 8
REMARK VINA RESULT:    -6.734      3.221      4.962
REMARK INTER + INTRA:         -10.364
REMARK INTER:                  -9.059
REMARK INTRA:                  -1.304
REMARK UNBOUND:                -1.070
REMARK  Name = 
REMARK  8 active torsions:
REMARK  status: ('A' for Active; 'I' for Inactive)
REMARK    1  A    between atoms: C_1  and  C_2
REMARK    2  A    between atoms: C_2  and  N_3
REMARK    3  A    between atoms: C_2  and  C_19
REMARK    4  A    between atoms: N_3  and  C_4
REMARK    5  A    between atoms: C_7  and  C_8
REMARK    6  A    between atoms: C_8  and  O_9
REMARK    7  A    between atoms: C_8  and  C_10
REMARK    8  A    between atoms: C_10  and  C_11
REMARK                            x       y       z     vdW  Elec       q    Type
REMARK                         _______ _______ _______ _____ _____    ______ ____
ROOT
ATOM      1  C   UNL     1      47.720   6.452  13.312  0.00  0.00    +0.000 A 
ATOM      2  C   UNL     1      46.931   7.043  12.321  0.00  0.00    +0.000 A 
ATOM      3  C   UNL     1      45.664   6.542  12.017  0.00  0.00    +0.000 A 
ATOM      4  C   UNL     1      45.154   5.427  12.695  0.00  0.00    +0.000 A 
ATOM      5  C   UNL     1      45.995   4.765  13.598  0.00  0.00    +0.000 A 
ATOM      6  C   UNL     1      47.263   5.270  13.895  0.00  0.00    +0.000 A 
ENDROOT
BRANCH   1   7
ATOM      7  N   UNL     1      48.952   6.948  13.734  0.00  0.00    +0.000 N 
ATOM      8  H   UNL     1      49.724   6.485  13.265  0.00  0.00    +0.000 HD
BRANCH   7  10
ATOM      9  C   UNL     1      48.443   8.804  15.191  0.00  0.00    +0.000 C 
ATOM     10  C   UNL     1      49.125   8.398  13.878  0.00  0.00    +0.000 C 
BRANCH  10  11
ATOM     11  C   UNL     1      50.552   8.912  13.842  0.00  0.00    +0.000 A 
ATOM     12  C   UNL     1      51.193   9.558  14.887  0.00  0.00    +0.000 A 
ATOM     13  S   UNL     1      52.800  10.005  14.518  0.00  0.00    +0.000 S 
ATOM     14  C   UNL     1      52.689   9.344  12.952  0.00  0.00    +0.000 A 
ATOM     15  N   UNL     1      53.739   9.389  12.092  0.00  0.00    +0.000 NA
ATOM     16  C   UNL     1      53.510   8.834  10.946  0.00  0.00    +0.000 A 
ATOM     17  N   UNL     1      52.326   8.238  10.585  0.00  0.00    +0.000 N 
ATOM     18  C   UNL     1      51.229   8.184  11.415  0.00  0.00    +0.000 A 
ATOM     19  O   UNL     1      50.175   7.669  11.055  0.00  0.00    +0.000 OA
ATOM     20  C   UNL     1      51.446   8.789  12.717  0.00  0.00    +0.000 A 
ATOM     21  H   UNL     1      52.212   7.823   9.671  0.00  0.00    +0.000 HD
ENDBRANCH  10  11
ENDBRANCH   7  10
ENDBRANCH   1   7
BRANCH   4  22
ATOM     22  C   UNL     1      43.732   4.979  12.423  0.00  0.00    +0.000 C 
BRANCH  22  23
ATOM     23  O   UNL     1      42.879   5.732  13.279  0.00  0.00    +0.000 OA
ATOM     24  H   UNL     1      42.451   5.101  13.885  0.00  0.00    +0.000 HD
ENDBRANCH  22  23
BRANCH  22  25
ATOM     25  C   UNL     1      43.332   5.098  10.942  0.00  0.00    +0.000 C 
BRANCH  25  26
ATOM     26  C   UNL     1      44.107   4.195  10.021  0.00  0.00    +0.000 A 
ATOM     27  C   UNL     1      44.939   4.707   9.029  0.00  0.00    +0.000 A 
ATOM     28  C   UNL     1      45.622   3.818   8.204  0.00  0.00    +0.000 A 
ATOM     29  C   UNL     1      45.446   2.451   8.381  0.00  0.00    +0.000 A 
ATOM     30  C   UNL     1      44.590   2.026   9.380  0.00  0.00    +0.000 A 
ATOM     31  N   UNL     1      43.919   2.863  10.197  0.00  0.00    +0.000 NA
ENDBRANCH  25  26
ENDBRANCH  22  25
ENDBRANCH   4  22
TORSDOF 7
ENDMDL
MODEL 9
REMARK VINA RESULT:    -6.372      3.039      4.168
REMARK INTER + INTRA:          -9.863
REMARK INTER:                  -8.337
REMARK INTRA:                  -1.526
REMARK UNBOUND:                -1.070
REMARK  Name = 
REMARK  8 active torsions:
REMARK  status: ('A' for Active; 'I' for Inactive)
REMARK    1  A    between atoms: C_1  and  C_2
REMARK    2  A    between atoms: C_2  and  N_3
REMARK    3  A    between atoms: C_2  and  C_19
REMARK    4  A    between atoms: N_3  and  C_4
REMARK    5  A    between atoms: C_7  and  C_8
REMARK    6  A    between atoms: C_8  and  O_9
REMARK    7  A    between atoms: C_8  and  C_10
REMARK    8  A    between atoms: C_10  and  C_11
REMARK                            x       y       z     vdW  Elec       q    Type
REMARK                         _______ _______ _______ _____ _____    ______ ____
ROOT
ATOM      1  C   UNL     1      49.463   7.782  13.895  0.00  0.00    +0.000 A 
ATOM      2  C   UNL     1      48.790   9.001  13.773  0.00  0.00    +0.000 A 
ATOM      3  C   UNL     1      47.450   9.046  13.381  0.00  0.00    +0.000 A 
ATOM      4  C   UNL     1      46.749   7.869  13.094  0.00  0.00    +0.000 A 
ATOM      5  C   UNL     1      47.460   6.662  13.099  0.00  0.00    +0.000 A 
ATOM      6  C   UNL     1      48.801   6.624  13.488  0.00  0.00    +0.000 A 
ENDROOT
BRANCH   1   7
ATOM      7  N   UNL     1      50.768   7.651  14.367  0.00  0.00    +0.000 N 
ATOM      8  H   UNL     1      51.301   8.505  14.238  0.00  0.00    +0.000 HD
BRANCH   7  10
ATOM      9  C   UNL     1      52.493   7.119  15.970  0.00  0.00    +0.000 C 
ATOM     10  C   UNL     1      50.996   6.993  15.658  0.00  0.00    +0.000 C 
BRANCH  10  11
ATOM     11  C   UNL     1      50.168   7.496  16.825  0.00  0.00    +0.000 A 
ATOM     12  C   UNL     1      50.349   8.712  17.465  0.00  0.00    +0.000 A 
ATOM     13  S   UNL     1      49.243   8.974  18.740  0.00  0.00    +0.000 S 
ATOM     14  C   UNL     1      48.485   7.472  18.472  0.00  0.00    +0.000 A 
ATOM     15  N   UNL     1      47.436   7.065  19.234  0.00  0.00    +0.000 NA
ATOM     16  C   UNL     1      46.957   5.911  18.903  0.00  0.00    +0.000 A 
ATOM     17  N   UNL     1      47.431   5.128  17.879  0.00  0.00    +0.000 N 
ATOM     18  C   UNL     1      48.502   5.488  17.092  0.00  0.00    +0.000 A 
ATOM     19  O   UNL     1      48.921   4.756  16.202  0.00  0.00    +0.000 OA
ATOM     20  C   UNL     1      49.066   6.784  17.424  0.00  0.00    +0.000 A 
ATOM     21  H   UNL     1      47.011   4.233  17.673  0.00  0.00    +0.000 HD
ENDBRANCH  10  11
ENDBRANCH   7  10
ENDBRANCH   1   7
BRANCH   4  22
ATOM     22  C   UNL     1      45.267   7.943  12.785  0.00  0.00    +0.000 C 
BRANCH  22  23
ATOM     23  O   UNL     1      44.893   9.316  12.824  0.00  0.00    +0.000 OA
ATOM     24  H   UNL     1      44.040   9.395  12.363  0.00  0.00    +0.000 HD
ENDBRANCH  22  23
BRANCH  22  25
ATOM     25  C   UNL     1      44.892   7.270  11.452  0.00  0.00    +0.000 C 
BRANCH  25  26
ATOM     26  C   UNL     1      44.365   5.868  11.597  0.00  0.00    +0.000 A 
ATOM     27  C   UNL     1      44.355   4.979  10.527  0.00  0.00    +0.000 A 
ATOM     28  C   UNL     1      43.845   3.699  10.725  0.00  0.00    +0.000 A 
ATOM     29  C   UNL     1      43.350   3.349  11.975  0.00  0.00    +0.000 A 
ATOM     30  C   UNL     1      43.383   4.296  12.981  0.00  0.00    +0.000 A 
ATOM     31  N   UNL     1      43.875   5.542  12.819  0.00  0.00    +0.000 NA
ENDBRANCH  25  26
ENDBRANCH  22  25
ENDBRANCH   4  22
TORSDOF 7
ENDMDL
