MODEL 1
REMARK VINA RESULT:    -8.798      0.000      0.000
REMARK INTER + INTRA:         -13.027
REMARK INTER:                 -12.141
REMARK INTRA:                  -0.886
REMARK UNBOUND:                -0.886
REMARK  Name = 
REMARK  7 active torsions:
REMARK  status: ('A' for Active; 'I' for Inactive)
REMARK    1  A    between atoms: C_2  and  C_21
REMARK    2  A    between atoms: N_3  and  C_4
REMARK    3  A    between atoms: C_4  and  C_5
REMARK    4  A    between atoms: C_8  and  C_9
REMARK    5  A    between atoms: C_9  and  O_10
REMARK    6  A    between atoms: C_9  and  C_11
REMARK    7  A    between atoms: C_11  and  N_12
REMARK                            x       y       z     vdW  Elec       q    Type
REMARK                         _______ _______ _______ _____ _____    ______ ____
ROOT
ATOM      1  C   UNL     1      46.932   5.943  12.994  0.00  0.00    +0.000 A 
ATOM      2  C   UNL     1      46.468   4.852  13.717  0.00  0.00    +0.000 A 
ATOM      3  N   UNL     1      45.525   4.002  13.241  0.00  0.00    +0.000 NA
ATOM      4  C   UNL     1      45.037   4.271  12.003  0.00  0.00    +0.000 A 
ATOM      5  C   UNL     1      45.532   5.343  11.266  0.00  0.00    +0.000 A 
ATOM      6  N   UNL     1      46.477   6.195  11.738  0.00  0.00    +0.000 NA
ENDROOT
BRANCH   1   7
ATOM      7  C   UNL     1      47.951   6.876  13.593  0.00  0.00    +0.000 C 
BRANCH   7  10
ATOM      8  O   UNL     1      50.167   6.679  15.305  0.00  0.00    +0.000 OA
ATOM      9  C   UNL     1      49.056   6.833  15.801  0.00  0.00    +0.000 C 
ATOM     10  N   UNL     1      47.918   6.886  15.037  0.00  0.00    +0.000 N 
ATOM     11  H   UNL     1      47.052   7.211  15.453  0.00  0.00    +0.000 HD
BRANCH   9  12
ATOM     12  C   UNL     1      48.866   6.929  17.254  0.00  0.00    +0.000 A 
ATOM     13  C   UNL     1      48.577   8.153  17.841  0.00  0.00    +0.000 A 
ATOM     14  S   UNL     1      48.401   8.071  19.537  0.00  0.00    +0.000 S 
ATOM     15  C   UNL     1      48.660   6.389  19.539  0.00  0.00    +0.000 A 
ATOM     16  N   UNL     1      48.609   5.669  20.692  0.00  0.00    +0.000 NA
ATOM     17  C   UNL     1      48.775   4.399  20.537  0.00  0.00    +0.000 A 
ATOM     18  N   UNL     1      49.001   3.781  19.334  0.00  0.00    +0.000 N 
ATOM     19  C   UNL     1      49.138   4.475  18.158  0.00  0.00    +0.000 A 
ATOM     20  O   UNL     1      49.468   3.910  17.120  0.00  0.00    +0.000 OA
ATOM     21  C   UNL     1      48.907   5.903  18.268  0.00  0.00    +0.000 A 
ATOM     22  H   UNL     1      49.156   2.785  19.282  0.00  0.00    +0.000 HD
ENDBRANCH   9  12
ENDBRANCH   7  10
ENDBRANCH   1   7
BRANCH   4  23
ATOM     23  C   UNL     1      43.954   3.382  11.423  0.00  0.00    +0.000 C 
BRANCH  23  24
ATOM     24  O   UNL     1      42.660   3.918  11.760  0.00  0.00    +0.000 OA
ATOM     25  H   UNL     1      42.827   4.800  12.137  0.00  0.00    +0.000 HD
ENDBRANCH  23  24
BRANCH  23  26
ATOM     26  C   UNL     1      44.065   3.239   9.886  0.00  0.00    +0.000 C 
BRANCH  26  27
ATOM     27  N   UNL     1      44.791   2.008   9.528  0.00  0.00    +0.000 N 
ATOM     28  C   UNL     1      45.691   2.185   8.459  0.00  0.00    +0.000 A 
ATOM     29  C   UNL     1      46.424   1.088   8.018  0.00  0.00    +0.000 A 
ATOM     30  C   UNL     1      47.338   1.246   6.974  0.00  0.00    +0.000 A 
ATOM     31  C   UNL     1      47.501   2.497   6.400  0.00  0.00    +0.000 A 
ATOM     32  C   UNL     1      46.745   3.539   6.901  0.00  0.00    +0.000 A 
ATOM     33  N   UNL     1      45.858   3.406   7.913  0.00  0.00    +0.000 NA
ATOM     34  H   UNL     1      44.148   1.251   9.307  0.00  0.00    +0.000 HD
ENDBRANCH  26  27
ENDBRANCH  23  26
ENDBRANCH   4  23
TORSDOF 7
ENDMDL
MODEL 2
REMARK VINA RESULT:    -8.595      1.649      2.595
REMARK INTER + INTRA:         -12.747
REMARK INTER:                 -11.628
REMARK INTRA:                  -1.119
REMARK UNBOUND:                -0.886
REMARK  Name = 
REMARK  7 active torsions:
REMARK  status: ('A' for Active; 'I' for Inactive)
REMARK    1  A    between atoms: C_2  and  C_21
REMARK    2  A    between atoms: N_3  and  C_4
REMARK    3  A    between atoms: C_4  and  C_5
REMARK    4  A    between atoms: C_8  and  C_9
REMARK    5  A    between atoms: C_9  and  O_10
REMARK    6  A    between atoms: C_9  and  C_11
REMARK    7  A    between atoms: C_11  and  N_12
REMARK                            x       y       z     vdW  Elec       q    Type
REMARK                         _______ _______ _______ _____ _____    ______ ____
ROOT
ATOM      1  C   UNL     1      47.003   5.929  13.191  0.00  0.00    +0.000 A 
ATOM      2  C   UNL     1      46.679   6.430  11.938  0.00  0.00    +0.000 A 
ATOM      3  N   UNL     1      45.653   5.947  11.195  0.00  0.00    +0.000 NA
ATOM      4  C   UNL     1      44.942   4.924  11.737  0.00  0.00    +0.000 A 
ATOM      5  C   UNL     1      45.245   4.450  13.010  0.00  0.00    +0.000 A 
ATOM      6  N   UNL     1      46.271   4.932  13.756  0.00  0.00    +0.000 NA
ENDROOT
BRANCH   1   7
ATOM      7  C   UNL     1      48.181   6.479  13.951  0.00  0.00    +0.000 C 
BRANCH   7  10
ATOM      8  O   UNL     1      50.178   6.227  15.907  0.00  0.00    +0.000 OA
ATOM      9  C   UNL     1      49.018   6.384  16.272  0.00  0.00    +0.000 C 
ATOM     10  N   UNL     1      47.979   6.463  15.381  0.00  0.00    +0.000 N 
ATOM     11  H   UNL     1      47.072   6.790  15.698  0.00  0.00    +0.000 HD
BRANCH   9  12
ATOM     12  C   UNL     1      48.660   6.456  17.694  0.00  0.00    +0.000 A 
ATOM     13  C   UNL     1      48.822   5.346  18.513  0.00  0.00    +0.000 A 
ATOM     14  S   UNL     1      48.344   5.615  20.128  0.00  0.00    +0.000 S 
ATOM     15  C   UNL     1      47.946   7.237  19.800  0.00  0.00    +0.000 A 
ATOM     16  N   UNL     1      47.495   8.065  20.781  0.00  0.00    +0.000 NA
ATOM     17  C   UNL     1      47.280   9.278  20.399  0.00  0.00    +0.000 A 
ATOM     18  N   UNL     1      47.463   9.740  19.121  0.00  0.00    +0.000 N 
ATOM     19  C   UNL     1      47.841   8.923  18.085  0.00  0.00    +0.000 A 
ATOM     20  O   UNL     1      47.871   9.334  16.929  0.00  0.00    +0.000 OA
ATOM     21  C   UNL     1      48.147   7.559  18.471  0.00  0.00    +0.000 A 
ATOM     22  H   UNL     1      47.246  10.695  18.877  0.00  0.00    +0.000 HD
ENDBRANCH   9  12
ENDBRANCH   7  10
ENDBRANCH   1   7
BRANCH   4  23
ATOM     23  C   UNL     1      43.803   4.312  10.945  0.00  0.00    +0.000 C 
BRANCH  23  24
ATOM     24  O   UNL     1      43.098   5.347  10.236  0.00  0.00    +0.000 OA
ATOM     25  H   UNL     1      43.579   5.472   9.398  0.00  0.00    +0.000 HD
ENDBRANCH  23  24
BRANCH  23  26
ATOM     26  C   UNL     1      44.291   3.242   9.938  0.00  0.00    +0.000 C 
BRANCH  26  27
ATOM     27  N   UNL     1      44.878   3.877   8.745  0.00  0.00    +0.000 N 
ATOM     28  C   UNL     1      45.752   3.029   8.038  0.00  0.00    +0.000 A 
ATOM     29  C   UNL     1      46.383   3.523   6.901  0.00  0.00    +0.000 A 
ATOM     30  C   UNL     1      47.236   2.693   6.171  0.00  0.00    +0.000 A 
ATOM     31  C   UNL     1      47.434   1.387   6.594  0.00  0.00    +0.000 A 
ATOM     32  C   UNL     1      46.763   0.967   7.726  0.00  0.00    +0.000 A 
ATOM     33  N   UNL     1      45.931   1.755   8.442  0.00  0.00    +0.000 NA
ATOM     34  H   UNL     1      45.365   4.738   8.988  0.00  0.00    +0.000 HD
ENDBRANCH  26  27
ENDBRANCH  23  26
ENDBRANCH   4  23
TORSDOF 7
ENDMDL
MODEL 3
REMARK VINA RESULT:    -8.050      2.001      2.340
REMARK INTER + INTRA:         -11.996
REMARK INTER:                 -10.763
REMARK INTRA:                  -1.232
REMARK UNBOUND:                -0.886
REMARK  Name = 
REMARK  7 active torsions:
REMARK  status: ('A' for Active; 'I' for Inactive)
REMARK    1  A    between atoms: C_2  and  C_21
REMARK    2  A    between atoms: N_3  and  C_4
REMARK    3  A    between atoms: C_4  and  C_5
REMARK    4  A    between atoms: C_8  and  C_9
REMARK    5  A    between atoms: C_9  and  O_10
REMARK    6  A    between atoms: C_9  and  C_11
REMARK    7  A    between atoms: C_11  and  N_12
REMARK                            x       y       z     vdW  Elec       q    Type
REMARK                         _______ _______ _______ _____ _____    ______ ____
ROOT
ATOM      1  C   UNL     1      46.982   7.441  12.572  0.00  0.00    +0.000 A 
ATOM      2  C   UNL     1      46.970   6.054  12.514  0.00  0.00    +0.000 A 
ATOM      3  N   UNL     1      45.897   5.345  12.083  0.00  0.00    +0.000 NA
ATOM      4  C   UNL     1      44.808   6.065  11.707  0.00  0.00    +0.000 A 
ATOM      5  C   UNL     1      44.837   7.456  11.729  0.00  0.00    +0.000 A 
ATOM      6  N   UNL     1      45.910   8.168  12.159  0.00  0.00    +0.000 NA
ENDROOT
BRANCH   1   7
ATOM      7  C   UNL     1      48.189   8.170  13.100  0.00  0.00    +0.000 C 
BRANCH   7  10
ATOM      8  O   UNL     1      48.291   8.463  15.889  0.00  0.00    +0.000 OA
ATOM      9  C   UNL     1      48.925   7.549  15.373  0.00  0.00    +0.000 C 
ATOM     10  N   UNL     1      48.969   7.370  14.014  0.00  0.00    +0.000 N 
ATOM     11  H   UNL     1      49.330   6.500  13.636  0.00  0.00    +0.000 HD
BRANCH   9  12
ATOM     12  C   UNL     1      49.715   6.607  16.177  0.00  0.00    +0.000 A 
ATOM     13  C   UNL     1      50.995   6.947  16.593  0.00  0.00    +0.000 A 
ATOM     14  S   UNL     1      51.761   5.726  17.507  0.00  0.00    +0.000 S 
ATOM     15  C   UNL     1      50.392   4.720  17.415  0.00  0.00    +0.000 A 
ATOM     16  N   UNL     1      50.366   3.507  18.031  0.00  0.00    +0.000 NA
ATOM     17  C   UNL     1      49.247   2.874  17.919  0.00  0.00    +0.000 A 
ATOM     18  N   UNL     1      48.151   3.339  17.237  0.00  0.00    +0.000 N 
ATOM     19  C   UNL     1      48.159   4.519  16.537  0.00  0.00    +0.000 A 
ATOM     20  O   UNL     1      47.211   4.846  15.831  0.00  0.00    +0.000 OA
ATOM     21  C   UNL     1      49.377   5.295  16.674  0.00  0.00    +0.000 A 
ATOM     22  H   UNL     1      47.314   2.782  17.158  0.00  0.00    +0.000 HD
ENDBRANCH   9  12
ENDBRANCH   7  10
ENDBRANCH   1   7
BRANCH   4  23
ATOM     23  C   UNL     1      43.560   5.335  11.248  0.00  0.00    +0.000 C 
BRANCH  23  24
ATOM     24  O   UNL     1      42.662   6.267  10.616  0.00  0.00    +0.000 OA
ATOM     25  H   UNL     1      42.410   6.905  11.308  0.00  0.00    +0.000 HD
ENDBRANCH  23  24
BRANCH  23  26
ATOM     26  C   UNL     1      43.877   4.182  10.265  0.00  0.00    +0.000 C 
BRANCH  26  27
ATOM     27  N   UNL     1      44.682   4.669   9.131  0.00  0.00    +0.000 N 
ATOM     28  C   UNL     1      45.438   3.655   8.511  0.00  0.00    +0.000 A 
ATOM     29  C   UNL     1      46.254   3.996   7.437  0.00  0.00    +0.000 A 
ATOM     30  C   UNL     1      46.996   3.004   6.794  0.00  0.00    +0.000 A 
ATOM     31  C   UNL     1      46.900   1.693   7.237  0.00  0.00    +0.000 A 
ATOM     32  C   UNL     1      46.060   1.433   8.302  0.00  0.00    +0.000 A 
ATOM     33  N   UNL     1      45.332   2.379   8.934  0.00  0.00    +0.000 NA
ATOM     34  H   UNL     1      45.300   5.426   9.416  0.00  0.00    +0.000 HD
ENDBRANCH  26  27
ENDBRANCH  23  26
ENDBRANCH   4  23
TORSDOF 7
ENDMDL
MODEL 4
REMARK VINA RESULT:    -7.457      4.195      5.512
REMARK INTER + INTRA:         -11.177
REMARK INTER:                 -10.023
REMARK INTRA:                  -1.153
REMARK UNBOUND:                -0.886
REMARK  Name = 
REMARK  7 active torsions:
REMARK  status: ('A' for Active; 'I' for Inactive)
REMARK    1  A    between atoms: C_2  and  C_21
REMARK    2  A    between atoms: N_3  and  C_4
REMARK    3  A    between atoms: C_4  and  C_5
REMARK    4  A    between atoms: C_8  and  C_9
REMARK    5  A    between atoms: C_9  and  O_10
REMARK    6  A    between atoms: C_9  and  C_11
REMARK    7  A    between atoms: C_11  and  N_12
REMARK                            x       y       z     vdW  Elec       q    Type
REMARK                         _______ _______ _______ _____ _____    ______ ____
ROOT
ATOM      1  C   UNL     1      46.095   7.504  12.429  0.00  0.00    +0.000 A 
ATOM      2  C   UNL     1      46.614   6.490  13.222  0.00  0.00    +0.000 A 
ATOM      3  N   UNL     1      46.262   5.188  13.074  0.00  0.00    +0.000 NA
ATOM      4  C   UNL     1      45.357   4.913  12.099  0.00  0.00    +0.000 A 
ATOM      5  C   UNL     1      44.869   5.927  11.281  0.00  0.00    +0.000 A 
ATOM      6  N   UNL     1      45.219   7.230  11.426  0.00  0.00    +0.000 NA
ENDROOT
BRANCH   1   7
ATOM      7  C   UNL     1      46.492   8.937  12.668  0.00  0.00    +0.000 C 
BRANCH   7  10
ATOM      8  O   UNL     1      48.550  10.464  13.813  0.00  0.00    +0.000 OA
ATOM      9  C   UNL     1      48.724   9.992  12.694  0.00  0.00    +0.000 C 
ATOM     10  N   UNL     1      47.750   9.279  12.045  0.00  0.00    +0.000 N 
ATOM     11  H   UNL     1      47.990   8.739  11.221  0.00  0.00    +0.000 HD
BRANCH   9  12
ATOM     12  C   UNL     1      49.978  10.196  11.957  0.00  0.00    +0.000 A 
ATOM     13  C   UNL     1      50.493  11.475  11.794  0.00  0.00    +0.000 A 
ATOM     14  S   UNL     1      51.949  11.515  10.904  0.00  0.00    +0.000 S 
ATOM     15  C   UNL     1      51.963   9.821  10.744  0.00  0.00    +0.000 A 
ATOM     16  N   UNL     1      52.979   9.183  10.102  0.00  0.00    +0.000 NA
ATOM     17  C   UNL     1      52.885   7.896  10.100  0.00  0.00    +0.000 A 
ATOM     18  N   UNL     1      51.859   7.186  10.671  0.00  0.00    +0.000 N 
ATOM     19  C   UNL     1      50.777   7.791  11.259  0.00  0.00    +0.000 A 
ATOM     20  O   UNL     1      49.814   7.135  11.645  0.00  0.00    +0.000 OA
ATOM     21  C   UNL     1      50.859   9.236  11.336  0.00  0.00    +0.000 A 
ATOM     22  H   UNL     1      51.825   6.179  10.608  0.00  0.00    +0.000 HD
ENDBRANCH   9  12
ENDBRANCH   7  10
ENDBRANCH   1   7
BRANCH   4  23
ATOM     23  C   UNL     1      44.892   3.483  11.902  0.00  0.00    +0.000 C 
BRANCH  23  24
ATOM     24  O   UNL     1      43.918   3.150  12.909  0.00  0.00    +0.000 OA
ATOM     25  H   UNL     1      43.650   2.231  12.728  0.00  0.00    +0.000 HD
ENDBRANCH  23  24
BRANCH  23  26
ATOM     26  C   UNL     1      44.281   3.247  10.500  0.00  0.00    +0.000 C 
BRANCH  26  27
ATOM     27  N   UNL     1      44.886   2.067   9.858  0.00  0.00    +0.000 N 
ATOM     28  C   UNL     1      45.595   2.377   8.682  0.00  0.00    +0.000 A 
ATOM     29  C   UNL     1      46.198   1.341   7.976  0.00  0.00    +0.000 A 
ATOM     30  C   UNL     1      46.924   1.628   6.818  0.00  0.00    +0.000 A 
ATOM     31  C   UNL     1      47.034   2.944   6.397  0.00  0.00    +0.000 A 
ATOM     32  C   UNL     1      46.417   3.918   7.158  0.00  0.00    +0.000 A 
ATOM     33  N   UNL     1      45.713   3.660   8.283  0.00  0.00    +0.000 NA
ATOM     34  H   UNL     1      44.185   1.358   9.654  0.00  0.00    +0.000 HD
ENDBRANCH  26  27
ENDBRANCH  23  26
ENDBRANCH   4  23
TORSDOF 7
ENDMDL
MODEL 5
REMARK VINA RESULT:    -7.354      3.050      8.801
REMARK INTER + INTRA:         -11.034
REMARK INTER:                  -9.591
REMARK INTRA:                  -1.443
REMARK UNBOUND:                -0.886
REMARK  Name = 
REMARK  7 active torsions:
REMARK  status: ('A' for Active; 'I' for Inactive)
REMARK    1  A    between atoms: C_2  and  C_21
REMARK    2  A    between atoms: N_3  and  C_4
REMARK    3  A    between atoms: C_4  and  C_5
REMARK    4  A    between atoms: C_8  and  C_9
REMARK    5  A    between atoms: C_9  and  O_10
REMARK    6  A    between atoms: C_9  and  C_11
REMARK    7  A    between atoms: C_11  and  N_12
REMARK                            x       y       z     vdW  Elec       q    Type
REMARK                         _______ _______ _______ _____ _____    ______ ____
ROOT
ATOM      1  C   UNL     1      48.390   8.012  13.199  0.00  0.00    +0.000 A 
ATOM      2  C   UNL     1      47.672   8.747  14.132  0.00  0.00    +0.000 A 
ATOM      3  N   UNL     1      48.107   8.948  15.401  0.00  0.00    +0.000 NA
ATOM      4  C   UNL     1      49.297   8.382  15.730  0.00  0.00    +0.000 A 
ATOM      5  C   UNL     1      50.032   7.679  14.780  0.00  0.00    +0.000 A 
ATOM      6  N   UNL     1      49.600   7.477  13.510  0.00  0.00    +0.000 NA
ENDROOT
BRANCH   1   7
ATOM      7  C   UNL     1      47.835   7.788  11.816  0.00  0.00    +0.000 C 
BRANCH   7  10
ATOM      8  O   UNL     1      45.045   7.561  12.012  0.00  0.00    +0.000 OA
ATOM      9  C   UNL     1      45.699   6.551  11.774  0.00  0.00    +0.000 C 
ATOM     10  N   UNL     1      47.069   6.568  11.714  0.00  0.00    +0.000 N 
ATOM     11  H   UNL     1      47.562   5.773  11.322  0.00  0.00    +0.000 HD
BRANCH   9  12
ATOM     12  C   UNL     1      45.058   5.244  11.577  0.00  0.00    +0.000 A 
ATOM     13  C   UNL     1      44.353   4.649  12.614  0.00  0.00    +0.000 A 
ATOM     14  S   UNL     1      43.688   3.132  12.203  0.00  0.00    +0.000 S 
ATOM     15  C   UNL     1      44.280   3.240  10.612  0.00  0.00    +0.000 A 
ATOM     16  N   UNL     1      44.030   2.263   9.699  0.00  0.00    +0.000 NA
ATOM     17  C   UNL     1      44.499   2.500   8.520  0.00  0.00    +0.000 A 
ATOM     18  N   UNL     1      45.206   3.622   8.171  0.00  0.00    +0.000 N 
ATOM     19  C   UNL     1      45.548   4.595   9.077  0.00  0.00    +0.000 A 
ATOM     20  O   UNL     1      46.290   5.521   8.767  0.00  0.00    +0.000 OA
ATOM     21  C   UNL     1      45.000   4.402  10.407  0.00  0.00    +0.000 A 
ATOM     22  H   UNL     1      45.575   3.736   7.239  0.00  0.00    +0.000 HD
ENDBRANCH   9  12
ENDBRANCH   7  10
ENDBRANCH   1   7
BRANCH   4  23
ATOM     23  C   UNL     1      49.826   8.537  17.143  0.00  0.00    +0.000 C 
BRANCH  23  24
ATOM     24  O   UNL     1      49.343   9.771  17.705  0.00  0.00    +0.000 OA
ATOM     25  H   UNL     1      48.649   9.521  18.341  0.00  0.00    +0.000 HD
ENDBRANCH  23  24
BRANCH  23  26
ATOM     26  C   UNL     1      49.415   7.360  18.061  0.00  0.00    +0.000 C 
BRANCH  26  27
ATOM     27  N   UNL     1      48.283   6.617  17.481  0.00  0.00    +0.000 N 
ATOM     28  C   UNL     1      48.547   5.244  17.313  0.00  0.00    +0.000 A 
ATOM     29  C   UNL     1      47.558   4.439  16.758  0.00  0.00    +0.000 A 
ATOM     30  C   UNL     1      47.791   3.071  16.603  0.00  0.00    +0.000 A 
ATOM     31  C   UNL     1      49.005   2.540  17.011  0.00  0.00    +0.000 A 
ATOM     32  C   UNL     1      49.931   3.402  17.564  0.00  0.00    +0.000 A 
ATOM     33  N   UNL     1      49.723   4.728  17.725  0.00  0.00    +0.000 NA
ATOM     34  H   UNL     1      47.996   7.018  16.590  0.00  0.00    +0.000 HD
ENDBRANCH  26  27
ENDBRANCH  23  26
ENDBRANCH   4  23
TORSDOF 7
ENDMDL
MODEL 6
REMARK VINA RESULT:    -7.023      3.710      8.953
REMARK INTER + INTRA:         -10.578
REMARK INTER:                  -9.655
REMARK INTRA:                  -0.923
REMARK UNBOUND:                -0.886
REMARK  Name = 
REMARK  7 active torsions:
REMARK  status: ('A' for Active; 'I' for Inactive)
REMARK    1  A    between atoms: C_2  and  C_21
REMARK    2  A    between atoms: N_3  and  C_4
REMARK    3  A    between atoms: C_4  and  C_5
REMARK    4  A    between atoms: C_8  and  C_9
REMARK    5  A    between atoms: C_9  and  O_10
REMARK    6  A    between atoms: C_9  and  C_11
REMARK    7  A    between atoms: C_11  and  N_12
REMARK                            x       y       z     vdW  Elec       q    Type
REMARK                         _______ _______ _______ _____ _____    ______ ____
ROOT
ATOM      1  C   UNL     1      48.753   6.699  15.470  0.00  0.00    +0.000 A 
ATOM      2  C   UNL     1      49.802   7.117  16.277  0.00  0.00    +0.000 A 
ATOM      3  N   UNL     1      50.245   6.398  17.338  0.00  0.00    +0.000 NA
ATOM      4  C   UNL     1      49.602   5.228  17.587  0.00  0.00    +0.000 A 
ATOM      5  C   UNL     1      48.577   4.794  16.752  0.00  0.00    +0.000 A 
ATOM      6  N   UNL     1      48.132   5.510  15.690  0.00  0.00    +0.000 NA
ENDROOT
BRANCH   1   7
ATOM      7  C   UNL     1      48.278   7.562  14.330  0.00  0.00    +0.000 C 
BRANCH   7  10
ATOM      8  O   UNL     1      47.799   6.802  11.671  0.00  0.00    +0.000 OA
ATOM      9  C   UNL     1      46.880   6.719  12.478  0.00  0.00    +0.000 C 
ATOM     10  N   UNL     1      47.017   7.118  13.783  0.00  0.00    +0.000 N 
ATOM     11  H   UNL     1      46.314   6.853  14.464  0.00  0.00    +0.000 HD
BRANCH   9  12
ATOM     12  C   UNL     1      45.554   6.221  12.089  0.00  0.00    +0.000 A 
ATOM     13  C   UNL     1      44.629   7.079  11.510  0.00  0.00    +0.000 A 
ATOM     14  S   UNL     1      43.144   6.326  11.135  0.00  0.00    +0.000 S 
ATOM     15  C   UNL     1      43.702   4.819  11.693  0.00  0.00    +0.000 A 
ATOM     16  N   UNL     1      42.919   3.708  11.625  0.00  0.00    +0.000 NA
ATOM     17  C   UNL     1      43.489   2.627  12.038  0.00  0.00    +0.000 A 
ATOM     18  N   UNL     1      44.770   2.554  12.525  0.00  0.00    +0.000 N 
ATOM     19  C   UNL     1      45.566   3.661  12.683  0.00  0.00    +0.000 A 
ATOM     20  O   UNL     1      46.656   3.585  13.241  0.00  0.00    +0.000 OA
ATOM     21  C   UNL     1      44.992   4.896  12.185  0.00  0.00    +0.000 A 
ATOM     22  H   UNL     1      45.149   1.683  12.863  0.00  0.00    +0.000 HD
ENDBRANCH   9  12
ENDBRANCH   7  10
ENDBRANCH   1   7
BRANCH   4  23
ATOM     23  C   UNL     1      50.022   4.391  18.779  0.00  0.00    +0.000 C 
BRANCH  23  24
ATOM     24  O   UNL     1      49.147   3.254  18.902  0.00  0.00    +0.000 OA
ATOM     25  H   UNL     1      49.579   2.531  18.413  0.00  0.00    +0.000 HD
ENDBRANCH  23  24
BRANCH  23  26
ATOM     26  C   UNL     1      51.487   3.900  18.671  0.00  0.00    +0.000 C 
BRANCH  26  27
ATOM     27  N   UNL     1      51.565   2.662  17.876  0.00  0.00    +0.000 N 
ATOM     28  C   UNL     1      52.731   1.914  18.127  0.00  0.00    +0.000 A 
ATOM     29  C   UNL     1      52.927   0.731  17.422  0.00  0.00    +0.000 A 
ATOM     30  C   UNL     1      54.065  -0.039  17.671  0.00  0.00    +0.000 A 
ATOM     31  C   UNL     1      54.977   0.390  18.623  0.00  0.00    +0.000 A 
ATOM     32  C   UNL     1      54.706   1.569  19.289  0.00  0.00    +0.000 A 
ATOM     33  N   UNL     1      53.609   2.325  19.064  0.00  0.00    +0.000 NA
ATOM     34  H   UNL     1      51.498   2.860  16.879  0.00  0.00    +0.000 HD
ENDBRANCH  26  27
ENDBRANCH  23  26
ENDBRANCH   4  23
TORSDOF 7
ENDMDL
MODEL 7
REMARK VINA RESULT:    -6.782      3.711      8.651
REMARK INTER + INTRA:         -10.245
REMARK INTER:                  -8.864
REMARK INTRA:                  -1.381
REMARK UNBOUND:                -0.886
REMARK  Name = 
REMARK  7 active torsions:
REMARK  status: ('A' for Active; 'I' for Inactive)
REMARK    1  A    between atoms: C_2  and  C_21
REMARK    2  A    between atoms: N_3  and  C_4
REMARK    3  A    between atoms: C_4  and  C_5
REMARK    4  A    between atoms: C_8  and  C_9
REMARK    5  A    between atoms: C_9  and  O_10
REMARK    6  A    between atoms: C_9  and  C_11
REMARK    7  A    between atoms: C_11  and  N_12
REMARK                            x       y       z     vdW  Elec       q    Type
REMARK                         _______ _______ _______ _____ _____    ______ ____
ROOT
ATOM      1  C   UNL     1      49.098   7.874  16.063  0.00  0.00    +0.000 A 
ATOM      2  C   UNL     1      50.315   7.207  16.082  0.00  0.00    +0.000 A 
ATOM      3  N   UNL     1      50.891   6.760  17.226  0.00  0.00    +0.000 NA
ATOM      4  C   UNL     1      50.216   7.003  18.379  0.00  0.00    +0.000 A 
ATOM      5  C   UNL     1      48.978   7.638  18.352  0.00  0.00    +0.000 A 
ATOM      6  N   UNL     1      48.398   8.085  17.209  0.00  0.00    +0.000 NA
ENDROOT
BRANCH   1   7
ATOM      7  C   UNL     1      48.528   8.383  14.766  0.00  0.00    +0.000 C 
BRANCH   7  10
ATOM      8  O   UNL     1      48.926   6.311  12.915  0.00  0.00    +0.000 OA
ATOM      9  C   UNL     1      47.797   6.491  13.357  0.00  0.00    +0.000 C 
ATOM     10  N   UNL     1      47.509   7.514  14.224  0.00  0.00    +0.000 N 
ATOM     11  H   UNL     1      46.625   7.514  14.722  0.00  0.00    +0.000 HD
BRANCH   9  12
ATOM     12  C   UNL     1      46.666   5.646  12.954  0.00  0.00    +0.000 A 
ATOM     13  C   UNL     1      46.683   4.283  13.219  0.00  0.00    +0.000 A 
ATOM     14  S   UNL     1      45.290   3.465  12.669  0.00  0.00    +0.000 S 
ATOM     15  C   UNL     1      44.597   4.910  12.098  0.00  0.00    +0.000 A 
ATOM     16  N   UNL     1      43.361   4.922  11.529  0.00  0.00    +0.000 NA
ATOM     17  C   UNL     1      42.942   6.094  11.188  0.00  0.00    +0.000 A 
ATOM     18  N   UNL     1      43.651   7.257  11.352  0.00  0.00    +0.000 N 
ATOM     19  C   UNL     1      44.929   7.281  11.849  0.00  0.00    +0.000 A 
ATOM     20  O   UNL     1      45.586   8.318  11.864  0.00  0.00    +0.000 OA
ATOM     21  C   UNL     1      45.429   5.996  12.298  0.00  0.00    +0.000 A 
ATOM     22  H   UNL     1      43.281   8.140  11.035  0.00  0.00    +0.000 HD
ENDBRANCH   9  12
ENDBRANCH   7  10
ENDBRANCH   1   7
BRANCH   4  23
ATOM     23  C   UNL     1      50.820   6.563  19.698  0.00  0.00    +0.000 C 
BRANCH  23  24
ATOM     24  O   UNL     1      50.431   7.482  20.736  0.00  0.00    +0.000 OA
ATOM     25  H   UNL     1      49.459   7.432  20.786  0.00  0.00    +0.000 HD
ENDBRANCH  23  24
BRANCH  23  26
ATOM     26  C   UNL     1      50.391   5.129  20.096  0.00  0.00    +0.000 C 
BRANCH  26  27
ATOM     27  N   UNL     1      50.881   4.147  19.114  0.00  0.00    +0.000 N 
ATOM     28  C   UNL     1      49.860   3.614  18.304  0.00  0.00    +0.000 A 
ATOM     29  C   UNL     1      50.197   2.662  17.348  0.00  0.00    +0.000 A 
ATOM     30  C   UNL     1      49.204   2.136  16.519  0.00  0.00    +0.000 A 
ATOM     31  C   UNL     1      47.898   2.580  16.662  0.00  0.00    +0.000 A 
ATOM     32  C   UNL     1      47.645   3.536  17.627  0.00  0.00    +0.000 A 
ATOM     33  N   UNL     1      48.593   4.058  18.435  0.00  0.00    +0.000 NA
ATOM     34  H   UNL     1      51.382   3.387  19.571  0.00  0.00    +0.000 HD
ENDBRANCH  26  27
ENDBRANCH  23  26
ENDBRANCH   4  23
TORSDOF 7
ENDMDL
MODEL 8
REMARK VINA RESULT:    -6.342      4.649      8.359
REMARK INTER + INTRA:          -9.638
REMARK INTER:                  -8.783
REMARK INTRA:                  -0.854
REMARK UNBOUND:                -0.886
REMARK  Name = 
REMARK  7 active torsions:
REMARK  status: ('A' for Active; 'I' for Inactive)
REMARK    1  A    between atoms: C_2  and  C_21
REMARK    2  A    between atoms: N_3  and  C_4
REMARK    3  A    between atoms: C_4  and  C_5
REMARK    4  A    between atoms: C_8  and  C_9
REMARK    5  A    between atoms: C_9  and  O_10
REMARK    6  A    between atoms: C_9  and  C_11
REMARK    7  A    between atoms: C_11  and  N_12
REMARK                            x       y       z     vdW  Elec       q    Type
REMARK                         _______ _______ _______ _____ _____    ______ ____
ROOT
ATOM      1  C   UNL     1      47.549   8.317  12.782  0.00  0.00    +0.000 A 
ATOM      2  C   UNL     1      48.067   9.597  12.639  0.00  0.00    +0.000 A 
ATOM      3  N   UNL     1      49.375   9.835  12.373  0.00  0.00    +0.000 NA
ATOM      4  C   UNL     1      50.177   8.744  12.253  0.00  0.00    +0.000 A 
ATOM      5  C   UNL     1      49.646   7.462  12.358  0.00  0.00    +0.000 A 
ATOM      6  N   UNL     1      48.337   7.221  12.624  0.00  0.00    +0.000 NA
ENDROOT
BRANCH   1   7
ATOM      7  C   UNL     1      46.095   8.117  13.120  0.00  0.00    +0.000 C 
BRANCH   7  10
ATOM      8  O   UNL     1      44.363   7.498  10.999  0.00  0.00    +0.000 OA
ATOM      9  C   UNL     1      44.806   6.580  11.681  0.00  0.00    +0.000 C 
ATOM     10  N   UNL     1      45.615   6.802  12.765  0.00  0.00    +0.000 N 
ATOM     11  H   UNL     1      46.120   6.026  13.179  0.00  0.00    +0.000 HD
BRANCH   9  12
ATOM     12  C   UNL     1      44.464   5.179  11.403  0.00  0.00    +0.000 A 
ATOM     13  C   UNL     1      43.675   4.463  12.294  0.00  0.00    +0.000 A 
ATOM     14  S   UNL     1      43.392   2.851  11.809  0.00  0.00    +0.000 S 
ATOM     15  C   UNL     1      44.276   3.068  10.372  0.00  0.00    +0.000 A 
ATOM     16  N   UNL     1      44.402   2.063   9.463  0.00  0.00    +0.000 NA
ATOM     17  C   UNL     1      45.057   2.384   8.399  0.00  0.00    +0.000 A 
ATOM     18  N   UNL     1      45.610   3.617   8.163  0.00  0.00    +0.000 N 
ATOM     19  C   UNL     1      45.575   4.634   9.084  0.00  0.00    +0.000 A 
ATOM     20  O   UNL     1      46.189   5.680   8.900  0.00  0.00    +0.000 OA
ATOM     21  C   UNL     1      44.804   4.342  10.278  0.00  0.00    +0.000 A 
ATOM     22  H   UNL     1      46.140   3.797   7.324  0.00  0.00    +0.000 HD
ENDBRANCH   9  12
ENDBRANCH   7  10
ENDBRANCH   1   7
BRANCH   4  23
ATOM     23  C   UNL     1      51.657   8.938  11.991  0.00  0.00    +0.000 C 
BRANCH  23  24
ATOM     24  O   UNL     1      52.420   8.176  12.945  0.00  0.00    +0.000 OA
ATOM     25  H   UNL     1      52.718   8.814  13.619  0.00  0.00    +0.000 HD
ENDBRANCH  23  24
BRANCH  23  26
ATOM     26  C   UNL     1      52.064   8.518  10.557  0.00  0.00    +0.000 C 
BRANCH  26  27
ATOM     27  N   UNL     1      52.717   7.198  10.566  0.00  0.00    +0.000 N 
ATOM     28  C   UNL     1      53.057   6.737   9.279  0.00  0.00    +0.000 A 
ATOM     29  C   UNL     1      53.664   5.492   9.157  0.00  0.00    +0.000 A 
ATOM     30  C   UNL     1      54.029   5.025   7.892  0.00  0.00    +0.000 A 
ATOM     31  C   UNL     1      53.783   5.817   6.781  0.00  0.00    +0.000 A 
ATOM     32  C   UNL     1      53.186   7.046   6.986  0.00  0.00    +0.000 A 
ATOM     33  N   UNL     1      52.829   7.516   8.202  0.00  0.00    +0.000 NA
ATOM     34  H   UNL     1      52.137   6.503  11.032  0.00  0.00    +0.000 HD
ENDBRANCH  26  27
ENDBRANCH  23  26
ENDBRANCH   4  23
TORSDOF 7
ENDMDL
MODEL 9
REMARK VINA RESULT:    -6.304      3.239      4.861
REMARK INTER + INTRA:          -9.586
REMARK INTER:                  -8.443
REMARK INTRA:                  -1.143
REMARK UNBOUND:                -0.886
REMARK  Name = 
REMARK  7 active torsions:
REMARK  status: ('A' for Active; 'I' for Inactive)
REMARK    1  A    between atoms: C_2  and  C_21
REMARK    2  A    between atoms: N_3  and  C_4
REMARK    3  A    between atoms: C_4  and  C_5
REMARK    4  A    between atoms: C_8  and  C_9
REMARK    5  A    between atoms: C_9  and  O_10
REMARK    6  A    between atoms: C_9  and  C_11
REMARK    7  A    between atoms: C_11  and  N_12
REMARK                            x       y       z     vdW  Elec       q    Type
REMARK                         _______ _______ _______ _____ _____    ______ ____
ROOT
ATOM      1  C   UNL     1      48.937   7.751  15.962  0.00  0.00    +0.000 A 
ATOM      2  C   UNL     1      48.214   8.851  15.520  0.00  0.00    +0.000 A 
ATOM      3  N   UNL     1      47.550   8.867  14.338  0.00  0.00    +0.000 NA
ATOM      4  C   UNL     1      47.627   7.739  13.584  0.00  0.00    +0.000 A 
ATOM      5  C   UNL     1      48.321   6.626  14.048  0.00  0.00    +0.000 A 
ATOM      6  N   UNL     1      48.986   6.606  15.231  0.00  0.00    +0.000 NA
ENDROOT
BRANCH   1   7
ATOM      7  C   UNL     1      49.689   7.808  17.266  0.00  0.00    +0.000 C 
BRANCH   7  10
ATOM      8  O   UNL     1      50.431   6.604  19.690  0.00  0.00    +0.000 OA
ATOM      9  C   UNL     1      50.884   6.146  18.646  0.00  0.00    +0.000 C 
ATOM     10  N   UNL     1      50.612   6.709  17.426  0.00  0.00    +0.000 N 
ATOM     11  H   UNL     1      50.833   6.197  16.578  0.00  0.00    +0.000 HD
BRANCH   9  12
ATOM     12  C   UNL     1      51.785   4.986  18.639  0.00  0.00    +0.000 A 
ATOM     13  C   UNL     1      53.028   5.063  19.251  0.00  0.00    +0.000 A 
ATOM     14  S   UNL     1      53.937   3.624  19.132  0.00  0.00    +0.000 S 
ATOM     15  C   UNL     1      52.682   2.834  18.297  0.00  0.00    +0.000 A 
ATOM     16  N   UNL     1      52.798   1.533  17.918  0.00  0.00    +0.000 NA
ATOM     17  C   UNL     1      51.751   1.050  17.337  0.00  0.00    +0.000 A 
ATOM     18  N   UNL     1      50.600   1.754  17.089  0.00  0.00    +0.000 N 
ATOM     19  C   UNL     1      50.469   3.088  17.384  0.00  0.00    +0.000 A 
ATOM     20  O   UNL     1      49.479   3.722  17.034  0.00  0.00    +0.000 OA
ATOM     21  C   UNL     1      51.598   3.666  18.086  0.00  0.00    +0.000 A 
ATOM     22  H   UNL     1      49.826   1.329  16.601  0.00  0.00    +0.000 HD
ENDBRANCH   9  12
ENDBRANCH   7  10
ENDBRANCH   1   7
BRANCH   4  23
ATOM     23  C   UNL     1      46.938   7.701  12.234  0.00  0.00    +0.000 C 
BRANCH  23  24
ATOM     24  O   UNL     1      47.438   6.588  11.470  0.00  0.00    +0.000 OA
ATOM     25  H   UNL     1      47.812   6.971  10.655  0.00  0.00    +0.000 HD
ENDBRANCH  23  24
BRANCH  23  26
ATOM     26  C   UNL     1      45.399   7.587  12.359  0.00  0.00    +0.000 C 
BRANCH  26  27
ATOM     27  N   UNL     1      45.026   6.399  13.146  0.00  0.00    +0.000 N 
ATOM     28  C   UNL     1      44.573   5.327  12.353  0.00  0.00    +0.000 A 
ATOM     29  C   UNL     1      44.174   4.154  12.986  0.00  0.00    +0.000 A 
ATOM     30  C   UNL     1      43.743   3.070  12.218  0.00  0.00    +0.000 A 
ATOM     31  C   UNL     1      43.725   3.184  10.837  0.00  0.00    +0.000 A 
ATOM     32  C   UNL     1      44.147   4.377  10.283  0.00  0.00    +0.000 A 
ATOM     33  N   UNL     1      44.571   5.435  11.009  0.00  0.00    +0.000 NA
ATOM     34  H   UNL     1      44.319   6.626  13.844  0.00  0.00    +0.000 HD
ENDBRANCH  26  27
ENDBRANCH  23  26
ENDBRANCH   4  23
TORSDOF 7
ENDMDL
