MODEL 1
REMARK VINA RESULT:    -7.810      0.000      0.000
REMARK INTER + INTRA:         -12.457
REMARK INTER:                 -11.463
REMARK INTRA:                  -0.994
REMARK UNBOUND:                -0.994
REMARK  Name = 
REMARK  9 active torsions:
REMARK  status: ('A' for Active; 'I' for Inactive)
REMARK    1  A    between atoms: C_1  and  O_2
REMARK    2  A    between atoms: O_2  and  C_3
REMARK    3  A    between atoms: C_10  and  C_11
REMARK    4  A    between atoms: N_13  and  C_14
REMARK    5  A    between atoms: C_14  and  C_15
REMARK    6  A    between atoms: C_18  and  N_19
REMARK    7  A    between atoms: N_19  and  C_20
REMARK    8  A    between atoms: C_20  and  C_21
REMARK    9  A    between atoms: C_21  and  N_22
REMARK                            x       y       z     vdW  Elec       q    Type
REMARK                         _______ _______ _______ _____ _____    ______ ____
ROOT
ATOM      1  C   UNL     1      47.760   7.224  13.295  0.00  0.00    +0.000 C 
ENDROOT
BRANCH   1   2
ATOM      2  C   UNL     1      46.867   6.116  12.785  0.00  0.00    +0.000 A 
ATOM      3  C   UNL     1      46.241   6.223  11.540  0.00  0.00    +0.000 A 
ATOM      4  C   UNL     1      45.383   5.215  11.075  0.00  0.00    +0.000 A 
ATOM      5  C   UNL     1      45.159   4.046  11.814  0.00  0.00    +0.000 A 
ATOM      6  C   UNL     1      45.788   3.946  13.058  0.00  0.00    +0.000 A 
ATOM      7  C   UNL     1      46.631   4.961  13.539  0.00  0.00    +0.000 A 
BRANCH   5   8
ATOM      8  N   UNL     1      44.347   2.980  11.374  0.00  0.00    +0.000 N 
ATOM      9  H   UNL     1      43.507   2.848  11.940  0.00  0.00    +0.000 HD
BRANCH   8  10
ATOM     10  C   UNL     1      44.075   2.943   9.932  0.00  0.00    +0.000 C 
BRANCH  10  11
ATOM     11  C   UNL     1      44.806   1.795   9.183  0.00  0.00    +0.000 C 
BRANCH  11  12
ATOM     12  N   UNL     1      45.957   2.243   8.358  0.00  0.00    +0.000 NA
ATOM     13  C   UNL     1      46.617   1.092   7.715  0.00  0.00    +0.000 C 
ATOM     14  C   UNL     1      47.846   1.518   6.913  0.00  0.00    +0.000 C 
ATOM     15  C   UNL     1      47.500   2.584   5.883  0.00  0.00    +0.000 C 
ATOM     16  C   UNL     1      46.771   3.739   6.551  0.00  0.00    +0.000 C 
ATOM     17  C   UNL     1      45.564   3.242   7.349  0.00  0.00    +0.000 C 
ENDBRANCH  11  12
ENDBRANCH  10  11
ENDBRANCH   8  10
ENDBRANCH   5   8
ENDBRANCH   1   2
BRANCH   1  20
ATOM     18  C   UNL     1      48.999   7.024  15.416  0.00  0.00    +0.000 C 
ATOM     19  O   UNL     1      50.037   6.786  14.824  0.00  0.00    +0.000 OA
ATOM     20  N   UNL     1      47.824   7.257  14.740  0.00  0.00    +0.000 N 
ATOM     21  H   UNL     1      46.954   7.329  15.245  0.00  0.00    +0.000 HD
BRANCH  18  29
ATOM     22  C   UNL     1      48.865   4.619  17.873  0.00  0.00    +0.000 A 
ATOM     23  N   UNL     1      48.816   3.896  19.006  0.00  0.00    +0.000 NA
ATOM     24  C   UNL     1      48.784   4.544  20.167  0.00  0.00    +0.000 A 
ATOM     25  N   UNL     1      48.792   5.862  20.340  0.00  0.00    +0.000 NA
ATOM     26  C   UNL     1      48.848   6.547  19.184  0.00  0.00    +0.000 A 
ATOM     27  S   UNL     1      48.866   8.242  19.214  0.00  0.00    +0.000 S 
ATOM     28  C   UNL     1      48.933   8.322  17.516  0.00  0.00    +0.000 A 
ATOM     29  C   UNL     1      48.952   7.077  16.893  0.00  0.00    +0.000 A 
ATOM     30  C   UNL     1      48.896   6.020  17.898  0.00  0.00    +0.000 A 
BRANCH  22  32
ATOM     31  C   UNL     1      48.943   2.515  16.940  0.00  0.00    +0.000 C 
ATOM     32  O   UNL     1      48.939   3.919  16.689  0.00  0.00    +0.000 OA
ENDBRANCH  22  32
ENDBRANCH  18  29
ENDBRANCH   1  20
TORSDOF 8
ENDMDL
MODEL 2
REMARK VINA RESULT:    -7.451      1.621      2.608
REMARK INTER + INTRA:         -11.930
REMARK INTER:                 -11.019
REMARK INTRA:                  -0.911
REMARK UNBOUND:                -0.994
REMARK  Name = 
REMARK  9 active torsions:
REMARK  status: ('A' for Active; 'I' for Inactive)
REMARK    1  A    between atoms: C_1  and  O_2
REMARK    2  A    between atoms: O_2  and  C_3
REMARK    3  A    between atoms: C_10  and  C_11
REMARK    4  A    between atoms: N_13  and  C_14
REMARK    5  A    between atoms: C_14  and  C_15
REMARK    6  A    between atoms: C_18  and  N_19
REMARK    7  A    between atoms: N_19  and  C_20
REMARK    8  A    between atoms: C_20  and  C_21
REMARK    9  A    between atoms: C_21  and  N_22
REMARK                            x       y       z     vdW  Elec       q    Type
REMARK                         _______ _______ _______ _____ _____    ______ ____
ROOT
ATOM      1  C   UNL     1      48.148   6.453  13.992  0.00  0.00    +0.000 C 
ENDROOT
BRANCH   1   2
ATOM      2  C   UNL     1      46.960   5.926  13.220  0.00  0.00    +0.000 A 
ATOM      3  C   UNL     1      46.656   6.427  11.952  0.00  0.00    +0.000 A 
ATOM      4  C   UNL     1      45.534   5.968  11.245  0.00  0.00    +0.000 A 
ATOM      5  C   UNL     1      44.706   4.961  11.759  0.00  0.00    +0.000 A 
ATOM      6  C   UNL     1      45.015   4.465  13.029  0.00  0.00    +0.000 A 
ATOM      7  C   UNL     1      46.125   4.936  13.750  0.00  0.00    +0.000 A 
BRANCH   5   8
ATOM      8  N   UNL     1      43.596   4.428  11.072  0.00  0.00    +0.000 N 
ATOM      9  H   UNL     1      42.764   5.017  11.124  0.00  0.00    +0.000 HD
BRANCH   8  10
ATOM     10  C   UNL     1      43.864   3.940   9.713  0.00  0.00    +0.000 C 
BRANCH  10  11
ATOM     11  C   UNL     1      44.647   2.599   9.670  0.00  0.00    +0.000 C 
BRANCH  11  12
ATOM     12  N   UNL     1      45.797   2.595   8.730  0.00  0.00    +0.000 NA
ATOM     13  C   UNL     1      46.038   1.238   8.206  0.00  0.00    +0.000 C 
ATOM     14  C   UNL     1      47.258   1.194   7.287  0.00  0.00    +0.000 C 
ATOM     15  C   UNL     1      47.138   2.196   6.148  0.00  0.00    +0.000 C 
ATOM     16  C   UNL     1      46.835   3.581   6.701  0.00  0.00    +0.000 C 
ATOM     17  C   UNL     1      45.614   3.551   7.624  0.00  0.00    +0.000 C 
ENDBRANCH  11  12
ENDBRANCH  10  11
ENDBRANCH   8  10
ENDBRANCH   5   8
ENDBRANCH   1   2
BRANCH   1  20
ATOM     18  C   UNL     1      49.062   6.258  16.272  0.00  0.00    +0.000 C 
ATOM     19  O   UNL     1      50.205   6.333  15.855  0.00  0.00    +0.000 OA
ATOM     20  N   UNL     1      47.981   6.312  15.422  0.00  0.00    +0.000 N 
ATOM     21  H   UNL     1      47.053   6.125  15.769  0.00  0.00    +0.000 HD
BRANCH  18  29
ATOM     22  C   UNL     1      47.832   8.384  18.682  0.00  0.00    +0.000 A 
ATOM     23  N   UNL     1      47.380   8.996  19.791  0.00  0.00    +0.000 NA
ATOM     24  C   UNL     1      47.350   8.302  20.927  0.00  0.00    +0.000 A 
ATOM     25  N   UNL     1      47.732   7.040  21.095  0.00  0.00    +0.000 NA
ATOM     26  C   UNL     1      48.170   6.464  19.962  0.00  0.00    +0.000 A 
ATOM     27  S   UNL     1      48.699   4.853  19.990  0.00  0.00    +0.000 S 
ATOM     28  C   UNL     1      49.057   4.889  18.327  0.00  0.00    +0.000 A 
ATOM     29  C   UNL     1      48.779   6.108  17.716  0.00  0.00    +0.000 A 
ATOM     30  C   UNL     1      48.254   7.047  18.702  0.00  0.00    +0.000 A 
BRANCH  22  32
ATOM     31  C   UNL     1      47.905  10.509  17.799  0.00  0.00    +0.000 C 
ATOM     32  O   UNL     1      47.812   9.115  17.515  0.00  0.00    +0.000 OA
ENDBRANCH  22  32
ENDBRANCH  18  29
ENDBRANCH   1  20
TORSDOF 8
ENDMDL
MODEL 3
REMARK VINA RESULT:    -7.398      1.668      2.010
REMARK INTER + INTRA:         -11.852
REMARK INTER:                 -10.687
REMARK INTRA:                  -1.164
REMARK UNBOUND:                -0.994
REMARK  Name = 
REMARK  9 active torsions:
REMARK  status: ('A' for Active; 'I' for Inactive)
REMARK    1  A    between atoms: C_1  and  O_2
REMARK    2  A    between atoms: O_2  and  C_3
REMARK    3  A    between atoms: C_10  and  C_11
REMARK    4  A    between atoms: N_13  and  C_14
REMARK    5  A    between atoms: C_14  and  C_15
REMARK    6  A    between atoms: C_18  and  N_19
REMARK    7  A    between atoms: N_19  and  C_20
REMARK    8  A    between atoms: C_20  and  C_21
REMARK    9  A    between atoms: C_21  and  N_22
REMARK                            x       y       z     vdW  Elec       q    Type
REMARK                         _______ _______ _______ _____ _____    ______ ____
ROOT
ATOM      1  C   UNL     1      47.751   7.408  13.473  0.00  0.00    +0.000 C 
ENDROOT
BRANCH   1   2
ATOM      2  C   UNL     1      46.923   6.229  13.018  0.00  0.00    +0.000 A 
ATOM      3  C   UNL     1      46.913   5.040  13.752  0.00  0.00    +0.000 A 
ATOM      4  C   UNL     1      46.175   3.930  13.316  0.00  0.00    +0.000 A 
ATOM      5  C   UNL     1      45.384   3.983  12.160  0.00  0.00    +0.000 A 
ATOM      6  C   UNL     1      45.399   5.175  11.431  0.00  0.00    +0.000 A 
ATOM      7  C   UNL     1      46.154   6.283  11.850  0.00  0.00    +0.000 A 
BRANCH   5   8
ATOM      8  N   UNL     1      44.584   2.915  11.703  0.00  0.00    +0.000 N 
ATOM      9  H   UNL     1      43.862   2.635  12.368  0.00  0.00    +0.000 HD
BRANCH   8  10
ATOM     10  C   UNL     1      44.079   3.043  10.331  0.00  0.00    +0.000 C 
BRANCH  10  11
ATOM     11  C   UNL     1      44.569   1.923   9.373  0.00  0.00    +0.000 C 
BRANCH  11  12
ATOM     12  N   UNL     1      45.781   2.277   8.592  0.00  0.00    +0.000 NA
ATOM     13  C   UNL     1      46.303   1.099   7.875  0.00  0.00    +0.000 C 
ATOM     14  C   UNL     1      47.590   1.421   7.116  0.00  0.00    +0.000 C 
ATOM     15  C   UNL     1      47.398   2.590   6.160  0.00  0.00    +0.000 C 
ATOM     16  C   UNL     1      46.809   3.780   6.902  0.00  0.00    +0.000 C 
ATOM     17  C   UNL     1      45.534   3.385   7.653  0.00  0.00    +0.000 C 
ENDBRANCH  11  12
ENDBRANCH  10  11
ENDBRANCH   8  10
ENDBRANCH   5   8
ENDBRANCH   1   2
BRANCH   1  20
ATOM     18  C   UNL     1      49.164   7.656  15.478  0.00  0.00    +0.000 C 
ATOM     19  O   UNL     1      48.490   8.591  15.876  0.00  0.00    +0.000 OA
ATOM     20  N   UNL     1      48.869   7.008  14.300  0.00  0.00    +0.000 N 
ATOM     21  H   UNL     1      49.506   6.322  13.926  0.00  0.00    +0.000 HD
BRANCH  18  29
ATOM     22  C   UNL     1      49.900   4.682  17.044  0.00  0.00    +0.000 A 
ATOM     23  N   UNL     1      50.428   3.645  17.719  0.00  0.00    +0.000 NA
ATOM     24  C   UNL     1      51.637   3.791  18.257  0.00  0.00    +0.000 A 
ATOM     25  N   UNL     1      52.401   4.878  18.206  0.00  0.00    +0.000 NA
ATOM     26  C   UNL     1      51.840   5.888  17.518  0.00  0.00    +0.000 A 
ATOM     27  S   UNL     1      52.675   7.354  17.351  0.00  0.00    +0.000 S 
ATOM     28  C   UNL     1      51.404   8.033  16.445  0.00  0.00    +0.000 A 
ATOM     29  C   UNL     1      50.332   7.169  16.244  0.00  0.00    +0.000 A 
ATOM     30  C   UNL     1      50.597   5.889  16.893  0.00  0.00    +0.000 A 
BRANCH  22  32
ATOM     31  C   UNL     1      47.638   4.554  17.449  0.00  0.00    +0.000 C 
ATOM     32  O   UNL     1      48.667   4.486  16.464  0.00  0.00    +0.000 OA
ENDBRANCH  22  32
ENDBRANCH  18  29
ENDBRANCH   1  20
TORSDOF 8
ENDMDL
MODEL 4
REMARK VINA RESULT:    -7.262      1.646      3.153
REMARK INTER + INTRA:         -11.652
REMARK INTER:                 -10.548
REMARK INTRA:                  -1.104
REMARK UNBOUND:                -0.994
REMARK  Name = 
REMARK  9 active torsions:
REMARK  status: ('A' for Active; 'I' for Inactive)
REMARK    1  A    between atoms: C_1  and  O_2
REMARK    2  A    between atoms: O_2  and  C_3
REMARK    3  A    between atoms: C_10  and  C_11
REMARK    4  A    between atoms: N_13  and  C_14
REMARK    5  A    between atoms: C_14  and  C_15
REMARK    6  A    between atoms: C_18  and  N_19
REMARK    7  A    between atoms: N_19  and  C_20
REMARK    8  A    between atoms: C_20  and  C_21
REMARK    9  A    between atoms: C_21  and  N_22
REMARK                            x       y       z     vdW  Elec       q    Type
REMARK                         _______ _______ _______ _____ _____    ______ ____
ROOT
ATOM      1  C   UNL     1      47.300   4.046  15.313  0.00  0.00    +0.000 C 
ENDROOT
BRANCH   1   2
ATOM      2  C   UNL     1      46.691   4.484  14.001  0.00  0.00    +0.000 A 
ATOM      3  C   UNL     1      46.920   5.769  13.504  0.00  0.00    +0.000 A 
ATOM      4  C   UNL     1      46.330   6.194  12.305  0.00  0.00    +0.000 A 
ATOM      5  C   UNL     1      45.530   5.337  11.537  0.00  0.00    +0.000 A 
ATOM      6  C   UNL     1      45.304   4.053  12.041  0.00  0.00    +0.000 A 
ATOM      7  C   UNL     1      45.875   3.629  13.253  0.00  0.00    +0.000 A 
BRANCH   5   8
ATOM      8  N   UNL     1      44.952   5.695  10.302  0.00  0.00    +0.000 N 
ATOM      9  H   UNL     1      44.817   6.701  10.192  0.00  0.00    +0.000 HD
BRANCH   8  10
ATOM     10  C   UNL     1      45.548   5.066   9.116  0.00  0.00    +0.000 C 
BRANCH  10  11
ATOM     11  C   UNL     1      44.642   3.997   8.448  0.00  0.00    +0.000 C 
BRANCH  11  12
ATOM     12  N   UNL     1      45.382   2.975   7.664  0.00  0.00    +0.000 NA
ATOM     13  C   UNL     1      46.456   3.603   6.872  0.00  0.00    +0.000 C 
ATOM     14  C   UNL     1      47.191   2.583   6.004  0.00  0.00    +0.000 C 
ATOM     15  C   UNL     1      47.739   1.432   6.836  0.00  0.00    +0.000 C 
ATOM     16  C   UNL     1      46.632   0.830   7.688  0.00  0.00    +0.000 C 
ATOM     17  C   UNL     1      45.927   1.906   8.518  0.00  0.00    +0.000 C 
ENDBRANCH  11  12
ENDBRANCH  10  11
ENDBRANCH   8  10
ENDBRANCH   5   8
ENDBRANCH   1   2
BRANCH   1  20
ATOM     18  C   UNL     1      48.640   5.281  16.972  0.00  0.00    +0.000 C 
ATOM     19  O   UNL     1      49.548   4.472  16.888  0.00  0.00    +0.000 OA
ATOM     20  N   UNL     1      47.491   5.152  16.227  0.00  0.00    +0.000 N 
ATOM     21  H   UNL     1      46.704   5.758  16.399  0.00  0.00    +0.000 HD
BRANCH  18  29
ATOM     22  C   UNL     1      48.691   8.684  16.463  0.00  0.00    +0.000 A 
ATOM     23  N   UNL     1      48.726  10.026  16.541  0.00  0.00    +0.000 NA
ATOM     24  C   UNL     1      48.830  10.586  17.743  0.00  0.00    +0.000 A 
ATOM     25  N   UNL     1      48.909   9.952  18.909  0.00  0.00    +0.000 NA
ATOM     26  C   UNL     1      48.864   8.614  18.787  0.00  0.00    +0.000 A 
ATOM     27  S   UNL     1      48.953   7.642  20.175  0.00  0.00    +0.000 S 
ATOM     28  C   UNL     1      48.844   6.220  19.246  0.00  0.00    +0.000 A 
ATOM     29  C   UNL     1      48.731   6.446  17.878  0.00  0.00    +0.000 A 
ATOM     30  C   UNL     1      48.749   7.881  17.611  0.00  0.00    +0.000 A 
BRANCH  22  32
ATOM     31  C   UNL     1      49.815   7.852  14.634  0.00  0.00    +0.000 C 
ATOM     32  O   UNL     1      48.541   8.136  15.208  0.00  0.00    +0.000 OA
ENDBRANCH  22  32
ENDBRANCH  18  29
ENDBRANCH   1  20
TORSDOF 8
ENDMDL
MODEL 5
REMARK VINA RESULT:    -6.792      1.946      2.904
REMARK INTER + INTRA:         -10.963
REMARK INTER:                  -9.976
REMARK INTRA:                  -0.988
REMARK UNBOUND:                -0.994
REMARK  Name = 
REMARK  9 active torsions:
REMARK  status: ('A' for Active; 'I' for Inactive)
REMARK    1  A    between atoms: C_1  and  O_2
REMARK    2  A    between atoms: O_2  and  C_3
REMARK    3  A    between atoms: C_10  and  C_11
REMARK    4  A    between atoms: N_13  and  C_14
REMARK    5  A    between atoms: C_14  and  C_15
REMARK    6  A    between atoms: C_18  and  N_19
REMARK    7  A    between atoms: N_19  and  C_20
REMARK    8  A    between atoms: C_20  and  C_21
REMARK    9  A    between atoms: C_21  and  N_22
REMARK                            x       y       z     vdW  Elec       q    Type
REMARK                         _______ _______ _______ _____ _____    ______ ____
ROOT
ATOM      1  C   UNL     1      47.616   4.754  15.067  0.00  0.00    +0.000 C 
ENDROOT
BRANCH   1   2
ATOM      2  C   UNL     1      46.612   4.701  13.938  0.00  0.00    +0.000 A 
ATOM      3  C   UNL     1      45.943   5.856  13.526  0.00  0.00    +0.000 A 
ATOM      4  C   UNL     1      44.985   5.807  12.503  0.00  0.00    +0.000 A 
ATOM      5  C   UNL     1      44.695   4.615  11.825  0.00  0.00    +0.000 A 
ATOM      6  C   UNL     1      45.367   3.464  12.244  0.00  0.00    +0.000 A 
ATOM      7  C   UNL     1      46.313   3.502  13.282  0.00  0.00    +0.000 A 
BRANCH   5   8
ATOM      8  N   UNL     1      43.778   4.519  10.758  0.00  0.00    +0.000 N 
ATOM      9  H   UNL     1      43.552   5.419  10.334  0.00  0.00    +0.000 HD
BRANCH   8  10
ATOM     10  C   UNL     1      44.066   3.476   9.766  0.00  0.00    +0.000 C 
BRANCH  10  11
ATOM     11  C   UNL     1      44.647   4.020   8.432  0.00  0.00    +0.000 C 
BRANCH  11  12
ATOM     12  N   UNL     1      45.407   3.017   7.644  0.00  0.00    +0.000 NA
ATOM     13  C   UNL     1      46.490   3.664   6.882  0.00  0.00    +0.000 C 
ATOM     14  C   UNL     1      47.247   2.663   6.010  0.00  0.00    +0.000 C 
ATOM     15  C   UNL     1      47.789   1.502   6.833  0.00  0.00    +0.000 C 
ATOM     16  C   UNL     1      46.671   0.879   7.656  0.00  0.00    +0.000 C 
ATOM     17  C   UNL     1      45.945   1.937   8.491  0.00  0.00    +0.000 C 
ENDBRANCH  11  12
ENDBRANCH  10  11
ENDBRANCH   8  10
ENDBRANCH   5   8
ENDBRANCH   1   2
BRANCH   1  20
ATOM     18  C   UNL     1      48.751   6.941  15.009  0.00  0.00    +0.000 C 
ATOM     19  O   UNL     1      49.448   6.590  14.072  0.00  0.00    +0.000 OA
ATOM     20  N   UNL     1      47.815   6.098  15.563  0.00  0.00    +0.000 N 
ATOM     21  H   UNL     1      47.337   6.359  16.411  0.00  0.00    +0.000 HD
BRANCH  18  29
ATOM     22  C   UNL     1      48.711   8.139  18.234  0.00  0.00    +0.000 A 
ATOM     23  N   UNL     1      48.735   8.854  19.373  0.00  0.00    +0.000 NA
ATOM     24  C   UNL     1      48.885  10.173  19.287  0.00  0.00    +0.000 A 
ATOM     25  N   UNL     1      49.014  10.886  18.172  0.00  0.00    +0.000 NA
ATOM     26  C   UNL     1      48.992  10.133  17.058  0.00  0.00    +0.000 A 
ATOM     27  S   UNL     1      49.144  10.876  15.541  0.00  0.00    +0.000 S 
ATOM     28  C   UNL     1      49.024   9.380  14.740  0.00  0.00    +0.000 A 
ATOM     29  C   UNL     1      48.876   8.292  15.595  0.00  0.00    +0.000 A 
ATOM     30  C   UNL     1      48.852   8.752  16.981  0.00  0.00    +0.000 A 
BRANCH  22  32
ATOM     31  C   UNL     1      47.528   6.441  19.243  0.00  0.00    +0.000 C 
ATOM     32  O   UNL     1      48.596   6.772  18.357  0.00  0.00    +0.000 OA
ENDBRANCH  22  32
ENDBRANCH  18  29
ENDBRANCH   1  20
TORSDOF 8
ENDMDL
MODEL 6
REMARK VINA RESULT:    -6.677      4.391      9.311
REMARK INTER + INTRA:         -10.794
REMARK INTER:                  -9.934
REMARK INTRA:                  -0.861
REMARK UNBOUND:                -0.994
REMARK  Name = 
REMARK  9 active torsions:
REMARK  status: ('A' for Active; 'I' for Inactive)
REMARK    1  A    between atoms: C_1  and  O_2
REMARK    2  A    between atoms: O_2  and  C_3
REMARK    3  A    between atoms: C_10  and  C_11
REMARK    4  A    between atoms: N_13  and  C_14
REMARK    5  A    between atoms: C_14  and  C_15
REMARK    6  A    between atoms: C_18  and  N_19
REMARK    7  A    between atoms: N_19  and  C_20
REMARK    8  A    between atoms: C_20  and  C_21
REMARK    9  A    between atoms: C_21  and  N_22
REMARK                            x       y       z     vdW  Elec       q    Type
REMARK                         _______ _______ _______ _____ _____    ______ ____
ROOT
ATOM      1  C   UNL     1      47.295   3.287  16.827  0.00  0.00    +0.000 C 
ENDROOT
BRANCH   1   2
ATOM      2  C   UNL     1      48.773   3.312  17.140  0.00  0.00    +0.000 A 
ATOM      3  C   UNL     1      49.395   4.494  17.548  0.00  0.00    +0.000 A 
ATOM      4  C   UNL     1      50.773   4.533  17.807  0.00  0.00    +0.000 A 
ATOM      5  C   UNL     1      51.569   3.383  17.712  0.00  0.00    +0.000 A 
ATOM      6  C   UNL     1      50.940   2.204  17.303  0.00  0.00    +0.000 A 
ATOM      7  C   UNL     1      49.564   2.164  17.022  0.00  0.00    +0.000 A 
BRANCH   5   8
ATOM      8  N   UNL     1      52.948   3.353  18.007  0.00  0.00    +0.000 N 
ATOM      9  H   UNL     1      53.220   4.007  18.742  0.00  0.00    +0.000 HD
BRANCH   8  10
ATOM     10  C   UNL     1      53.529   2.017  18.188  0.00  0.00    +0.000 C 
BRANCH  10  11
ATOM     11  C   UNL     1      54.730   1.721  17.247  0.00  0.00    +0.000 C 
BRANCH  11  12
ATOM     12  N   UNL     1      55.209   0.316  17.295  0.00  0.00    +0.000 NA
ATOM     13  C   UNL     1      54.985  -0.266  18.631  0.00  0.00    +0.000 C 
ATOM     14  C   UNL     1      55.529  -1.690  18.727  0.00  0.00    +0.000 C 
ATOM     15  C   UNL     1      54.945  -2.588  17.645  0.00  0.00    +0.000 C 
ATOM     16  C   UNL     1      55.135  -1.948  16.278  0.00  0.00    +0.000 C 
ATOM     17  C   UNL     1      54.583  -0.520  16.256  0.00  0.00    +0.000 C 
ENDBRANCH  11  12
ENDBRANCH  10  11
ENDBRANCH   8  10
ENDBRANCH   5   8
ENDBRANCH   1   2
BRANCH   1  20
ATOM     18  C   UNL     1      46.958   4.199  14.562  0.00  0.00    +0.000 C 
ATOM     19  O   UNL     1      47.330   3.156  14.052  0.00  0.00    +0.000 OA
ATOM     20  N   UNL     1      46.906   4.352  15.928  0.00  0.00    +0.000 N 
ATOM     21  H   UNL     1      46.715   5.257  16.330  0.00  0.00    +0.000 HD
BRANCH  18  29
ATOM     22  C   UNL     1      44.199   4.843  12.609  0.00  0.00    +0.000 A 
ATOM     23  N   UNL     1      43.245   5.339  11.801  0.00  0.00    +0.000 NA
ATOM     24  C   UNL     1      43.424   6.553  11.285  0.00  0.00    +0.000 A 
ATOM     25  N   UNL     1      44.469   7.351  11.479  0.00  0.00    +0.000 NA
ATOM     26  C   UNL     1      45.395   6.821  12.297  0.00  0.00    +0.000 A 
ATOM     27  S   UNL     1      46.799   7.702  12.657  0.00  0.00    +0.000 S 
ATOM     28  C   UNL     1      47.390   6.452  13.648  0.00  0.00    +0.000 A 
ATOM     29  C   UNL     1      46.541   5.352  13.735  0.00  0.00    +0.000 A 
ATOM     30  C   UNL     1      45.352   5.578  12.919  0.00  0.00    +0.000 A 
BRANCH  22  32
ATOM     31  C   UNL     1      43.465   2.705  12.173  0.00  0.00    +0.000 C 
ATOM     32  O   UNL     1      43.967   3.603  13.161  0.00  0.00    +0.000 OA
ENDBRANCH  22  32
ENDBRANCH  18  29
ENDBRANCH   1  20
TORSDOF 8
ENDMDL
MODEL 7
REMARK VINA RESULT:    -6.312      5.553      8.003
REMARK INTER + INTRA:         -10.259
REMARK INTER:                  -9.036
REMARK INTRA:                  -1.222
REMARK UNBOUND:                -0.994
REMARK  Name = 
REMARK  9 active torsions:
REMARK  status: ('A' for Active; 'I' for Inactive)
REMARK    1  A    between atoms: C_1  and  O_2
REMARK    2  A    between atoms: O_2  and  C_3
REMARK    3  A    between atoms: C_10  and  C_11
REMARK    4  A    between atoms: N_13  and  C_14
REMARK    5  A    between atoms: C_14  and  C_15
REMARK    6  A    between atoms: C_18  and  N_19
REMARK    7  A    between atoms: N_19  and  C_20
REMARK    8  A    between atoms: C_20  and  C_21
REMARK    9  A    between atoms: C_21  and  N_22
REMARK                            x       y       z     vdW  Elec       q    Type
REMARK                         _______ _______ _______ _____ _____    ______ ____
ROOT
ATOM      1  C   UNL     1      51.301   8.451  11.997  0.00  0.00    +0.000 C 
ENDROOT
BRANCH   1   2
ATOM      2  C   UNL     1      49.968   7.872  12.410  0.00  0.00    +0.000 A 
ATOM      3  C   UNL     1      49.739   7.486  13.733  0.00  0.00    +0.000 A 
ATOM      4  C   UNL     1      48.516   6.915  14.117  0.00  0.00    +0.000 A 
ATOM      5  C   UNL     1      47.465   6.754  13.204  0.00  0.00    +0.000 A 
ATOM      6  C   UNL     1      47.701   7.142  11.883  0.00  0.00    +0.000 A 
ATOM      7  C   UNL     1      48.931   7.694  11.488  0.00  0.00    +0.000 A 
BRANCH   5   8
ATOM      8  N   UNL     1      46.199   6.233  13.545  0.00  0.00    +0.000 N 
ATOM      9  H   UNL     1      45.814   6.629  14.403  0.00  0.00    +0.000 HD
BRANCH   8  10
ATOM     10  C   UNL     1      45.221   6.176  12.452  0.00  0.00    +0.000 C 
BRANCH  10  11
ATOM     11  C   UNL     1      44.634   4.759  12.206  0.00  0.00    +0.000 C 
BRANCH  11  12
ATOM     12  N   UNL     1      45.080   4.128  10.937  0.00  0.00    +0.000 NA
ATOM     13  C   UNL     1      44.144   3.066  10.526  0.00  0.00    +0.000 C 
ATOM     14  C   UNL     1      44.614   2.355   9.259  0.00  0.00    +0.000 C 
ATOM     15  C   UNL     1      44.846   3.337   8.119  0.00  0.00    +0.000 C 
ATOM     16  C   UNL     1      45.770   4.456   8.575  0.00  0.00    +0.000 C 
ATOM     17  C   UNL     1      45.250   5.114   9.856  0.00  0.00    +0.000 C 
ENDBRANCH  11  12
ENDBRANCH  10  11
ENDBRANCH   8  10
ENDBRANCH   5   8
ENDBRANCH   1   2
BRANCH   1  20
ATOM     18  C   UNL     1      52.620   8.797   9.944  0.00  0.00    +0.000 C 
ATOM     19  O   UNL     1      53.224   9.726  10.450  0.00  0.00    +0.000 OA
ATOM     20  N   UNL     1      51.653   8.106  10.637  0.00  0.00    +0.000 N 
ATOM     21  H   UNL     1      51.079   7.424  10.164  0.00  0.00    +0.000 HD
BRANCH  18  29
ATOM     22  C   UNL     1      53.529   5.793   8.534  0.00  0.00    +0.000 A 
ATOM     23  N   UNL     1      53.876   4.760   7.745  0.00  0.00    +0.000 NA
ATOM     24  C   UNL     1      53.994   4.977   6.437  0.00  0.00    +0.000 A 
ATOM     25  N   UNL     1      53.807   6.132   5.805  0.00  0.00    +0.000 NA
ATOM     26  C   UNL     1      53.456   7.135   6.629  0.00  0.00    +0.000 A 
ATOM     27  S   UNL     1      53.177   8.682   5.993  0.00  0.00    +0.000 S 
ATOM     28  C   UNL     1      52.822   9.307   7.536  0.00  0.00    +0.000 A 
ATOM     29  C   UNL     1      52.898   8.364   8.557  0.00  0.00    +0.000 A 
ATOM     30  C   UNL     1      53.283   7.068   8.007  0.00  0.00    +0.000 A 
BRANCH  22  32
ATOM     31  C   UNL     1      54.628   5.626  10.551  0.00  0.00    +0.000 C 
ATOM     32  O   UNL     1      53.375   5.527   9.877  0.00  0.00    +0.000 OA
ENDBRANCH  22  32
ENDBRANCH  18  29
ENDBRANCH   1  20
TORSDOF 8
ENDMDL
MODEL 8
REMARK VINA RESULT:    -6.221      4.377      9.039
REMARK INTER + INTRA:         -10.124
REMARK INTER:                  -8.955
REMARK INTRA:                  -1.169
REMARK UNBOUND:                -0.994
REMARK  Name = 
REMARK  9 active torsions:
REMARK  status: ('A' for Active; 'I' for Inactive)
REMARK    1  A    between atoms: C_1  and  O_2
REMARK    2  A    between atoms: O_2  and  C_3
REMARK    3  A    between atoms: C_10  and  C_11
REMARK    4  A    between atoms: N_13  and  C_14
REMARK    5  A    between atoms: C_14  and  C_15
REMARK    6  A    between atoms: C_18  and  N_19
REMARK    7  A    between atoms: N_19  and  C_20
REMARK    8  A    between atoms: C_20  and  C_21
REMARK    9  A    between atoms: C_21  and  N_22
REMARK                            x       y       z     vdW  Elec       q    Type
REMARK                         _______ _______ _______ _____ _____    ______ ____
ROOT
ATOM      1  C   UNL     1      47.351   3.640  16.908  0.00  0.00    +0.000 C 
ENDROOT
BRANCH   1   2
ATOM      2  C   UNL     1      48.809   3.359  17.191  0.00  0.00    +0.000 A 
ATOM      3  C   UNL     1      49.359   2.105  16.913  0.00  0.00    +0.000 A 
ATOM      4  C   UNL     1      50.702   1.826  17.205  0.00  0.00    +0.000 A 
ATOM      5  C   UNL     1      51.554   2.802  17.740  0.00  0.00    +0.000 A 
ATOM      6  C   UNL     1      50.997   4.053  18.017  0.00  0.00    +0.000 A 
ATOM      7  C   UNL     1      49.647   4.332  17.746  0.00  0.00    +0.000 A 
BRANCH   5   8
ATOM      8  N   UNL     1      52.923   2.591  18.008  0.00  0.00    +0.000 N 
ATOM      9  H   UNL     1      53.173   2.740  18.986  0.00  0.00    +0.000 HD
BRANCH   8  10
ATOM     10  C   UNL     1      53.495   1.358  17.454  0.00  0.00    +0.000 C 
BRANCH  10  11
ATOM     11  C   UNL     1      54.425   0.598  18.439  0.00  0.00    +0.000 C 
BRANCH  11  12
ATOM     12  N   UNL     1      54.973  -0.673  17.901  0.00  0.00    +0.000 NA
ATOM     13  C   UNL     1      54.405  -1.830  18.616  0.00  0.00    +0.000 C 
ATOM     14  C   UNL     1      55.002  -3.149  18.127  0.00  0.00    +0.000 C 
ATOM     15  C   UNL     1      54.838  -3.313  16.623  0.00  0.00    +0.000 C 
ATOM     16  C   UNL     1      55.379  -2.088  15.901  0.00  0.00    +0.000 C 
ATOM     17  C   UNL     1      54.753  -0.804  16.450  0.00  0.00    +0.000 C 
ENDBRANCH  11  12
ENDBRANCH  10  11
ENDBRANCH   8  10
ENDBRANCH   5   8
ENDBRANCH   1   2
BRANCH   1  20
ATOM     18  C   UNL     1      47.126   4.355  14.561  0.00  0.00    +0.000 C 
ATOM     19  O   UNL     1      47.226   3.206  14.167  0.00  0.00    +0.000 OA
ATOM     20  N   UNL     1      47.173   4.663  15.901  0.00  0.00    +0.000 N 
ATOM     21  H   UNL     1      47.213   5.625  16.199  0.00  0.00    +0.000 HD
BRANCH  18  29
ATOM     22  C   UNL     1      48.861   7.269  13.979  0.00  0.00    +0.000 A 
ATOM     23  N   UNL     1      49.349   8.448  13.555  0.00  0.00    +0.000 NA
ATOM     24  C   UNL     1      48.707   9.081  12.576  0.00  0.00    +0.000 A 
ATOM     25  N   UNL     1      47.606   8.670  11.954  0.00  0.00    +0.000 NA
ATOM     26  C   UNL     1      47.156   7.485  12.403  0.00  0.00    +0.000 A 
ATOM     27  S   UNL     1      45.758   6.806  11.723  0.00  0.00    +0.000 S 
ATOM     28  C   UNL     1      45.857   5.452  12.748  0.00  0.00    +0.000 A 
ATOM     29  C   UNL     1      46.945   5.478  13.615  0.00  0.00    +0.000 A 
ATOM     30  C   UNL     1      47.715   6.700  13.406  0.00  0.00    +0.000 A 
BRANCH  22  32
ATOM     31  C   UNL     1      50.726   7.373  15.325  0.00  0.00    +0.000 C 
ATOM     32  O   UNL     1      49.571   6.619  14.965  0.00  0.00    +0.000 OA
ENDBRANCH  22  32
ENDBRANCH  18  29
ENDBRANCH   1  20
TORSDOF 8
ENDMDL
MODEL 9
REMARK VINA RESULT:    -6.087      3.061      4.488
REMARK INTER + INTRA:          -9.927
REMARK INTER:                  -9.136
REMARK INTRA:                  -0.792
REMARK UNBOUND:                -0.994
REMARK  Name = 
REMARK  9 active torsions:
REMARK  status: ('A' for Active; 'I' for Inactive)
REMARK    1  A    between atoms: C_1  and  O_2
REMARK    2  A    between atoms: O_2  and  C_3
REMARK    3  A    between atoms: C_10  and  C_11
REMARK    4  A    between atoms: N_13  and  C_14
REMARK    5  A    between atoms: C_14  and  C_15
REMARK    6  A    between atoms: C_18  and  N_19
REMARK    7  A    between atoms: N_19  and  C_20
REMARK    8  A    between atoms: C_20  and  C_21
REMARK    9  A    between atoms: C_21  and  N_22
REMARK                            x       y       z     vdW  Elec       q    Type
REMARK                         _______ _______ _______ _____ _____    ______ ____
ROOT
ATOM      1  C   UNL     1      47.854   6.091  14.620  0.00  0.00    +0.000 C 
ENDROOT
BRANCH   1   2
ATOM      2  C   UNL     1      46.811   5.730  13.588  0.00  0.00    +0.000 A 
ATOM      3  C   UNL     1      46.632   6.521  12.450  0.00  0.00    +0.000 A 
ATOM      4  C   UNL     1      45.642   6.212  11.505  0.00  0.00    +0.000 A 
ATOM      5  C   UNL     1      44.830   5.077  11.639  0.00  0.00    +0.000 A 
ATOM      6  C   UNL     1      45.014   4.291  12.780  0.00  0.00    +0.000 A 
ATOM      7  C   UNL     1      45.989   4.608  13.740  0.00  0.00    +0.000 A 
BRANCH   5   8
ATOM      8  N   UNL     1      43.854   4.692  10.697  0.00  0.00    +0.000 N 
ATOM      9  H   UNL     1      43.461   5.476  10.175  0.00  0.00    +0.000 HD
BRANCH   8  10
ATOM     10  C   UNL     1      44.214   3.558   9.837  0.00  0.00    +0.000 C 
BRANCH  10  11
ATOM     11  C   UNL     1      44.504   3.953   8.363  0.00  0.00    +0.000 C 
BRANCH  11  12
ATOM     12  N   UNL     1      45.317   2.960   7.616  0.00  0.00    +0.000 NA
ATOM     13  C   UNL     1      46.392   3.628   6.860  0.00  0.00    +0.000 C 
ATOM     14  C   UNL     1      47.203   2.636   6.029  0.00  0.00    +0.000 C 
ATOM     15  C   UNL     1      47.768   1.515   6.890  0.00  0.00    +0.000 C 
ATOM     16  C   UNL     1      46.656   0.871   7.704  0.00  0.00    +0.000 C 
ATOM     17  C   UNL     1      45.875   1.920   8.498  0.00  0.00    +0.000 C 
ENDBRANCH  11  12
ENDBRANCH  10  11
ENDBRANCH   8  10
ENDBRANCH   5   8
ENDBRANCH   1   2
BRANCH   1  20
ATOM     18  C   UNL     1      50.026   7.253  14.676  0.00  0.00    +0.000 C 
ATOM     19  O   UNL     1      50.433   6.518  15.559  0.00  0.00    +0.000 OA
ATOM     20  N   UNL     1      48.764   7.113  14.149  0.00  0.00    +0.000 N 
ATOM     21  H   UNL     1      48.400   7.803  13.510  0.00  0.00    +0.000 HD
BRANCH  18  29
ATOM     22  C   UNL     1      51.871   9.783  16.104  0.00  0.00    +0.000 A 
ATOM     23  N   UNL     1      52.656  10.833  16.400  0.00  0.00    +0.000 NA
ATOM     24  C   UNL     1      53.210  11.510  15.397  0.00  0.00    +0.000 A 
ATOM     25  N   UNL     1      53.067  11.261  14.098  0.00  0.00    +0.000 NA
ATOM     26  C   UNL     1      52.280  10.200  13.847  0.00  0.00    +0.000 A 
ATOM     27  S   UNL     1      51.986   9.737  12.242  0.00  0.00    +0.000 S 
ATOM     28  C   UNL     1      50.995   8.447  12.744  0.00  0.00    +0.000 A 
ATOM     29  C   UNL     1      50.873   8.334  14.125  0.00  0.00    +0.000 A 
ATOM     30  C   UNL     1      51.640   9.390  14.779  0.00  0.00    +0.000 A 
BRANCH  22  32
ATOM     31  C   UNL     1      50.254   9.788  17.743  0.00  0.00    +0.000 C 
ATOM     32  O   UNL     1      51.346   9.077  17.165  0.00  0.00    +0.000 OA
ENDBRANCH  22  32
ENDBRANCH  18  29
ENDBRANCH   1  20
TORSDOF 8
ENDMDL
