MODEL 1
REMARK VINA RESULT:    -7.995      0.000      0.000
REMARK INTER + INTRA:         -10.394
REMARK INTER:                  -9.865
REMARK INTRA:                  -0.529
REMARK UNBOUND:                -0.529
REMARK  Name = 
REMARK  5 active torsions:
REMARK  status: ('A' for Active; 'I' for Inactive)
REMARK    1  A    between atoms: C_1  and  C_2
REMARK    2  A    between atoms: C_4  and  O_5
REMARK    3  A    between atoms: O_5  and  C_6
REMARK    4  A    between atoms: C_6  and  C_7
REMARK    5  A    between atoms: C_11  and  C_12
REMARK                            x       y       z     vdW  Elec       q    Type
REMARK                         _______ _______ _______ _____ _____    ______ ____
ROOT
ATOM      1  C   UNL     1      45.161   4.498  11.702  0.00  0.00    +0.000 A 
ATOM      2  C   UNL     1      44.985   5.763  11.144  0.00  0.00    +0.000 A 
ATOM      3  C   UNL     1      45.541   6.865  11.783  0.00  0.00    +0.000 A 
ATOM      4  C   UNL     1      46.271   6.681  12.952  0.00  0.00    +0.000 A 
ATOM      5  C   UNL     1      46.426   5.392  13.463  0.00  0.00    +0.000 A 
ATOM      6  N   UNL     1      45.878   4.310  12.845  0.00  0.00    +0.000 NA
ENDROOT
BRANCH   5   7
ATOM      7  C   UNL     1      47.208   5.119  14.682  0.00  0.00    +0.000 A 
ATOM      8  C   UNL     1      48.262   5.944  15.101  0.00  0.00    +0.000 A 
ATOM      9  N   UNL     1      49.047   5.728  16.189  0.00  0.00    +0.000 NA
ATOM     10  C   UNL     1      48.764   4.627  16.919  0.00  0.00    +0.000 A 
ATOM     11  C   UNL     1      47.737   3.754  16.608  0.00  0.00    +0.000 A 
ATOM     12  F   UNL     1      47.507   2.678  17.372  0.00  0.00    +0.000 F 
ATOM     13  C   UNL     1      46.953   4.001  15.489  0.00  0.00    +0.000 A 
ENDBRANCH   5   7
BRANCH   1  14
ATOM     14  C   UNL     1      44.561   3.278  11.020  0.00  0.00    +0.000 C 
BRANCH  14  15
ATOM     15  O   UNL     1      44.284   3.604   9.663  0.00  0.00    +0.000 OA
BRANCH  15  19
ATOM     16  C   UNL     1      46.827   0.035   7.620  0.00  0.00    +0.000 C 
ATOM     17  C   UNL     1      46.451   1.482   7.756  0.00  0.00    +0.000 A 
ATOM     18  N   UNL     1      45.522   1.829   8.687  0.00  0.00    +0.000 NA
ATOM     19  C   UNL     1      45.223   3.141   8.769  0.00  0.00    +0.000 A 
ATOM     20  N   UNL     1      45.757   4.110   8.001  0.00  0.00    +0.000 NA
ATOM     21  C   UNL     1      46.672   3.715   7.094  0.00  0.00    +0.000 A 
ATOM     22  C   UNL     1      47.055   2.409   6.929  0.00  0.00    +0.000 A 
ATOM     23  F   UNL     1      47.965   2.062   6.010  0.00  0.00    +0.000 F 
ENDBRANCH  15  19
ENDBRANCH  14  15
ENDBRANCH   1  14
TORSDOF 4
ENDMDL
MODEL 2
REMARK VINA RESULT:    -7.993      3.032      4.215
REMARK INTER + INTRA:         -10.392
REMARK INTER:                  -9.686
REMARK INTRA:                  -0.705
REMARK UNBOUND:                -0.529
REMARK  Name = 
REMARK  5 active torsions:
REMARK  status: ('A' for Active; 'I' for Inactive)
REMARK    1  A    between atoms: C_1  and  C_2
REMARK    2  A    between atoms: C_4  and  O_5
REMARK    3  A    between atoms: O_5  and  C_6
REMARK    4  A    between atoms: C_6  and  C_7
REMARK    5  A    between atoms: C_11  and  C_12
REMARK                            x       y       z     vdW  Elec       q    Type
REMARK                         _______ _______ _______ _____ _____    ______ ____
ROOT
ATOM      1  C   UNL     1      44.889   4.178  11.661  0.00  0.00    +0.000 A 
ATOM      2  C   UNL     1      45.637   3.574  12.670  0.00  0.00    +0.000 A 
ATOM      3  C   UNL     1      46.430   4.368  13.490  0.00  0.00    +0.000 A 
ATOM      4  C   UNL     1      46.448   5.745  13.297  0.00  0.00    +0.000 A 
ATOM      5  C   UNL     1      45.673   6.301  12.280  0.00  0.00    +0.000 A 
ATOM      6  N   UNL     1      44.900   5.527  11.469  0.00  0.00    +0.000 NA
ENDROOT
BRANCH   5   7
ATOM      7  C   UNL     1      45.624   7.754  12.034  0.00  0.00    +0.000 A 
ATOM      8  C   UNL     1      46.659   8.618  12.419  0.00  0.00    +0.000 A 
ATOM      9  N   UNL     1      46.659   9.967  12.260  0.00  0.00    +0.000 NA
ATOM     10  C   UNL     1      45.565  10.497  11.671  0.00  0.00    +0.000 A 
ATOM     11  C   UNL     1      44.494   9.738  11.236  0.00  0.00    +0.000 A 
ATOM     12  F   UNL     1      43.436  10.325  10.660  0.00  0.00    +0.000 F 
ATOM     13  C   UNL     1      44.522   8.361  11.415  0.00  0.00    +0.000 A 
ENDBRANCH   5   7
BRANCH   1  14
ATOM     14  C   UNL     1      44.015   3.329  10.752  0.00  0.00    +0.000 C 
BRANCH  14  15
ATOM     15  O   UNL     1      44.074   3.862   9.434  0.00  0.00    +0.000 OA
BRANCH  15  19
ATOM     16  C   UNL     1      46.806   0.271   7.698  0.00  0.00    +0.000 C 
ATOM     17  C   UNL     1      46.451   1.725   7.819  0.00  0.00    +0.000 A 
ATOM     18  N   UNL     1      45.400   2.076   8.606  0.00  0.00    +0.000 NA
ATOM     19  C   UNL     1      45.126   3.394   8.681  0.00  0.00    +0.000 A 
ATOM     20  N   UNL     1      45.798   4.365   8.035  0.00  0.00    +0.000 NA
ATOM     21  C   UNL     1      46.832   3.967   7.267  0.00  0.00    +0.000 A 
ATOM     22  C   UNL     1      47.201   2.654   7.123  0.00  0.00    +0.000 A 
ATOM     23  F   UNL     1      48.232   2.303   6.345  0.00  0.00    +0.000 F 
ENDBRANCH  15  19
ENDBRANCH  14  15
ENDBRANCH   1  14
TORSDOF 4
ENDMDL
MODEL 3
REMARK VINA RESULT:    -7.985      2.048      7.750
REMARK INTER + INTRA:         -10.382
REMARK INTER:                  -9.903
REMARK INTRA:                  -0.479
REMARK UNBOUND:                -0.529
REMARK  Name = 
REMARK  5 active torsions:
REMARK  status: ('A' for Active; 'I' for Inactive)
REMARK    1  A    between atoms: C_1  and  C_2
REMARK    2  A    between atoms: C_4  and  O_5
REMARK    3  A    between atoms: O_5  and  C_6
REMARK    4  A    between atoms: C_6  and  C_7
REMARK    5  A    between atoms: C_11  and  C_12
REMARK                            x       y       z     vdW  Elec       q    Type
REMARK                         _______ _______ _______ _____ _____    ______ ____
ROOT
ATOM      1  C   UNL     1      45.072   4.819  12.798  0.00  0.00    +0.000 A 
ATOM      2  C   UNL     1      43.744   5.229  12.900  0.00  0.00    +0.000 A 
ATOM      3  C   UNL     1      42.919   5.126  11.786  0.00  0.00    +0.000 A 
ATOM      4  C   UNL     1      43.430   4.603  10.603  0.00  0.00    +0.000 A 
ATOM      5  C   UNL     1      44.763   4.197  10.557  0.00  0.00    +0.000 A 
ATOM      6  N   UNL     1      45.578   4.302  11.643  0.00  0.00    +0.000 NA
ENDROOT
BRANCH   5   7
ATOM      7  C   UNL     1      45.365   3.610   9.346  0.00  0.00    +0.000 A 
ATOM      8  C   UNL     1      45.769   4.390   8.253  0.00  0.00    +0.000 A 
ATOM      9  N   UNL     1      46.291   3.911   7.093  0.00  0.00    +0.000 NA
ATOM     10  C   UNL     1      46.433   2.569   7.014  0.00  0.00    +0.000 A 
ATOM     11  C   UNL     1      46.084   1.707   8.037  0.00  0.00    +0.000 A 
ATOM     12  F   UNL     1      46.249   0.385   7.896  0.00  0.00    +0.000 F 
ATOM     13  C   UNL     1      45.552   2.227   9.210  0.00  0.00    +0.000 A 
ENDBRANCH   5   7
BRANCH   1  14
ATOM     14  C   UNL     1      45.993   4.923  14.004  0.00  0.00    +0.000 C 
BRANCH  14  15
ATOM     15  O   UNL     1      46.617   3.661  14.213  0.00  0.00    +0.000 OA
BRANCH  15  19
ATOM     16  C   UNL     1      50.129   1.961  17.067  0.00  0.00    +0.000 C 
ATOM     17  C   UNL     1      48.874   2.753  16.841  0.00  0.00    +0.000 A 
ATOM     18  N   UNL     1      48.352   2.803  15.587  0.00  0.00    +0.000 NA
ATOM     19  C   UNL     1      47.223   3.526  15.441  0.00  0.00    +0.000 A 
ATOM     20  N   UNL     1      46.598   4.200  16.425  0.00  0.00    +0.000 NA
ATOM     21  C   UNL     1      47.155   4.120  17.649  0.00  0.00    +0.000 A 
ATOM     22  C   UNL     1      48.297   3.409  17.913  0.00  0.00    +0.000 A 
ATOM     23  F   UNL     1      48.819   3.362  19.145  0.00  0.00    +0.000 F 
ENDBRANCH  15  19
ENDBRANCH  14  15
ENDBRANCH   1  14
TORSDOF 4
ENDMDL
MODEL 4
REMARK VINA RESULT:    -7.955      2.783      3.834
REMARK INTER + INTRA:         -10.345
REMARK INTER:                  -9.664
REMARK INTRA:                  -0.681
REMARK UNBOUND:                -0.529
REMARK  Name = 
REMARK  5 active torsions:
REMARK  status: ('A' for Active; 'I' for Inactive)
REMARK    1  A    between atoms: C_1  and  C_2
REMARK    2  A    between atoms: C_4  and  O_5
REMARK    3  A    between atoms: O_5  and  C_6
REMARK    4  A    between atoms: C_6  and  C_7
REMARK    5  A    between atoms: C_11  and  C_12
REMARK                            x       y       z     vdW  Elec       q    Type
REMARK                         _______ _______ _______ _____ _____    ______ ____
ROOT
ATOM      1  C   UNL     1      44.953   4.081  11.429  0.00  0.00    +0.000 A 
ATOM      2  C   UNL     1      45.538   3.256  12.388  0.00  0.00    +0.000 A 
ATOM      3  C   UNL     1      46.411   3.813  13.315  0.00  0.00    +0.000 A 
ATOM      4  C   UNL     1      46.668   5.179  13.277  0.00  0.00    +0.000 A 
ATOM      5  C   UNL     1      46.047   5.962  12.304  0.00  0.00    +0.000 A 
ATOM      6  N   UNL     1      45.197   5.421  11.389  0.00  0.00    +0.000 NA
ENDROOT
BRANCH   5   7
ATOM      7  C   UNL     1      46.252   7.420  12.219  0.00  0.00    +0.000 A 
ATOM      8  C   UNL     1      45.188   8.333  12.246  0.00  0.00    +0.000 A 
ATOM      9  N   UNL     1      45.304   9.682  12.132  0.00  0.00    +0.000 NA
ATOM     10  C   UNL     1      46.559  10.162  11.993  0.00  0.00    +0.000 A 
ATOM     11  C   UNL     1      47.682   9.355  11.971  0.00  0.00    +0.000 A 
ATOM     12  F   UNL     1      48.901   9.893  11.829  0.00  0.00    +0.000 F 
ATOM     13  C   UNL     1      47.532   7.980  12.088  0.00  0.00    +0.000 A 
ENDBRANCH   5   7
BRANCH   1  14
ATOM     14  C   UNL     1      43.995   3.493  10.405  0.00  0.00    +0.000 C 
BRANCH  14  15
ATOM     15  O   UNL     1      44.265   4.080   9.137  0.00  0.00    +0.000 OA
BRANCH  15  19
ATOM     16  C   UNL     1      46.728   0.167   7.727  0.00  0.00    +0.000 C 
ATOM     17  C   UNL     1      46.486   1.648   7.731  0.00  0.00    +0.000 A 
ATOM     18  N   UNL     1      45.457   2.139   8.470  0.00  0.00    +0.000 NA
ATOM     19  C   UNL     1      45.286   3.476   8.440  0.00  0.00    +0.000 A 
ATOM     20  N   UNL     1      46.038   4.340   7.731  0.00  0.00    +0.000 NA
ATOM     21  C   UNL     1      47.045   3.804   7.013  0.00  0.00    +0.000 A 
ATOM     22  C   UNL     1      47.313   2.460   6.977  0.00  0.00    +0.000 A 
ATOM     23  F   UNL     1      48.321   1.971   6.245  0.00  0.00    +0.000 F 
ENDBRANCH  15  19
ENDBRANCH  14  15
ENDBRANCH   1  14
TORSDOF 4
ENDMDL
MODEL 5
REMARK VINA RESULT:    -7.554      3.300      4.672
REMARK INTER + INTRA:          -9.850
REMARK INTER:                  -9.190
REMARK INTRA:                  -0.660
REMARK UNBOUND:                -0.529
REMARK  Name = 
REMARK  5 active torsions:
REMARK  status: ('A' for Active; 'I' for Inactive)
REMARK    1  A    between atoms: C_1  and  C_2
REMARK    2  A    between atoms: C_4  and  O_5
REMARK    3  A    between atoms: O_5  and  C_6
REMARK    4  A    between atoms: C_6  and  C_7
REMARK    5  A    between atoms: C_11  and  C_12
REMARK                            x       y       z     vdW  Elec       q    Type
REMARK                         _______ _______ _______ _____ _____    ______ ____
ROOT
ATOM      1  C   UNL     1      44.471   5.430  12.070  0.00  0.00    +0.000 A 
ATOM      2  C   UNL     1      45.291   4.636  12.871  0.00  0.00    +0.000 A 
ATOM      3  C   UNL     1      46.396   5.213  13.486  0.00  0.00    +0.000 A 
ATOM      4  C   UNL     1      46.650   6.567  13.302  0.00  0.00    +0.000 A 
ATOM      5  C   UNL     1      45.793   7.320  12.499  0.00  0.00    +0.000 A 
ATOM      6  N   UNL     1      44.713   6.758  11.890  0.00  0.00    +0.000 NA
ENDROOT
BRANCH   5   7
ATOM      7  C   UNL     1      45.986   8.765  12.281  0.00  0.00    +0.000 A 
ATOM      8  C   UNL     1      44.912   9.661  12.182  0.00  0.00    +0.000 A 
ATOM      9  N   UNL     1      45.018  10.994  11.941  0.00  0.00    +0.000 NA
ATOM     10  C   UNL     1      46.273  11.476  11.800  0.00  0.00    +0.000 A 
ATOM     11  C   UNL     1      47.404  10.686  11.897  0.00  0.00    +0.000 A 
ATOM     12  F   UNL     1      48.621  11.225  11.747  0.00  0.00    +0.000 F 
ATOM     13  C   UNL     1      47.263   9.326  12.142  0.00  0.00    +0.000 A 
ENDBRANCH   5   7
BRANCH   1  14
ATOM     14  C   UNL     1      43.257   4.820  11.388  0.00  0.00    +0.000 C 
BRANCH  14  15
ATOM     15  O   UNL     1      43.393   4.984   9.981  0.00  0.00    +0.000 OA
BRANCH  15  19
ATOM     16  C   UNL     1      46.824   3.704   6.825  0.00  0.00    +0.000 C 
ATOM     17  C   UNL     1      45.828   3.381   7.901  0.00  0.00    +0.000 A 
ATOM     18  N   UNL     1      45.075   4.388   8.415  0.00  0.00    +0.000 NA
ATOM     19  C   UNL     1      44.195   4.043   9.377  0.00  0.00    +0.000 A 
ATOM     20  N   UNL     1      44.024   2.799   9.863  0.00  0.00    +0.000 NA
ATOM     21  C   UNL     1      44.794   1.835   9.322  0.00  0.00    +0.000 A 
ATOM     22  C   UNL     1      45.717   2.073   8.336  0.00  0.00    +0.000 A 
ATOM     23  F   UNL     1      46.466   1.085   7.830  0.00  0.00    +0.000 F 
ENDBRANCH  15  19
ENDBRANCH  14  15
ENDBRANCH   1  14
TORSDOF 4
ENDMDL
MODEL 6
REMARK VINA RESULT:    -7.436      1.785      7.812
REMARK INTER + INTRA:          -9.704
REMARK INTER:                  -9.215
REMARK INTRA:                  -0.489
REMARK UNBOUND:                -0.529
REMARK  Name = 
REMARK  5 active torsions:
REMARK  status: ('A' for Active; 'I' for Inactive)
REMARK    1  A    between atoms: C_1  and  C_2
REMARK    2  A    between atoms: C_4  and  O_5
REMARK    3  A    between atoms: O_5  and  C_6
REMARK    4  A    between atoms: C_6  and  C_7
REMARK    5  A    between atoms: C_11  and  C_12
REMARK                            x       y       z     vdW  Elec       q    Type
REMARK                         _______ _______ _______ _____ _____    ______ ____
ROOT
ATOM      1  C   UNL     1      45.144   5.585  12.196  0.00  0.00    +0.000 A 
ATOM      2  C   UNL     1      43.790   5.890  12.321  0.00  0.00    +0.000 A 
ATOM      3  C   UNL     1      42.900   5.414  11.366  0.00  0.00    +0.000 A 
ATOM      4  C   UNL     1      43.376   4.633  10.318  0.00  0.00    +0.000 A 
ATOM      5  C   UNL     1      44.739   4.348  10.245  0.00  0.00    +0.000 A 
ATOM      6  N   UNL     1      45.616   4.817  11.174  0.00  0.00    +0.000 NA
ENDROOT
BRANCH   5   7
ATOM      7  C   UNL     1      45.310   3.506   9.178  0.00  0.00    +0.000 A 
ATOM      8  C   UNL     1      45.417   2.112   9.295  0.00  0.00    +0.000 A 
ATOM      9  N   UNL     1      45.968   1.284   8.369  0.00  0.00    +0.000 NA
ATOM     10  C   UNL     1      46.436   1.873   7.246  0.00  0.00    +0.000 A 
ATOM     11  C   UNL     1      46.365   3.235   7.018  0.00  0.00    +0.000 A 
ATOM     12  F   UNL     1      46.848   3.759   5.883  0.00  0.00    +0.000 F 
ATOM     13  C   UNL     1      45.798   4.056   7.984  0.00  0.00    +0.000 A 
ENDBRANCH   5   7
BRANCH   1  14
ATOM     14  C   UNL     1      46.135   6.096  13.230  0.00  0.00    +0.000 C 
BRANCH  14  15
ATOM     15  O   UNL     1      47.117   5.090  13.458  0.00  0.00    +0.000 OA
BRANCH  15  19
ATOM     16  C   UNL     1      47.287   2.804  17.714  0.00  0.00    +0.000 C 
ATOM     17  C   UNL     1      47.655   3.942  16.807  0.00  0.00    +0.000 A 
ATOM     18  N   UNL     1      47.173   3.946  15.537  0.00  0.00    +0.000 NA
ATOM     19  C   UNL     1      47.532   4.993  14.766  0.00  0.00    +0.000 A 
ATOM     20  N   UNL     1      48.330   6.006  15.154  0.00  0.00    +0.000 NA
ATOM     21  C   UNL     1      48.783   5.956  16.422  0.00  0.00    +0.000 A 
ATOM     22  C   UNL     1      48.476   4.943  17.293  0.00  0.00    +0.000 A 
ATOM     23  F   UNL     1      48.953   4.932  18.544  0.00  0.00    +0.000 F 
ENDBRANCH  15  19
ENDBRANCH  14  15
ENDBRANCH   1  14
TORSDOF 4
ENDMDL
MODEL 7
REMARK VINA RESULT:    -7.421      1.565      2.249
REMARK INTER + INTRA:          -9.685
REMARK INTER:                  -9.125
REMARK INTRA:                  -0.560
REMARK UNBOUND:                -0.529
REMARK  Name = 
REMARK  5 active torsions:
REMARK  status: ('A' for Active; 'I' for Inactive)
REMARK    1  A    between atoms: C_1  and  C_2
REMARK    2  A    between atoms: C_4  and  O_5
REMARK    3  A    between atoms: O_5  and  C_6
REMARK    4  A    between atoms: C_6  and  C_7
REMARK    5  A    between atoms: C_11  and  C_12
REMARK                            x       y       z     vdW  Elec       q    Type
REMARK                         _______ _______ _______ _____ _____    ______ ____
ROOT
ATOM      1  C   UNL     1      46.294   6.217  12.367  0.00  0.00    +0.000 A 
ATOM      2  C   UNL     1      47.224   7.029  11.719  0.00  0.00    +0.000 A 
ATOM      3  C   UNL     1      48.417   7.334  12.362  0.00  0.00    +0.000 A 
ATOM      4  C   UNL     1      48.665   6.812  13.627  0.00  0.00    +0.000 A 
ATOM      5  C   UNL     1      47.706   5.996  14.227  0.00  0.00    +0.000 A 
ATOM      6  N   UNL     1      46.532   5.700  13.605  0.00  0.00    +0.000 NA
ENDROOT
BRANCH   5   7
ATOM      7  C   UNL     1      47.912   5.388  15.554  0.00  0.00    +0.000 A 
ATOM      8  C   UNL     1      48.837   5.893  16.479  0.00  0.00    +0.000 A 
ATOM      9  N   UNL     1      49.104   5.358  17.699  0.00  0.00    +0.000 NA
ATOM     10  C   UNL     1      48.400   4.253  18.032  0.00  0.00    +0.000 A 
ATOM     11  C   UNL     1      47.451   3.680  17.205  0.00  0.00    +0.000 A 
ATOM     12  F   UNL     1      46.787   2.584  17.593  0.00  0.00    +0.000 F 
ATOM     13  C   UNL     1      47.202   4.250  15.963  0.00  0.00    +0.000 A 
ENDBRANCH   5   7
BRANCH   1  14
ATOM     14  C   UNL     1      44.981   5.872  11.682  0.00  0.00    +0.000 C 
BRANCH  14  15
ATOM     15  O   UNL     1      45.167   5.947  10.273  0.00  0.00    +0.000 OA
BRANCH  15  19
ATOM     16  C   UNL     1      46.544   3.178   6.558  0.00  0.00    +0.000 C 
ATOM     17  C   UNL     1      45.940   3.361   7.920  0.00  0.00    +0.000 A 
ATOM     18  N   UNL     1      45.848   4.618   8.428  0.00  0.00    +0.000 NA
ATOM     19  C   UNL     1      45.295   4.725   9.654  0.00  0.00    +0.000 A 
ATOM     20  N   UNL     1      44.851   3.696  10.399  0.00  0.00    +0.000 NA
ATOM     21  C   UNL     1      44.966   2.470   9.852  0.00  0.00    +0.000 A 
ATOM     22  C   UNL     1      45.506   2.246   8.612  0.00  0.00    +0.000 A 
ATOM     23  F   UNL     1      45.605   1.009   8.108  0.00  0.00    +0.000 F 
ENDBRANCH  15  19
ENDBRANCH  14  15
ENDBRANCH   1  14
TORSDOF 4
ENDMDL
MODEL 8
REMARK VINA RESULT:    -7.105      2.269      7.958
REMARK INTER + INTRA:          -9.296
REMARK INTER:                  -8.767
REMARK INTRA:                  -0.529
REMARK UNBOUND:                -0.529
REMARK  Name = 
REMARK  5 active torsions:
REMARK  status: ('A' for Active; 'I' for Inactive)
REMARK    1  A    between atoms: C_1  and  C_2
REMARK    2  A    between atoms: C_4  and  O_5
REMARK    3  A    between atoms: O_5  and  C_6
REMARK    4  A    between atoms: C_6  and  C_7
REMARK    5  A    between atoms: C_11  and  C_12
REMARK                            x       y       z     vdW  Elec       q    Type
REMARK                         _______ _______ _______ _____ _____    ______ ____
ROOT
ATOM      1  C   UNL     1      46.818   6.837  13.196  0.00  0.00    +0.000 A 
ATOM      2  C   UNL     1      46.267   8.115  13.140  0.00  0.00    +0.000 A 
ATOM      3  C   UNL     1      45.321   8.400  12.162  0.00  0.00    +0.000 A 
ATOM      4  C   UNL     1      44.935   7.402  11.274  0.00  0.00    +0.000 A 
ATOM      5  C   UNL     1      45.510   6.136  11.380  0.00  0.00    +0.000 A 
ATOM      6  N   UNL     1      46.441   5.853  12.332  0.00  0.00    +0.000 NA
ENDROOT
BRANCH   5   7
ATOM      7  C   UNL     1      45.130   5.023  10.490  0.00  0.00    +0.000 A 
ATOM      8  C   UNL     1      44.274   3.990  10.900  0.00  0.00    +0.000 A 
ATOM      9  N   UNL     1      43.917   2.918  10.146  0.00  0.00    +0.000 NA
ATOM     10  C   UNL     1      44.434   2.868   8.898  0.00  0.00    +0.000 A 
ATOM     11  C   UNL     1      45.273   3.840   8.385  0.00  0.00    +0.000 A 
ATOM     12  F   UNL     1      45.753   3.733   7.139  0.00  0.00    +0.000 F 
ATOM     13  C   UNL     1      45.621   4.924   9.181  0.00  0.00    +0.000 A 
ENDBRANCH   5   7
BRANCH   1  14
ATOM     14  C   UNL     1      47.854   6.504  14.258  0.00  0.00    +0.000 C 
BRANCH  14  15
ATOM     15  O   UNL     1      47.918   5.090  14.407  0.00  0.00    +0.000 OA
BRANCH  15  19
ATOM     16  C   UNL     1      50.291   5.121  18.619  0.00  0.00    +0.000 C 
ATOM     17  C   UNL     1      49.176   4.650  17.732  0.00  0.00    +0.000 A 
ATOM     18  N   UNL     1      49.111   5.123  16.459  0.00  0.00    +0.000 NA
ATOM     19  C   UNL     1      48.091   4.665  15.704  0.00  0.00    +0.000 A 
ATOM     20  N   UNL     1      47.144   3.803  16.119  0.00  0.00    +0.000 NA
ATOM     21  C   UNL     1      47.251   3.364  17.388  0.00  0.00    +0.000 A 
ATOM     22  C   UNL     1      48.250   3.758  18.240  0.00  0.00    +0.000 A 
ATOM     23  F   UNL     1      48.314   3.300  19.497  0.00  0.00    +0.000 F 
ENDBRANCH  15  19
ENDBRANCH  14  15
ENDBRANCH   1  14
TORSDOF 4
ENDMDL
MODEL 9
REMARK VINA RESULT:    -6.922      4.163      7.608
REMARK INTER + INTRA:          -9.070
REMARK INTER:                  -8.452
REMARK INTRA:                  -0.618
REMARK UNBOUND:                -0.529
REMARK  Name = 
REMARK  5 active torsions:
REMARK  status: ('A' for Active; 'I' for Inactive)
REMARK    1  A    between atoms: C_1  and  C_2
REMARK    2  A    between atoms: C_4  and  O_5
REMARK    3  A    between atoms: O_5  and  C_6
REMARK    4  A    between atoms: C_6  and  C_7
REMARK    5  A    between atoms: C_11  and  C_12
REMARK                            x       y       z     vdW  Elec       q    Type
REMARK                         _______ _______ _______ _____ _____    ______ ____
ROOT
ATOM      1  C   UNL     1      48.449   6.749  14.255  0.00  0.00    +0.000 A 
ATOM      2  C   UNL     1      48.993   7.567  13.266  0.00  0.00    +0.000 A 
ATOM      3  C   UNL     1      48.386   7.610  12.017  0.00  0.00    +0.000 A 
ATOM      4  C   UNL     1      47.243   6.852  11.786  0.00  0.00    +0.000 A 
ATOM      5  C   UNL     1      46.733   6.058  12.813  0.00  0.00    +0.000 A 
ATOM      6  N   UNL     1      47.328   6.007  14.036  0.00  0.00    +0.000 NA
ENDROOT
BRANCH   5   7
ATOM      7  C   UNL     1      45.512   5.249  12.648  0.00  0.00    +0.000 A 
ATOM      8  C   UNL     1      45.527   3.847  12.686  0.00  0.00    +0.000 A 
ATOM      9  N   UNL     1      44.447   3.043  12.501  0.00  0.00    +0.000 NA
ATOM     10  C   UNL     1      43.271   3.667  12.274  0.00  0.00    +0.000 A 
ATOM     11  C   UNL     1      43.137   5.043  12.233  0.00  0.00    +0.000 A 
ATOM     12  F   UNL     1      41.942   5.601  12.002  0.00  0.00    +0.000 F 
ATOM     13  C   UNL     1      44.259   5.839  12.424  0.00  0.00    +0.000 A 
ENDBRANCH   5   7
BRANCH   1  14
ATOM     14  C   UNL     1      49.098   6.687  15.628  0.00  0.00    +0.000 C 
BRANCH  14  15
ATOM     15  O   UNL     1      48.384   5.750  16.428  0.00  0.00    +0.000 OA
BRANCH  15  19
ATOM     16  C   UNL     1      52.322   3.480  18.073  0.00  0.00    +0.000 C 
ATOM     17  C   UNL     1      50.933   3.476  17.506  0.00  0.00    +0.000 A 
ATOM     18  N   UNL     1      50.336   4.667  17.234  0.00  0.00    +0.000 NA
ATOM     19  C   UNL     1      49.090   4.606  16.724  0.00  0.00    +0.000 A 
ATOM     20  N   UNL     1      48.403   3.474  16.483  0.00  0.00    +0.000 NA
ATOM     21  C   UNL     1      49.036   2.319  16.770  0.00  0.00    +0.000 A 
ATOM     22  C   UNL     1      50.305   2.264  17.286  0.00  0.00    +0.000 A 
ATOM     23  F   UNL     1      50.895   1.094  17.560  0.00  0.00    +0.000 F 
ENDBRANCH  15  19
ENDBRANCH  14  15
ENDBRANCH   1  14
TORSDOF 4
ENDMDL
