MODEL 1
REMARK VINA RESULT:    -9.470      0.000      0.000
REMARK INTER + INTRA:         -12.468
REMARK INTER:                 -11.685
REMARK INTRA:                  -0.784
REMARK UNBOUND:                -0.784
REMARK  Name = 
REMARK  4 active torsions:
REMARK  status: ('A' for Active; 'I' for Inactive)
REMARK    1  A    between atoms: C_2  and  C_4
REMARK    2  A    between atoms: N_8  and  C_9
REMARK    3  A    between atoms: C_9  and  C_10
REMARK    4  A    between atoms: C_14  and  C_15
REMARK                            x       y       z     vdW  Elec       q    Type
REMARK                         _______ _______ _______ _____ _____    ______ ____
ROOT
ATOM      1  C   UNL     1      44.062   4.925  11.493  0.00  0.00    +0.000 C 
ATOM      2  C   UNL     1      42.858   5.078  12.418  0.00  0.00    +0.000 C 
ATOM      3  C   UNL     1      43.032   6.022  11.280  0.00  0.00    +0.000 C 
ENDROOT
BRANCH   1   8
ATOM      4  C   UNL     1      46.505   2.753   7.457  0.00  0.00    +0.000 A 
ATOM      5  C   UNL     1      46.141   4.080   7.650  0.00  0.00    +0.000 A 
ATOM      6  C   UNL     1      45.348   4.416   8.747  0.00  0.00    +0.000 A 
ATOM      7  C   UNL     1      44.927   3.426   9.630  0.00  0.00    +0.000 A 
ATOM      8  N   UNL     1      44.089   3.677  10.715  0.00  0.00    +0.000 N 
ATOM      9  N   UNL     1      45.258   2.129   9.436  0.00  0.00    +0.000 NA
ATOM     10  C   UNL     1      46.028   1.816   8.360  0.00  0.00    +0.000 A 
ATOM     11  H   UNL     1      44.005   2.803  11.228  0.00  0.00    +0.000 HD
BRANCH   4  13
ATOM     12  N   UNL     1      47.199   2.983   5.142  0.00  0.00    +0.000 N 
ATOM     13  C   UNL     1      47.343   2.312   6.325  0.00  0.00    +0.000 C 
ATOM     14  O   UNL     1      48.154   1.405   6.445  0.00  0.00    +0.000 OA
ATOM     15  H   UNL     1      47.837   2.729   4.399  0.00  0.00    +0.000 HD
ATOM     16  H   UNL     1      46.727   3.874   5.068  0.00  0.00    +0.000 HD
ENDBRANCH   4  13
ENDBRANCH   1   8
BRANCH   1  17
ATOM     17  C   UNL     1      45.425   5.384  12.014  0.00  0.00    +0.000 A 
ATOM     18  C   UNL     1      46.114   6.448  11.414  0.00  0.00    +0.000 A 
ATOM     19  C   UNL     1      47.282   6.961  11.976  0.00  0.00    +0.000 A 
ATOM     20  C   UNL     1      47.777   6.426  13.166  0.00  0.00    +0.000 A 
ATOM     21  C   UNL     1      47.132   5.357  13.806  0.00  0.00    +0.000 A 
ATOM     22  C   UNL     1      45.989   4.826  13.179  0.00  0.00    +0.000 A 
BRANCH  21  23
ATOM     23  C   UNL     1      47.564   4.869  15.131  0.00  0.00    +0.000 A 
ATOM     24  C   UNL     1      47.195   3.614  15.636  0.00  0.00    +0.000 A 
ATOM     25  C   UNL     1      47.568   3.235  16.927  0.00  0.00    +0.000 A 
ATOM     26  C   UNL     1      48.314   4.119  17.682  0.00  0.00    +0.000 A 
ATOM     27  F   UNL     1      48.670   3.759  18.923  0.00  0.00    +0.000 F 
ATOM     28  N   UNL     1      48.704   5.331  17.250  0.00  0.00    +0.000 NA
ATOM     29  C   UNL     1      48.315   5.673  15.998  0.00  0.00    +0.000 A 
ENDBRANCH  21  23
ENDBRANCH   1  17
TORSDOF 4
ENDMDL
MODEL 2
REMARK VINA RESULT:    -9.449      2.873      3.982
REMARK INTER + INTRA:         -12.441
REMARK INTER:                 -11.308
REMARK INTRA:                  -1.134
REMARK UNBOUND:                -0.784
REMARK  Name = 
REMARK  4 active torsions:
REMARK  status: ('A' for Active; 'I' for Inactive)
REMARK    1  A    between atoms: C_2  and  C_4
REMARK    2  A    between atoms: N_8  and  C_9
REMARK    3  A    between atoms: C_9  and  C_10
REMARK    4  A    between atoms: C_14  and  C_15
REMARK                            x       y       z     vdW  Elec       q    Type
REMARK                         _______ _______ _______ _____ _____    ______ ____
ROOT
ATOM      1  C   UNL     1      43.862   4.890  11.411  0.00  0.00    +0.000 C 
ATOM      2  C   UNL     1      42.518   5.161  12.083  0.00  0.00    +0.000 C 
ATOM      3  C   UNL     1      43.020   6.101  11.043  0.00  0.00    +0.000 C 
ENDROOT
BRANCH   1   8
ATOM      4  C   UNL     1      46.543   2.747   7.513  0.00  0.00    +0.000 A 
ATOM      5  C   UNL     1      46.205   4.080   7.715  0.00  0.00    +0.000 A 
ATOM      6  C   UNL     1      45.341   4.412   8.758  0.00  0.00    +0.000 A 
ATOM      7  C   UNL     1      44.824   3.414   9.577  0.00  0.00    +0.000 A 
ATOM      8  N   UNL     1      43.912   3.663  10.602  0.00  0.00    +0.000 N 
ATOM      9  N   UNL     1      45.129   2.112   9.372  0.00  0.00    +0.000 NA
ATOM     10  C   UNL     1      45.971   1.803   8.350  0.00  0.00    +0.000 A 
ATOM     11  H   UNL     1      43.762   2.779  11.082  0.00  0.00    +0.000 HD
BRANCH   4  13
ATOM     12  N   UNL     1      47.396   2.994   5.253  0.00  0.00    +0.000 N 
ATOM     13  C   UNL     1      47.453   2.309   6.436  0.00  0.00    +0.000 C 
ATOM     14  O   UNL     1      48.245   1.393   6.601  0.00  0.00    +0.000 OA
ATOM     15  H   UNL     1      48.081   2.741   4.553  0.00  0.00    +0.000 HD
ATOM     16  H   UNL     1      46.940   3.890   5.158  0.00  0.00    +0.000 HD
ENDBRANCH   4  13
ENDBRANCH   1   8
BRANCH   1  17
ATOM     17  C   UNL     1      45.132   5.181  12.212  0.00  0.00    +0.000 A 
ATOM     18  C   UNL     1      45.649   4.248  13.124  0.00  0.00    +0.000 A 
ATOM     19  C   UNL     1      46.881   4.449  13.742  0.00  0.00    +0.000 A 
ATOM     20  C   UNL     1      47.633   5.588  13.448  0.00  0.00    +0.000 A 
ATOM     21  C   UNL     1      47.161   6.557  12.549  0.00  0.00    +0.000 A 
ATOM     22  C   UNL     1      45.887   6.350  11.987  0.00  0.00    +0.000 A 
BRANCH  21  23
ATOM     23  C   UNL     1      47.999   7.696  12.123  0.00  0.00    +0.000 A 
ATOM     24  C   UNL     1      49.345   7.554  11.758  0.00  0.00    +0.000 A 
ATOM     25  C   UNL     1      50.112   8.676  11.438  0.00  0.00    +0.000 A 
ATOM     26  C   UNL     1      49.509   9.919  11.479  0.00  0.00    +0.000 A 
ATOM     27  F   UNL     1      50.244  10.998  11.177  0.00  0.00    +0.000 F 
ATOM     28  N   UNL     1      48.222  10.116  11.815  0.00  0.00    +0.000 NA
ATOM     29  C   UNL     1      47.509   9.008  12.131  0.00  0.00    +0.000 A 
ENDBRANCH  21  23
ENDBRANCH   1  17
TORSDOF 4
ENDMDL
MODEL 3
REMARK VINA RESULT:    -7.252      4.292      8.574
REMARK INTER + INTRA:          -9.732
REMARK INTER:                  -8.728
REMARK INTRA:                  -1.003
REMARK UNBOUND:                -0.784
REMARK  Name = 
REMARK  4 active torsions:
REMARK  status: ('A' for Active; 'I' for Inactive)
REMARK    1  A    between atoms: C_2  and  C_4
REMARK    2  A    between atoms: N_8  and  C_9
REMARK    3  A    between atoms: C_9  and  C_10
REMARK    4  A    between atoms: C_14  and  C_15
REMARK                            x       y       z     vdW  Elec       q    Type
REMARK                         _______ _______ _______ _____ _____    ______ ____
ROOT
ATOM      1  C   UNL     1      49.043   8.061  12.923  0.00  0.00    +0.000 C 
ATOM      2  C   UNL     1      49.977   8.395  11.762  0.00  0.00    +0.000 C 
ATOM      3  C   UNL     1      49.554   9.475  12.695  0.00  0.00    +0.000 C 
ENDROOT
BRANCH   1   8
ATOM      4  C   UNL     1      48.540   6.781  17.931  0.00  0.00    +0.000 A 
ATOM      5  C   UNL     1      48.412   8.027  17.327  0.00  0.00    +0.000 A 
ATOM      6  C   UNL     1      48.745   8.168  15.981  0.00  0.00    +0.000 A 
ATOM      7  C   UNL     1      49.204   7.071  15.259  0.00  0.00    +0.000 A 
ATOM      8  N   UNL     1      49.608   7.148  13.927  0.00  0.00    +0.000 N 
ATOM      9  N   UNL     1      49.354   5.861  15.845  0.00  0.00    +0.000 NA
ATOM     10  C   UNL     1      49.028   5.739  17.159  0.00  0.00    +0.000 A 
ATOM     11  H   UNL     1      49.821   6.199  13.630  0.00  0.00    +0.000 HD
BRANCH   4  13
ATOM     12  N   UNL     1      47.226   5.627  19.616  0.00  0.00    +0.000 N 
ATOM     13  C   UNL     1      48.207   6.543  19.349  0.00  0.00    +0.000 C 
ATOM     14  O   UNL     1      48.801   7.116  20.250  0.00  0.00    +0.000 OA
ATOM     15  H   UNL     1      47.066   5.411  20.591  0.00  0.00    +0.000 HD
ATOM     16  H   UNL     1      46.887   4.969  18.929  0.00  0.00    +0.000 HD
ENDBRANCH   4  13
ENDBRANCH   1   8
BRANCH   1  17
ATOM     17  C   UNL     1      47.565   7.829  12.605  0.00  0.00    +0.000 A 
ATOM     18  C   UNL     1      46.610   8.836  12.805  0.00  0.00    +0.000 A 
ATOM     19  C   UNL     1      45.292   8.677  12.379  0.00  0.00    +0.000 A 
ATOM     20  C   UNL     1      44.906   7.504  11.729  0.00  0.00    +0.000 A 
ATOM     21  C   UNL     1      45.819   6.461  11.509  0.00  0.00    +0.000 A 
ATOM     22  C   UNL     1      47.125   6.633  12.003  0.00  0.00    +0.000 A 
BRANCH  21  23
ATOM     23  C   UNL     1      45.464   5.274  10.705  0.00  0.00    +0.000 A 
ATOM     24  C   UNL     1      45.691   5.196   9.324  0.00  0.00    +0.000 A 
ATOM     25  C   UNL     1      45.266   4.081   8.600  0.00  0.00    +0.000 A 
ATOM     26  C   UNL     1      44.630   3.059   9.279  0.00  0.00    +0.000 A 
ATOM     27  F   UNL     1      44.217   1.989   8.586  0.00  0.00    +0.000 F 
ATOM     28  N   UNL     1      44.392   3.073  10.603  0.00  0.00    +0.000 NA
ATOM     29  C   UNL     1      44.806   4.175  11.273  0.00  0.00    +0.000 A 
ENDBRANCH  21  23
ENDBRANCH   1  17
TORSDOF 4
ENDMDL
MODEL 4
REMARK VINA RESULT:    -6.824      1.840      2.714
REMARK INTER + INTRA:          -9.203
REMARK INTER:                  -8.265
REMARK INTRA:                  -0.938
REMARK UNBOUND:                -0.784
REMARK  Name = 
REMARK  4 active torsions:
REMARK  status: ('A' for Active; 'I' for Inactive)
REMARK    1  A    between atoms: C_2  and  C_4
REMARK    2  A    between atoms: N_8  and  C_9
REMARK    3  A    between atoms: C_9  and  C_10
REMARK    4  A    between atoms: C_14  and  C_15
REMARK                            x       y       z     vdW  Elec       q    Type
REMARK                         _______ _______ _______ _____ _____    ______ ____
ROOT
ATOM      1  C   UNL     1      45.199   7.964  11.879  0.00  0.00    +0.000 C 
ATOM      2  C   UNL     1      44.557   9.230  12.440  0.00  0.00    +0.000 C 
ATOM      3  C   UNL     1      45.162   9.257  11.081  0.00  0.00    +0.000 C 
ENDROOT
BRANCH   1   8
ATOM      4  C   UNL     1      44.977   3.322   9.560  0.00  0.00    +0.000 A 
ATOM      5  C   UNL     1      45.647   4.472   9.158  0.00  0.00    +0.000 A 
ATOM      6  C   UNL     1      45.440   5.659   9.858  0.00  0.00    +0.000 A 
ATOM      7  C   UNL     1      44.569   5.686  10.941  0.00  0.00    +0.000 A 
ATOM      8  N   UNL     1      44.270   6.847  11.654  0.00  0.00    +0.000 N 
ATOM      9  N   UNL     1      43.895   4.578  11.325  0.00  0.00    +0.000 NA
ATOM     10  C   UNL     1      44.104   3.427  10.631  0.00  0.00    +0.000 A 
ATOM     11  H   UNL     1      43.675   6.569  12.430  0.00  0.00    +0.000 HD
BRANCH   4  13
ATOM     12  N   UNL     1      46.293   1.831   8.167  0.00  0.00    +0.000 N 
ATOM     13  C   UNL     1      45.139   2.023   8.877  0.00  0.00    +0.000 C 
ATOM     14  O   UNL     1      44.295   1.144   8.966  0.00  0.00    +0.000 OA
ATOM     15  H   UNL     1      46.431   0.909   7.775  0.00  0.00    +0.000 HD
ATOM     16  H   UNL     1      47.105   2.424   8.265  0.00  0.00    +0.000 HD
ENDBRANCH   4  13
ENDBRANCH   1   8
BRANCH   1  17
ATOM     17  C   UNL     1      46.569   7.558  12.424  0.00  0.00    +0.000 A 
ATOM     18  C   UNL     1      47.744   8.186  11.984  0.00  0.00    +0.000 A 
ATOM     19  C   UNL     1      48.974   7.920  12.585  0.00  0.00    +0.000 A 
ATOM     20  C   UNL     1      49.050   7.026  13.654  0.00  0.00    +0.000 A 
ATOM     21  C   UNL     1      47.907   6.364  14.129  0.00  0.00    +0.000 A 
ATOM     22  C   UNL     1      46.693   6.613  13.462  0.00  0.00    +0.000 A 
BRANCH  21  23
ATOM     23  C   UNL     1      47.945   5.521  15.342  0.00  0.00    +0.000 A 
ATOM     24  C   UNL     1      48.792   5.789  16.426  0.00  0.00    +0.000 A 
ATOM     25  C   UNL     1      48.843   4.915  17.514  0.00  0.00    +0.000 A 
ATOM     26  C   UNL     1      48.033   3.796  17.498  0.00  0.00    +0.000 A 
ATOM     27  F   UNL     1      48.084   2.954  18.540  0.00  0.00    +0.000 F 
ATOM     28  N   UNL     1      47.196   3.491  16.491  0.00  0.00    +0.000 NA
ATOM     29  C   UNL     1      47.180   4.352  15.445  0.00  0.00    +0.000 A 
ENDBRANCH  21  23
ENDBRANCH   1  17
TORSDOF 4
ENDMDL
MODEL 5
REMARK VINA RESULT:    -6.670      3.676      5.536
REMARK INTER + INTRA:          -9.014
REMARK INTER:                  -8.179
REMARK INTRA:                  -0.835
REMARK UNBOUND:                -0.784
REMARK  Name = 
REMARK  4 active torsions:
REMARK  status: ('A' for Active; 'I' for Inactive)
REMARK    1  A    between atoms: C_2  and  C_4
REMARK    2  A    between atoms: N_8  and  C_9
REMARK    3  A    between atoms: C_9  and  C_10
REMARK    4  A    between atoms: C_14  and  C_15
REMARK                            x       y       z     vdW  Elec       q    Type
REMARK                         _______ _______ _______ _____ _____    ______ ____
ROOT
ATOM      1  C   UNL     1      49.400   8.480  12.430  0.00  0.00    +0.000 C 
ATOM      2  C   UNL     1      50.529   9.202  11.699  0.00  0.00    +0.000 C 
ATOM      3  C   UNL     1      50.368   7.732  11.527  0.00  0.00    +0.000 C 
ENDROOT
BRANCH   1   8
ATOM      4  C   UNL     1      44.650   6.480  11.792  0.00  0.00    +0.000 A 
ATOM      5  C   UNL     1      45.888   5.888  11.567  0.00  0.00    +0.000 A 
ATOM      6  C   UNL     1      47.040   6.667  11.657  0.00  0.00    +0.000 A 
ATOM      7  C   UNL     1      46.943   8.021  11.963  0.00  0.00    +0.000 A 
ATOM      8  N   UNL     1      48.045   8.874  12.015  0.00  0.00    +0.000 N 
ATOM      9  N   UNL     1      45.741   8.609  12.160  0.00  0.00    +0.000 NA
ATOM     10  C   UNL     1      44.625   7.838  12.066  0.00  0.00    +0.000 A 
ATOM     11  H   UNL     1      47.702   9.776  12.332  0.00  0.00    +0.000 HD
BRANCH   4  13
ATOM     12  N   UNL     1      42.658   5.611  12.875  0.00  0.00    +0.000 N 
ATOM     13  C   UNL     1      43.381   5.729  11.719  0.00  0.00    +0.000 C 
ATOM     14  O   UNL     1      42.977   5.257  10.667  0.00  0.00    +0.000 OA
ATOM     15  H   UNL     1      41.752   5.168  12.795  0.00  0.00    +0.000 HD
ATOM     16  H   UNL     1      42.830   6.179  13.692  0.00  0.00    +0.000 HD
ENDBRANCH   4  13
ENDBRANCH   1   8
BRANCH   1  17
ATOM     17  C   UNL     1      49.565   8.234  13.930  0.00  0.00    +0.000 A 
ATOM     18  C   UNL     1      50.025   9.243  14.789  0.00  0.00    +0.000 A 
ATOM     19  C   UNL     1      50.034   9.067  16.172  0.00  0.00    +0.000 A 
ATOM     20  C   UNL     1      49.567   7.874  16.727  0.00  0.00    +0.000 A 
ATOM     21  C   UNL     1      49.102   6.829  15.914  0.00  0.00    +0.000 A 
ATOM     22  C   UNL     1      49.161   7.019  14.521  0.00  0.00    +0.000 A 
BRANCH  21  23
ATOM     23  C   UNL     1      48.480   5.617  16.487  0.00  0.00    +0.000 A 
ATOM     24  C   UNL     1      48.819   5.115  17.750  0.00  0.00    +0.000 A 
ATOM     25  C   UNL     1      48.256   3.923  18.210  0.00  0.00    +0.000 A 
ATOM     26  C   UNL     1      47.354   3.265  17.397  0.00  0.00    +0.000 A 
ATOM     27  F   UNL     1      46.815   2.118  17.834  0.00  0.00    +0.000 F 
ATOM     28  N   UNL     1      46.984   3.702  16.180  0.00  0.00    +0.000 NA
ATOM     29  C   UNL     1      47.558   4.855  15.759  0.00  0.00    +0.000 A 
ENDBRANCH  21  23
ENDBRANCH   1  17
TORSDOF 4
ENDMDL
MODEL 6
REMARK VINA RESULT:    -6.632      4.219      8.548
REMARK INTER + INTRA:          -8.966
REMARK INTER:                  -8.302
REMARK INTRA:                  -0.664
REMARK UNBOUND:                -0.784
REMARK  Name = 
REMARK  4 active torsions:
REMARK  status: ('A' for Active; 'I' for Inactive)
REMARK    1  A    between atoms: C_2  and  C_4
REMARK    2  A    between atoms: N_8  and  C_9
REMARK    3  A    between atoms: C_9  and  C_10
REMARK    4  A    between atoms: C_14  and  C_15
REMARK                            x       y       z     vdW  Elec       q    Type
REMARK                         _______ _______ _______ _____ _____    ______ ____
ROOT
ATOM      1  C   UNL     1      48.282   4.775  17.286  0.00  0.00    +0.000 C 
ATOM      2  C   UNL     1      47.067   4.907  18.201  0.00  0.00    +0.000 C 
ATOM      3  C   UNL     1      47.228   3.683  17.368  0.00  0.00    +0.000 C 
ENDROOT
BRANCH   1   8
ATOM      4  C   UNL     1      52.550   1.829  17.565  0.00  0.00    +0.000 A 
ATOM      5  C   UNL     1      51.228   1.442  17.372  0.00  0.00    +0.000 A 
ATOM      6  C   UNL     1      50.217   2.395  17.487  0.00  0.00    +0.000 A 
ATOM      7  C   UNL     1      50.535   3.713  17.796  0.00  0.00    +0.000 A 
ATOM      8  N   UNL     1      49.575   4.707  17.982  0.00  0.00    +0.000 N 
ATOM      9  N   UNL     1      51.816   4.093  18.008  0.00  0.00    +0.000 NA
ATOM     10  C   UNL     1      52.791   3.153  17.896  0.00  0.00    +0.000 A 
ATOM     11  H   UNL     1      50.079   5.579  18.120  0.00  0.00    +0.000 HD
BRANCH   4  13
ATOM     12  N   UNL     1      53.442  -0.417  17.797  0.00  0.00    +0.000 N 
ATOM     13  C   UNL     1      53.681   0.887  17.459  0.00  0.00    +0.000 C 
ATOM     14  O   UNL     1      54.778   1.247  17.058  0.00  0.00    +0.000 OA
ATOM     15  H   UNL     1      54.199  -1.069  17.640  0.00  0.00    +0.000 HD
ATOM     16  H   UNL     1      52.511  -0.797  17.898  0.00  0.00    +0.000 HD
ENDBRANCH   4  13
ENDBRANCH   1   8
BRANCH   1  17
ATOM     17  C   UNL     1      48.293   5.592  15.993  0.00  0.00    +0.000 A 
ATOM     18  C   UNL     1      49.294   6.541  15.738  0.00  0.00    +0.000 A 
ATOM     19  C   UNL     1      49.388   7.178  14.502  0.00  0.00    +0.000 A 
ATOM     20  C   UNL     1      48.486   6.864  13.484  0.00  0.00    +0.000 A 
ATOM     21  C   UNL     1      47.461   5.927  13.686  0.00  0.00    +0.000 A 
ATOM     22  C   UNL     1      47.360   5.347  14.965  0.00  0.00    +0.000 A 
BRANCH  21  23
ATOM     23  C   UNL     1      46.584   5.484  12.583  0.00  0.00    +0.000 A 
ATOM     24  C   UNL     1      46.429   6.214  11.397  0.00  0.00    +0.000 A 
ATOM     25  C   UNL     1      45.528   5.789  10.418  0.00  0.00    +0.000 A 
ATOM     26  C   UNL     1      44.809   4.631  10.645  0.00  0.00    +0.000 A 
ATOM     27  F   UNL     1      43.940   4.223   9.710  0.00  0.00    +0.000 F 
ATOM     28  N   UNL     1      44.921   3.885  11.759  0.00  0.00    +0.000 NA
ATOM     29  C   UNL     1      45.794   4.333  12.693  0.00  0.00    +0.000 A 
ENDBRANCH  21  23
ENDBRANCH   1  17
TORSDOF 4
ENDMDL
