MODEL 1
REMARK VINA RESULT:    -7.852      0.000      0.000
REMARK INTER + INTRA:         -11.785
REMARK INTER:                 -10.606
REMARK INTRA:                  -1.179
REMARK UNBOUND:                -1.179
REMARK  Name = 
REMARK  7 active torsions:
REMARK  status: ('A' for Active; 'I' for Inactive)
REMARK    1  A    between atoms: C_1  and  C_2
REMARK    2  A    between atoms: C_2  and  N_3
REMARK    3  A    between atoms: C_2  and  C_16
REMARK    4  A    between atoms: C_4  and  C_6
REMARK    5  A    between atoms: C_19  and  C_20
REMARK    6  A    between atoms: C_20  and  N_21
REMARK    7  A    between atoms: C_22  and  C_24
REMARK                            x       y       z     vdW  Elec       q    Type
REMARK                         _______ _______ _______ _____ _____    ______ ____
ROOT
ATOM      1  C   UNL     1      48.079   8.814  12.771  0.00  0.00    +0.000 C 
ATOM      2  C   UNL     1      47.265   7.859  13.649  0.00  0.00    +0.000 C 
ENDROOT
BRANCH   2   3
ATOM      3  C   UNL     1      46.298   6.962  12.891  0.00  0.00    +0.000 A 
ATOM      4  C   UNL     1      46.489   5.570  12.931  0.00  0.00    +0.000 A 
ATOM      5  C   UNL     1      45.666   4.703  12.204  0.00  0.00    +0.000 A 
ATOM      6  C   UNL     1      44.637   5.207  11.399  0.00  0.00    +0.000 A 
ATOM      7  C   UNL     1      44.426   6.590  11.373  0.00  0.00    +0.000 A 
ATOM      8  C   UNL     1      45.253   7.458  12.099  0.00  0.00    +0.000 A 
BRANCH   6   9
ATOM      9  C   UNL     1      43.802   4.282  10.553  0.00  0.00    +0.000 C 
BRANCH   9  10
ATOM     10  N   UNL     1      44.579   3.284   9.873  0.00  0.00    +0.000 N 
ATOM     11  C   UNL     1      45.269   3.585   8.718  0.00  0.00    +0.000 C 
ATOM     12  O   UNL     1      45.257   4.698   8.197  0.00  0.00    +0.000 OA
ATOM     13  H   UNL     1      44.704   2.350  10.250  0.00  0.00    +0.000 HD
BRANCH  11  14
ATOM     14  C   UNL     1      46.023   2.453   8.158  0.00  0.00    +0.000 A 
ATOM     15  C   UNL     1      47.041   2.515   7.167  0.00  0.00    +0.000 A 
ATOM     16  C   UNL     1      47.427   1.213   6.959  0.00  0.00    +0.000 A 
ATOM     17  N   UNL     1      46.661   0.459   7.794  0.00  0.00    +0.000 N 
ATOM     18  N   UNL     1      45.808   1.177   8.546  0.00  0.00    +0.000 NA
ATOM     19  H   UNL     1      46.666  -0.550   7.905  0.00  0.00    +0.000 HD
ENDBRANCH  11  14
ENDBRANCH   9  10
ENDBRANCH   6   9
ENDBRANCH   2   3
BRANCH   2  20
ATOM     20  N   UNL     1      48.151   7.038  14.457  0.00  0.00    +0.000 N 
ATOM     21  C   UNL     1      48.641   7.466  15.665  0.00  0.00    +0.000 C 
ATOM     22  O   UNL     1      48.297   8.529  16.174  0.00  0.00    +0.000 OA
ATOM     23  H   UNL     1      48.583   6.244  13.997  0.00  0.00    +0.000 HD
BRANCH  21  24
ATOM     24  C   UNL     1      49.558   6.556  16.359  0.00  0.00    +0.000 A 
ATOM     25  C   UNL     1      50.842   6.982  16.675  0.00  0.00    +0.000 A 
ATOM     26  S   UNL     1      51.772   5.806  17.487  0.00  0.00    +0.000 S 
ATOM     27  C   UNL     1      50.510   4.668  17.396  0.00  0.00    +0.000 A 
ATOM     28  N   UNL     1      50.671   3.407  17.884  0.00  0.00    +0.000 NA
ATOM     29  C   UNL     1      49.652   2.636  17.708  0.00  0.00    +0.000 A 
ATOM     30  N   UNL     1      48.481   3.014  17.103  0.00  0.00    +0.000 N 
ATOM     31  C   UNL     1      48.252   4.293  16.646  0.00  0.00    +0.000 A 
ATOM     32  O   UNL     1      47.164   4.622  16.186  0.00  0.00    +0.000 OA
ATOM     33  C   UNL     1      49.384   5.188  16.784  0.00  0.00    +0.000 A 
ATOM     34  H   UNL     1      47.712   2.364  17.017  0.00  0.00    +0.000 HD
ENDBRANCH  21  24
ENDBRANCH   2  20
TORSDOF 6
ENDMDL
MODEL 2
REMARK VINA RESULT:    -7.525      2.793      3.687
REMARK INTER + INTRA:         -11.344
REMARK INTER:                 -10.130
REMARK INTRA:                  -1.214
REMARK UNBOUND:                -1.179
REMARK  Name = 
REMARK  7 active torsions:
REMARK  status: ('A' for Active; 'I' for Inactive)
REMARK    1  A    between atoms: C_1  and  C_2
REMARK    2  A    between atoms: C_2  and  N_3
REMARK    3  A    between atoms: C_2  and  C_16
REMARK    4  A    between atoms: C_4  and  C_6
REMARK    5  A    between atoms: C_19  and  C_20
REMARK    6  A    between atoms: C_20  and  N_21
REMARK    7  A    between atoms: C_22  and  C_24
REMARK                            x       y       z     vdW  Elec       q    Type
REMARK                         _______ _______ _______ _____ _____    ______ ____
ROOT
ATOM      1  C   UNL     1      47.428   3.892  16.292  0.00  0.00    +0.000 C 
ATOM      2  C   UNL     1      47.801   4.877  15.179  0.00  0.00    +0.000 C 
ENDROOT
BRANCH   2   3
ATOM      3  C   UNL     1      46.886   4.845  13.965  0.00  0.00    +0.000 A 
ATOM      4  C   UNL     1      46.355   3.612  13.547  0.00  0.00    +0.000 A 
ATOM      5  C   UNL     1      45.556   3.516  12.403  0.00  0.00    +0.000 A 
ATOM      6  C   UNL     1      45.280   4.651  11.631  0.00  0.00    +0.000 A 
ATOM      7  C   UNL     1      45.784   5.887  12.055  0.00  0.00    +0.000 A 
ATOM      8  C   UNL     1      46.588   5.981  13.200  0.00  0.00    +0.000 A 
BRANCH   6   9
ATOM      9  C   UNL     1      44.488   4.538  10.355  0.00  0.00    +0.000 C 
BRANCH   9  10
ATOM     10  N   UNL     1      45.305   4.257   9.208  0.00  0.00    +0.000 N 
ATOM     11  C   UNL     1      45.417   2.975   8.712  0.00  0.00    +0.000 C 
ATOM     12  O   UNL     1      44.850   2.007   9.212  0.00  0.00    +0.000 OA
ATOM     13  H   UNL     1      45.768   4.993   8.683  0.00  0.00    +0.000 HD
BRANCH  11  14
ATOM     14  C   UNL     1      46.282   2.865   7.526  0.00  0.00    +0.000 A 
ATOM     15  C   UNL     1      47.129   1.774   7.190  0.00  0.00    +0.000 A 
ATOM     16  C   UNL     1      47.743   2.139   6.016  0.00  0.00    +0.000 A 
ATOM     17  N   UNL     1      47.262   3.375   5.712  0.00  0.00    +0.000 N 
ATOM     18  N   UNL     1      46.365   3.842   6.598  0.00  0.00    +0.000 NA
ATOM     19  H   UNL     1      47.502   3.959   4.917  0.00  0.00    +0.000 HD
ENDBRANCH  11  14
ENDBRANCH   9  10
ENDBRANCH   6   9
ENDBRANCH   2   3
BRANCH   2  20
ATOM     20  N   UNL     1      47.860   6.231  15.703  0.00  0.00    +0.000 N 
ATOM     21  C   UNL     1      49.049   6.844  16.008  0.00  0.00    +0.000 C 
ATOM     22  O   UNL     1      50.136   6.319  15.781  0.00  0.00    +0.000 OA
ATOM     23  H   UNL     1      46.993   6.621  16.057  0.00  0.00    +0.000 HD
BRANCH  21  24
ATOM     24  C   UNL     1      48.964   8.196  16.567  0.00  0.00    +0.000 A 
ATOM     25  C   UNL     1      49.548   9.260  15.890  0.00  0.00    +0.000 A 
ATOM     26  S   UNL     1      49.348  10.762  16.672  0.00  0.00    +0.000 S 
ATOM     27  C   UNL     1      48.521  10.037  17.970  0.00  0.00    +0.000 A 
ATOM     28  N   UNL     1      48.095  10.780  19.028  0.00  0.00    +0.000 NA
ATOM     29  C   UNL     1      47.524  10.096  19.961  0.00  0.00    +0.000 A 
ATOM     30  N   UNL     1      47.326   8.739  19.926  0.00  0.00    +0.000 N 
ATOM     31  C   UNL     1      47.687   7.956  18.852  0.00  0.00    +0.000 A 
ATOM     32  O   UNL     1      47.420   6.760  18.816  0.00  0.00    +0.000 OA
ATOM     33  C   UNL     1      48.371   8.673  17.794  0.00  0.00    +0.000 A 
ATOM     34  H   UNL     1      46.851   8.268  20.683  0.00  0.00    +0.000 HD
ENDBRANCH  21  24
ENDBRANCH   2  20
TORSDOF 6
ENDMDL
MODEL 3
REMARK VINA RESULT:    -7.280      3.485      4.952
REMARK INTER + INTRA:         -11.012
REMARK INTER:                  -9.930
REMARK INTRA:                  -1.082
REMARK UNBOUND:                -1.179
REMARK  Name = 
REMARK  7 active torsions:
REMARK  status: ('A' for Active; 'I' for Inactive)
REMARK    1  A    between atoms: C_1  and  C_2
REMARK    2  A    between atoms: C_2  and  N_3
REMARK    3  A    between atoms: C_2  and  C_16
REMARK    4  A    between atoms: C_4  and  C_6
REMARK    5  A    between atoms: C_19  and  C_20
REMARK    6  A    between atoms: C_20  and  N_21
REMARK    7  A    between atoms: C_22  and  C_24
REMARK                            x       y       z     vdW  Elec       q    Type
REMARK                         _______ _______ _______ _____ _____    ______ ____
ROOT
ATOM      1  C   UNL     1      44.909   9.734  12.174  0.00  0.00    +0.000 C 
ATOM      2  C   UNL     1      45.713   8.565  12.750  0.00  0.00    +0.000 C 
ENDROOT
BRANCH   2   3
ATOM      3  C   UNL     1      45.197   7.186  12.369  0.00  0.00    +0.000 A 
ATOM      4  C   UNL     1      45.943   6.055  12.741  0.00  0.00    +0.000 A 
ATOM      5  C   UNL     1      45.546   4.767  12.365  0.00  0.00    +0.000 A 
ATOM      6  C   UNL     1      44.398   4.575  11.588  0.00  0.00    +0.000 A 
ATOM      7  C   UNL     1      43.636   5.695  11.234  0.00  0.00    +0.000 A 
ATOM      8  C   UNL     1      44.037   6.985  11.608  0.00  0.00    +0.000 A 
BRANCH   6   9
ATOM      9  C   UNL     1      44.013   3.199  11.113  0.00  0.00    +0.000 C 
BRANCH   9  10
ATOM     10  N   UNL     1      44.960   2.634  10.193  0.00  0.00    +0.000 N 
ATOM     11  C   UNL     1      45.038   3.078   8.890  0.00  0.00    +0.000 C 
ATOM     12  O   UNL     1      44.312   3.957   8.434  0.00  0.00    +0.000 OA
ATOM     13  H   UNL     1      45.647   1.945  10.484  0.00  0.00    +0.000 HD
BRANCH  11  14
ATOM     14  C   UNL     1      46.070   2.403   8.088  0.00  0.00    +0.000 A 
ATOM     15  C   UNL     1      46.912   2.998   7.110  0.00  0.00    +0.000 A 
ATOM     16  C   UNL     1      47.687   1.974   6.623  0.00  0.00    +0.000 A 
ATOM     17  N   UNL     1      47.297   0.858   7.298  0.00  0.00    +0.000 N 
ATOM     18  N   UNL     1      46.327   1.082   8.203  0.00  0.00    +0.000 NA
ATOM     19  H   UNL     1      47.647  -0.089   7.193  0.00  0.00    +0.000 HD
ENDBRANCH  11  14
ENDBRANCH   9  10
ENDBRANCH   6   9
ENDBRANCH   2   3
BRANCH   2  20
ATOM     20  N   UNL     1      47.111   8.679  12.371  0.00  0.00    +0.000 N 
ATOM     21  C   UNL     1      48.098   8.934  13.290  0.00  0.00    +0.000 C 
ATOM     22  O   UNL     1      47.872   9.001  14.495  0.00  0.00    +0.000 OA
ATOM     23  H   UNL     1      47.307   8.798  11.383  0.00  0.00    +0.000 HD
BRANCH  21  24
ATOM     24  C   UNL     1      49.461   9.065  12.767  0.00  0.00    +0.000 A 
ATOM     25  C   UNL     1      50.496   8.348  13.355  0.00  0.00    +0.000 A 
ATOM     26  S   UNL     1      52.012   8.608  12.620  0.00  0.00    +0.000 S 
ATOM     27  C   UNL     1      51.349   9.728  11.524  0.00  0.00    +0.000 A 
ATOM     28  N   UNL     1      52.138  10.368  10.618  0.00  0.00    +0.000 NA
ATOM     29  C   UNL     1      51.514  11.223   9.881  0.00  0.00    +0.000 A 
ATOM     30  N   UNL     1      50.169  11.484   9.956  0.00  0.00    +0.000 N 
ATOM     31  C   UNL     1      49.323  10.820  10.815  0.00  0.00    +0.000 A 
ATOM     32  O   UNL     1      48.113  11.017  10.799  0.00  0.00    +0.000 OA
ATOM     33  C   UNL     1      49.985   9.877  11.695  0.00  0.00    +0.000 A 
ATOM     34  H   UNL     1      49.739  12.153   9.331  0.00  0.00    +0.000 HD
ENDBRANCH  21  24
ENDBRANCH   2  20
TORSDOF 6
ENDMDL
MODEL 4
REMARK VINA RESULT:    -7.260      1.578      2.023
REMARK INTER + INTRA:         -10.986
REMARK INTER:                 -10.067
REMARK INTRA:                  -0.918
REMARK UNBOUND:                -1.179
REMARK  Name = 
REMARK  7 active torsions:
REMARK  status: ('A' for Active; 'I' for Inactive)
REMARK    1  A    between atoms: C_1  and  C_2
REMARK    2  A    between atoms: C_2  and  N_3
REMARK    3  A    between atoms: C_2  and  C_16
REMARK    4  A    between atoms: C_4  and  C_6
REMARK    5  A    between atoms: C_19  and  C_20
REMARK    6  A    between atoms: C_20  and  N_21
REMARK    7  A    between atoms: C_22  and  C_24
REMARK                            x       y       z     vdW  Elec       q    Type
REMARK                         _______ _______ _______ _____ _____    ______ ____
ROOT
ATOM      1  C   UNL     1      49.089   7.903  12.952  0.00  0.00    +0.000 C 
ATOM      2  C   UNL     1      47.894   7.413  13.776  0.00  0.00    +0.000 C 
ENDROOT
BRANCH   2   3
ATOM      3  C   UNL     1      46.874   6.596  12.998  0.00  0.00    +0.000 A 
ATOM      4  C   UNL     1      46.502   5.331  13.487  0.00  0.00    +0.000 A 
ATOM      5  C   UNL     1      45.614   4.513  12.781  0.00  0.00    +0.000 A 
ATOM      6  C   UNL     1      45.086   4.929  11.553  0.00  0.00    +0.000 A 
ATOM      7  C   UNL     1      45.434   6.197  11.071  0.00  0.00    +0.000 A 
ATOM      8  C   UNL     1      46.326   7.015  11.778  0.00  0.00    +0.000 A 
BRANCH   6   9
ATOM      9  C   UNL     1      44.195   4.017  10.751  0.00  0.00    +0.000 C 
BRANCH   9  10
ATOM     10  N   UNL     1      44.925   3.067   9.961  0.00  0.00    +0.000 N 
ATOM     11  C   UNL     1      45.362   3.383   8.692  0.00  0.00    +0.000 C 
ATOM     12  O   UNL     1      45.151   4.469   8.159  0.00  0.00    +0.000 OA
ATOM     13  H   UNL     1      45.204   2.162  10.329  0.00  0.00    +0.000 HD
BRANCH  11  14
ATOM     14  C   UNL     1      46.104   2.301   8.027  0.00  0.00    +0.000 A 
ATOM     15  C   UNL     1      46.987   2.430   6.920  0.00  0.00    +0.000 A 
ATOM     16  C   UNL     1      47.418   1.155   6.646  0.00  0.00    +0.000 A 
ATOM     17  N   UNL     1      46.805   0.350   7.557  0.00  0.00    +0.000 N 
ATOM     18  N   UNL     1      46.011   1.011   8.418  0.00  0.00    +0.000 NA
ATOM     19  H   UNL     1      46.881  -0.658   7.651  0.00  0.00    +0.000 HD
ENDBRANCH  11  14
ENDBRANCH   9  10
ENDBRANCH   6   9
ENDBRANCH   2   3
BRANCH   2  20
ATOM     20  N   UNL     1      48.353   6.646  14.923  0.00  0.00    +0.000 N 
ATOM     21  C   UNL     1      48.749   7.248  16.091  0.00  0.00    +0.000 C 
ATOM     22  O   UNL     1      48.664   8.461  16.267  0.00  0.00    +0.000 OA
ATOM     23  H   UNL     1      48.593   5.676  14.756  0.00  0.00    +0.000 HD
BRANCH  21  24
ATOM     24  C   UNL     1      49.228   6.361  17.154  0.00  0.00    +0.000 A 
ATOM     25  C   UNL     1      48.333   5.876  18.101  0.00  0.00    +0.000 A 
ATOM     26  S   UNL     1      49.052   4.851  19.259  0.00  0.00    +0.000 S 
ATOM     27  C   UNL     1      50.593   5.062  18.569  0.00  0.00    +0.000 A 
ATOM     28  N   UNL     1      51.690   4.472  19.118  0.00  0.00    +0.000 NA
ATOM     29  C   UNL     1      52.798   4.754  18.521  0.00  0.00    +0.000 A 
ATOM     30  N   UNL     1      52.908   5.559  17.416  0.00  0.00    +0.000 N 
ATOM     31  C   UNL     1      51.821   6.130  16.793  0.00  0.00    +0.000 A 
ATOM     32  O   UNL     1      51.944   6.777  15.759  0.00  0.00    +0.000 OA
ATOM     33  C   UNL     1      50.555   5.877  17.452  0.00  0.00    +0.000 A 
ATOM     34  H   UNL     1      53.808   5.721  16.984  0.00  0.00    +0.000 HD
ENDBRANCH  21  24
ENDBRANCH   2  20
TORSDOF 6
ENDMDL
MODEL 5
REMARK VINA RESULT:    -7.040      4.047      4.748
REMARK INTER + INTRA:         -10.689
REMARK INTER:                  -9.494
REMARK INTRA:                  -1.195
REMARK UNBOUND:                -1.179
REMARK  Name = 
REMARK  7 active torsions:
REMARK  status: ('A' for Active; 'I' for Inactive)
REMARK    1  A    between atoms: C_1  and  C_2
REMARK    2  A    between atoms: C_2  and  N_3
REMARK    3  A    between atoms: C_2  and  C_16
REMARK    4  A    between atoms: C_4  and  C_6
REMARK    5  A    between atoms: C_19  and  C_20
REMARK    6  A    between atoms: C_20  and  N_21
REMARK    7  A    between atoms: C_22  and  C_24
REMARK                            x       y       z     vdW  Elec       q    Type
REMARK                         _______ _______ _______ _____ _____    ______ ____
ROOT
ATOM      1  C   UNL     1      44.967  10.046  12.139  0.00  0.00    +0.000 C 
ATOM      2  C   UNL     1      45.922   8.920  12.546  0.00  0.00    +0.000 C 
ENDROOT
BRANCH   2   3
ATOM      3  C   UNL     1      45.416   7.516  12.250  0.00  0.00    +0.000 A 
ATOM      4  C   UNL     1      46.240   6.419  12.555  0.00  0.00    +0.000 A 
ATOM      5  C   UNL     1      45.850   5.111  12.249  0.00  0.00    +0.000 A 
ATOM      6  C   UNL     1      44.629   4.864  11.611  0.00  0.00    +0.000 A 
ATOM      7  C   UNL     1      43.792   5.949  11.327  0.00  0.00    +0.000 A 
ATOM      8  C   UNL     1      44.185   7.260  11.630  0.00  0.00    +0.000 A 
BRANCH   6   9
ATOM      9  C   UNL     1      44.242   3.465  11.207  0.00  0.00    +0.000 C 
BRANCH   9  10
ATOM     10  N   UNL     1      45.142   2.885  10.251  0.00  0.00    +0.000 N 
ATOM     11  C   UNL     1      45.102   3.253   8.923  0.00  0.00    +0.000 C 
ATOM     12  O   UNL     1      44.305   4.073   8.475  0.00  0.00    +0.000 OA
ATOM     13  H   UNL     1      45.880   2.243  10.525  0.00  0.00    +0.000 HD
BRANCH  11  14
ATOM     14  C   UNL     1      46.100   2.574   8.082  0.00  0.00    +0.000 A 
ATOM     15  C   UNL     1      46.368   1.178   8.039  0.00  0.00    +0.000 A 
ATOM     16  C   UNL     1      47.386   1.030   7.129  0.00  0.00    +0.000 A 
ATOM     17  N   UNL     1      47.674   2.283   6.684  0.00  0.00    +0.000 N 
ATOM     18  N   UNL     1      46.907   3.243   7.230  0.00  0.00    +0.000 NA
ATOM     19  H   UNL     1      48.380   2.559   6.009  0.00  0.00    +0.000 HD
ENDBRANCH  11  14
ENDBRANCH   9  10
ENDBRANCH   6   9
ENDBRANCH   2   3
BRANCH   2  20
ATOM     20  N   UNL     1      47.220   9.107  11.919  0.00  0.00    +0.000 N 
ATOM     21  C   UNL     1      48.181   9.922  12.462  0.00  0.00    +0.000 C 
ATOM     22  O   UNL     1      48.036  10.475  13.549  0.00  0.00    +0.000 OA
ATOM     23  H   UNL     1      47.307   8.807  10.954  0.00  0.00    +0.000 HD
BRANCH  21  24
ATOM     24  C   UNL     1      49.430  10.053  11.706  0.00  0.00    +0.000 A 
ATOM     25  C   UNL     1      49.808  11.296  11.212  0.00  0.00    +0.000 A 
ATOM     26  S   UNL     1      51.289  11.274  10.367  0.00  0.00    +0.000 S 
ATOM     27  C   UNL     1      51.451   9.594  10.585  0.00  0.00    +0.000 A 
ATOM     28  N   UNL     1      52.510   8.921  10.058  0.00  0.00    +0.000 NA
ATOM     29  C   UNL     1      52.483   7.647  10.260  0.00  0.00    +0.000 A 
ATOM     30  N   UNL     1      51.502   6.987  10.955  0.00  0.00    +0.000 N 
ATOM     31  C   UNL     1      50.443   7.633  11.554  0.00  0.00    +0.000 A 
ATOM     32  O   UNL     1      49.628   7.024  12.239  0.00  0.00    +0.000 OA
ATOM     33  C   UNL     1      50.407   9.063  11.320  0.00  0.00    +0.000 A 
ATOM     34  H   UNL     1      51.554   5.988  11.095  0.00  0.00    +0.000 HD
ENDBRANCH  21  24
ENDBRANCH   2  20
TORSDOF 6
ENDMDL
MODEL 6
REMARK VINA RESULT:    -6.586      4.782      7.571
REMARK INTER + INTRA:         -10.076
REMARK INTER:                  -9.038
REMARK INTRA:                  -1.037
REMARK UNBOUND:                -1.179
REMARK  Name = 
REMARK  7 active torsions:
REMARK  status: ('A' for Active; 'I' for Inactive)
REMARK    1  A    between atoms: C_1  and  C_2
REMARK    2  A    between atoms: C_2  and  N_3
REMARK    3  A    between atoms: C_2  and  C_16
REMARK    4  A    between atoms: C_4  and  C_6
REMARK    5  A    between atoms: C_19  and  C_20
REMARK    6  A    between atoms: C_20  and  N_21
REMARK    7  A    between atoms: C_22  and  C_24
REMARK                            x       y       z     vdW  Elec       q    Type
REMARK                         _______ _______ _______ _____ _____    ______ ____
ROOT
ATOM      1  C   UNL     1      46.563   8.886  13.533  0.00  0.00    +0.000 C 
ATOM      2  C   UNL     1      46.910   8.412  12.118  0.00  0.00    +0.000 C 
ENDROOT
BRANCH   2   3
ATOM      3  C   UNL     1      48.396   8.396  11.798  0.00  0.00    +0.000 A 
ATOM      4  C   UNL     1      49.026   9.598  11.432  0.00  0.00    +0.000 A 
ATOM      5  C   UNL     1      50.377   9.630  11.070  0.00  0.00    +0.000 A 
ATOM      6  C   UNL     1      51.134   8.453  11.044  0.00  0.00    +0.000 A 
ATOM      7  C   UNL     1      50.520   7.255  11.430  0.00  0.00    +0.000 A 
ATOM      8  C   UNL     1      49.166   7.224  11.790  0.00  0.00    +0.000 A 
BRANCH   6   9
ATOM      9  C   UNL     1      52.566   8.470  10.576  0.00  0.00    +0.000 C 
BRANCH   9  10
ATOM     10  N   UNL     1      52.917   7.319   9.794  0.00  0.00    +0.000 N 
ATOM     11  C   UNL     1      53.027   7.397   8.422  0.00  0.00    +0.000 C 
ATOM     12  O   UNL     1      52.823   8.430   7.788  0.00  0.00    +0.000 OA
ATOM     13  H   UNL     1      53.165   6.432  10.223  0.00  0.00    +0.000 HD
BRANCH  11  14
ATOM     14  C   UNL     1      53.407   6.131   7.778  0.00  0.00    +0.000 A 
ATOM     15  C   UNL     1      54.617   5.409   7.969  0.00  0.00    +0.000 A 
ATOM     16  C   UNL     1      54.522   4.313   7.146  0.00  0.00    +0.000 A 
ATOM     17  N   UNL     1      53.316   4.418   6.524  0.00  0.00    +0.000 N 
ATOM     18  N   UNL     1      52.607   5.500   6.891  0.00  0.00    +0.000 NA
ATOM     19  H   UNL     1      52.911   3.789   5.837  0.00  0.00    +0.000 HD
ENDBRANCH  11  14
ENDBRANCH   9  10
ENDBRANCH   6   9
ENDBRANCH   2   3
BRANCH   2  20
ATOM     20  N   UNL     1      46.350   7.092  11.877  0.00  0.00    +0.000 N 
ATOM     21  C   UNL     1      45.036   6.912  11.525  0.00  0.00    +0.000 C 
ATOM     22  O   UNL     1      44.277   7.854  11.313  0.00  0.00    +0.000 OA
ATOM     23  H   UNL     1      46.892   6.300  12.203  0.00  0.00    +0.000 HD
BRANCH  21  24
ATOM     24  C   UNL     1      44.590   5.526  11.350  0.00  0.00    +0.000 A 
ATOM     25  C   UNL     1      43.790   4.933  12.320  0.00  0.00    +0.000 A 
ATOM     26  S   UNL     1      43.355   3.325  11.957  0.00  0.00    +0.000 S 
ATOM     27  C   UNL     1      44.264   3.346  10.519  0.00  0.00    +0.000 A 
ATOM     28  N   UNL     1      44.349   2.240   9.730  0.00  0.00    +0.000 NA
ATOM     29  C   UNL     1      45.107   2.382   8.696  0.00  0.00    +0.000 A 
ATOM     30  N   UNL     1      45.775   3.534   8.370  0.00  0.00    +0.000 N 
ATOM     31  C   UNL     1      45.674   4.694   9.105  0.00  0.00    +0.000 A 
ATOM     32  O   UNL     1      46.217   5.731   8.741  0.00  0.00    +0.000 OA
ATOM     33  C   UNL     1      44.865   4.573  10.302  0.00  0.00    +0.000 A 
ATOM     34  H   UNL     1      46.337   3.584   7.531  0.00  0.00    +0.000 HD
ENDBRANCH  21  24
ENDBRANCH   2  20
TORSDOF 6
ENDMDL
MODEL 7
REMARK VINA RESULT:    -6.549      2.382      2.711
REMARK INTER + INTRA:         -10.026
REMARK INTER:                 -10.195
REMARK INTRA:                   0.169
REMARK UNBOUND:                -1.179
REMARK  Name = 
REMARK  7 active torsions:
REMARK  status: ('A' for Active; 'I' for Inactive)
REMARK    1  A    between atoms: C_1  and  C_2
REMARK    2  A    between atoms: C_2  and  N_3
REMARK    3  A    between atoms: C_2  and  C_16
REMARK    4  A    between atoms: C_4  and  C_6
REMARK    5  A    between atoms: C_19  and  C_20
REMARK    6  A    between atoms: C_20  and  N_21
REMARK    7  A    between atoms: C_22  and  C_24
REMARK                            x       y       z     vdW  Elec       q    Type
REMARK                         _______ _______ _______ _____ _____    ______ ____
ROOT
ATOM      1  C   UNL     1      49.268   8.371  13.528  0.00  0.00    +0.000 C 
ATOM      2  C   UNL     1      47.847   8.186  14.070  0.00  0.00    +0.000 C 
ENDROOT
BRANCH   2   3
ATOM      3  C   UNL     1      46.907   7.426  13.149  0.00  0.00    +0.000 A 
ATOM      4  C   UNL     1      46.987   6.023  13.103  0.00  0.00    +0.000 A 
ATOM      5  C   UNL     1      46.186   5.278  12.231  0.00  0.00    +0.000 A 
ATOM      6  C   UNL     1      45.294   5.918  11.362  0.00  0.00    +0.000 A 
ATOM      7  C   UNL     1      45.191   7.313  11.419  0.00  0.00    +0.000 A 
ATOM      8  C   UNL     1      45.996   8.059  12.291  0.00  0.00    +0.000 A 
BRANCH   6   9
ATOM      9  C   UNL     1      44.491   5.125  10.365  0.00  0.00    +0.000 C 
BRANCH   9  10
ATOM     10  N   UNL     1      45.270   4.669   9.248  0.00  0.00    +0.000 N 
ATOM     11  C   UNL     1      45.315   3.334   8.909  0.00  0.00    +0.000 C 
ATOM     12  O   UNL     1      44.715   2.461   9.532  0.00  0.00    +0.000 OA
ATOM     13  H   UNL     1      45.756   5.314   8.631  0.00  0.00    +0.000 HD
BRANCH  11  14
ATOM     14  C   UNL     1      46.148   3.041   7.733  0.00  0.00    +0.000 A 
ATOM     15  C   UNL     1      46.829   1.824   7.454  0.00  0.00    +0.000 A 
ATOM     16  C   UNL     1      47.483   2.037   6.266  0.00  0.00    +0.000 A 
ATOM     17  N   UNL     1      47.183   3.312   5.897  0.00  0.00    +0.000 N 
ATOM     18  N   UNL     1      46.366   3.948   6.756  0.00  0.00    +0.000 NA
ATOM     19  H   UNL     1      47.499   3.815   5.074  0.00  0.00    +0.000 HD
ENDBRANCH  11  14
ENDBRANCH   9  10
ENDBRANCH   6   9
ENDBRANCH   2   3
BRANCH   2  20
ATOM     20  N   UNL     1      47.884   7.532  15.368  0.00  0.00    +0.000 N 
ATOM     21  C   UNL     1      48.950   6.766  15.769  0.00  0.00    +0.000 C 
ATOM     22  O   UNL     1      49.968   6.652  15.092  0.00  0.00    +0.000 OA
ATOM     23  H   UNL     1      47.005   7.466  15.870  0.00  0.00    +0.000 HD
BRANCH  21  24
ATOM     24  C   UNL     1      48.840   6.130  17.085  0.00  0.00    +0.000 A 
ATOM     25  C   UNL     1      49.157   4.785  17.229  0.00  0.00    +0.000 A 
ATOM     26  S   UNL     1      48.985   4.208  18.824  0.00  0.00    +0.000 S 
ATOM     27  C   UNL     1      48.429   5.721  19.368  0.00  0.00    +0.000 A 
ATOM     28  N   UNL     1      48.060   5.904  20.666  0.00  0.00    +0.000 NA
ATOM     29  C   UNL     1      47.616   7.086  20.930  0.00  0.00    +0.000 A 
ATOM     30  N   UNL     1      47.522   8.107  20.020  0.00  0.00    +0.000 N 
ATOM     31  C   UNL     1      47.937   7.986  18.712  0.00  0.00    +0.000 A 
ATOM     32  O   UNL     1      47.917   8.942  17.945  0.00  0.00    +0.000 OA
ATOM     33  C   UNL     1      48.406   6.662  18.355  0.00  0.00    +0.000 A 
ATOM     34  H   UNL     1      47.184   9.017  20.300  0.00  0.00    +0.000 HD
ENDBRANCH  21  24
ENDBRANCH   2  20
TORSDOF 6
ENDMDL
MODEL 8
REMARK VINA RESULT:    -6.526      1.546      2.279
REMARK INTER + INTRA:          -9.994
REMARK INTER:                  -8.785
REMARK INTRA:                  -1.209
REMARK UNBOUND:                -1.179
REMARK  Name = 
REMARK  7 active torsions:
REMARK  status: ('A' for Active; 'I' for Inactive)
REMARK    1  A    between atoms: C_1  and  C_2
REMARK    2  A    between atoms: C_2  and  N_3
REMARK    3  A    between atoms: C_2  and  C_16
REMARK    4  A    between atoms: C_4  and  C_6
REMARK    5  A    between atoms: C_19  and  C_20
REMARK    6  A    between atoms: C_20  and  N_21
REMARK    7  A    between atoms: C_22  and  C_24
REMARK                            x       y       z     vdW  Elec       q    Type
REMARK                         _______ _______ _______ _____ _____    ______ ____
ROOT
ATOM      1  C   UNL     1      50.015   9.614  14.248  0.00  0.00    +0.000 C 
ATOM      2  C   UNL     1      48.969   8.731  14.936  0.00  0.00    +0.000 C 
ENDROOT
BRANCH   2   3
ATOM      3  C   UNL     1      47.770   8.371  14.072  0.00  0.00    +0.000 A 
ATOM      4  C   UNL     1      47.637   7.049  13.613  0.00  0.00    +0.000 A 
ATOM      5  C   UNL     1      46.586   6.677  12.767  0.00  0.00    +0.000 A 
ATOM      6  C   UNL     1      45.648   7.624  12.339  0.00  0.00    +0.000 A 
ATOM      7  C   UNL     1      45.760   8.937  12.812  0.00  0.00    +0.000 A 
ATOM      8  C   UNL     1      46.815   9.309  13.657  0.00  0.00    +0.000 A 
BRANCH   6   9
ATOM      9  C   UNL     1      44.564   7.245  11.364  0.00  0.00    +0.000 C 
BRANCH   9  10
ATOM     10  N   UNL     1      44.815   5.998  10.698  0.00  0.00    +0.000 N 
ATOM     11  C   UNL     1      43.819   5.057  10.552  0.00  0.00    +0.000 C 
ATOM     12  O   UNL     1      42.679   5.211  10.983  0.00  0.00    +0.000 OA
ATOM     13  H   UNL     1      45.705   5.795  10.254  0.00  0.00    +0.000 HD
BRANCH  11  14
ATOM     14  C   UNL     1      44.241   3.843   9.835  0.00  0.00    +0.000 A 
ATOM     15  C   UNL     1      44.910   3.785   8.582  0.00  0.00    +0.000 A 
ATOM     16  C   UNL     1      45.073   2.447   8.318  0.00  0.00    +0.000 A 
ATOM     17  N   UNL     1      44.521   1.788   9.373  0.00  0.00    +0.000 N 
ATOM     18  N   UNL     1      44.018   2.602  10.319  0.00  0.00    +0.000 NA
ATOM     19  H   UNL     1      44.452   0.786   9.516  0.00  0.00    +0.000 HD
ENDBRANCH  11  14
ENDBRANCH   9  10
ENDBRANCH   6   9
ENDBRANCH   2   3
BRANCH   2  20
ATOM     20  N   UNL     1      49.586   7.514  15.436  0.00  0.00    +0.000 N 
ATOM     21  C   UNL     1      49.936   7.362  16.754  0.00  0.00    +0.000 C 
ATOM     22  O   UNL     1      49.676   8.209  17.604  0.00  0.00    +0.000 OA
ATOM     23  H   UNL     1      49.964   6.877  14.743  0.00  0.00    +0.000 HD
BRANCH  21  24
ATOM     24  C   UNL     1      50.588   6.100  17.117  0.00  0.00    +0.000 A 
ATOM     25  C   UNL     1      51.922   6.102  17.507  0.00  0.00    +0.000 A 
ATOM     26  S   UNL     1      52.520   4.555  17.904  0.00  0.00    +0.000 S 
ATOM     27  C   UNL     1      51.034   3.822  17.515  0.00  0.00    +0.000 A 
ATOM     28  N   UNL     1      50.879   2.472  17.601  0.00  0.00    +0.000 NA
ATOM     29  C   UNL     1      49.718   2.048  17.233  0.00  0.00    +0.000 A 
ATOM     30  N   UNL     1      48.692   2.850  16.804  0.00  0.00    +0.000 N 
ATOM     31  C   UNL     1      48.784   4.223  16.756  0.00  0.00    +0.000 A 
ATOM     32  O   UNL     1      47.822   4.918  16.447  0.00  0.00    +0.000 OA
ATOM     33  C   UNL     1      50.086   4.747  17.120  0.00  0.00    +0.000 A 
ATOM     34  H   UNL     1      47.798   2.452  16.551  0.00  0.00    +0.000 HD
ENDBRANCH  21  24
ENDBRANCH   2  20
TORSDOF 6
ENDMDL
MODEL 9
REMARK VINA RESULT:    -6.441      2.984      4.149
REMARK INTER + INTRA:          -9.880
REMARK INTER:                  -8.879
REMARK INTRA:                  -1.001
REMARK UNBOUND:                -1.179
REMARK  Name = 
REMARK  7 active torsions:
REMARK  status: ('A' for Active; 'I' for Inactive)
REMARK    1  A    between atoms: C_1  and  C_2
REMARK    2  A    between atoms: C_2  and  N_3
REMARK    3  A    between atoms: C_2  and  C_16
REMARK    4  A    between atoms: C_4  and  C_6
REMARK    5  A    between atoms: C_19  and  C_20
REMARK    6  A    between atoms: C_20  and  N_21
REMARK    7  A    between atoms: C_22  and  C_24
REMARK                            x       y       z     vdW  Elec       q    Type
REMARK                         _______ _______ _______ _____ _____    ______ ____
ROOT
ATOM      1  C   UNL     1      50.277   9.402  17.533  0.00  0.00    +0.000 C 
ATOM      2  C   UNL     1      49.548   8.064  17.373  0.00  0.00    +0.000 C 
ENDROOT
BRANCH   2   3
ATOM      3  C   UNL     1      48.853   7.872  16.034  0.00  0.00    +0.000 A 
ATOM      4  C   UNL     1      48.825   6.589  15.461  0.00  0.00    +0.000 A 
ATOM      5  C   UNL     1      48.251   6.367  14.204  0.00  0.00    +0.000 A 
ATOM      6  C   UNL     1      47.707   7.429  13.474  0.00  0.00    +0.000 A 
ATOM      7  C   UNL     1      47.710   8.706  14.048  0.00  0.00    +0.000 A 
ATOM      8  C   UNL     1      48.287   8.928  15.306  0.00  0.00    +0.000 A 
BRANCH   6   9
ATOM      9  C   UNL     1      47.163   7.208  12.087  0.00  0.00    +0.000 C 
BRANCH   9  10
ATOM     10  N   UNL     1      46.437   5.977  11.955  0.00  0.00    +0.000 N 
ATOM     11  C   UNL     1      45.123   5.879  12.361  0.00  0.00    +0.000 C 
ATOM     12  O   UNL     1      44.502   6.812  12.862  0.00  0.00    +0.000 OA
ATOM     13  H   UNL     1      46.837   5.162  11.499  0.00  0.00    +0.000 HD
BRANCH  11  14
ATOM     14  C   UNL     1      44.526   4.552  12.143  0.00  0.00    +0.000 A 
ATOM     15  C   UNL     1      43.717   4.153  11.044  0.00  0.00    +0.000 A 
ATOM     16  C   UNL     1      43.385   2.844  11.293  0.00  0.00    +0.000 A 
ATOM     17  N   UNL     1      43.980   2.525  12.475  0.00  0.00    +0.000 N 
ATOM     18  N   UNL     1      44.690   3.532  13.013  0.00  0.00    +0.000 NA
ATOM     19  H   UNL     1      43.944   1.642  12.973  0.00  0.00    +0.000 HD
ENDBRANCH  11  14
ENDBRANCH   9  10
ENDBRANCH   6   9
ENDBRANCH   2   3
BRANCH   2  20
ATOM     20  N   UNL     1      50.464   6.960  17.604  0.00  0.00    +0.000 N 
ATOM     21  C   UNL     1      50.180   5.949  18.488  0.00  0.00    +0.000 C 
ATOM     22  O   UNL     1      49.103   5.873  19.074  0.00  0.00    +0.000 OA
ATOM     23  H   UNL     1      51.415   7.080  17.273  0.00  0.00    +0.000 HD
BRANCH  21  24
ATOM     24  C   UNL     1      51.208   4.919  18.656  0.00  0.00    +0.000 A 
ATOM     25  C   UNL     1      52.363   5.209  19.373  0.00  0.00    +0.000 A 
ATOM     26  S   UNL     1      53.448   3.898  19.481  0.00  0.00    +0.000 S 
ATOM     27  C   UNL     1      52.439   2.914  18.527  0.00  0.00    +0.000 A 
ATOM     28  N   UNL     1      52.809   1.646  18.200  0.00  0.00    +0.000 NA
ATOM     29  C   UNL     1      51.972   1.030  17.436  0.00  0.00    +0.000 A 
ATOM     30  N   UNL     1      50.791   1.560  16.982  0.00  0.00    +0.000 N 
ATOM     31  C   UNL     1      50.349   2.816  17.334  0.00  0.00    +0.000 A 
ATOM     32  O   UNL     1      49.250   3.229  16.979  0.00  0.00    +0.000 OA
ATOM     33  C   UNL     1      51.276   3.565  18.159  0.00  0.00    +0.000 A 
ATOM     34  H   UNL     1      50.170   1.013  16.402  0.00  0.00    +0.000 HD
ENDBRANCH  21  24
ENDBRANCH   2  20
TORSDOF 6
ENDMDL
