MODEL 1
REMARK VINA RESULT:    -7.442      0.000      0.000
REMARK INTER + INTRA:         -11.925
REMARK INTER:                 -10.487
REMARK INTRA:                  -1.438
REMARK UNBOUND:                -1.438
REMARK  Name = 
REMARK  8 active torsions:
REMARK  status: ('A' for Active; 'I' for Inactive)
REMARK    1  A    between atoms: C_1  and  C_2
REMARK    2  A    between atoms: C_2  and  N_3
REMARK    3  A    between atoms: N_3  and  C_4
REMARK    4  A    between atoms: C_4  and  C_5
REMARK    5  A    between atoms: C_8  and  C_9
REMARK    6  A    between atoms: C_9  and  O_10
REMARK    7  A    between atoms: O_10  and  C_11
REMARK    8  A    between atoms: C_19  and  C_21
REMARK                            x       y       z     vdW  Elec       q    Type
REMARK                         _______ _______ _______ _____ _____    ______ ____
ROOT
ATOM      1  N   UNL     1      46.150   7.196  12.030  0.00  0.00    +0.000 N 
ATOM      2  C   UNL     1      44.872   6.770  11.626  0.00  0.00    +0.000 C 
ATOM      3  O   UNL     1      43.973   7.575  11.388  0.00  0.00    +0.000 OA
ENDROOT
BRANCH   2   4
ATOM      4  C   UNL     1      44.579   5.340  11.531  0.00  0.00    +0.000 A 
ATOM      5  C   UNL     1      43.834   4.626  12.455  0.00  0.00    +0.000 A 
ATOM      6  S   UNL     1      43.557   3.005  11.993  0.00  0.00    +0.000 S 
ATOM      7  C   UNL     1      44.316   3.248  10.490  0.00  0.00    +0.000 A 
ATOM      8  N   UNL     1      44.338   2.269   9.546  0.00  0.00    +0.000 NA
ATOM      9  C   UNL     1      44.882   2.626   8.429  0.00  0.00    +0.000 A 
ATOM     10  N   UNL     1      45.441   3.856   8.185  0.00  0.00    +0.000 N 
ATOM     11  C   UNL     1      45.562   4.829   9.155  0.00  0.00    +0.000 A 
ATOM     12  O   UNL     1      46.269   5.814   8.980  0.00  0.00    +0.000 OA
ATOM     13  C   UNL     1      44.853   4.515  10.382  0.00  0.00    +0.000 A 
ATOM     14  H   UNL     1      45.910   4.047   7.313  0.00  0.00    +0.000 HD
ENDBRANCH   2   4
BRANCH   1  16
ATOM     15  C   UNL     1      47.727   9.130  12.005  0.00  0.00    +0.000 C 
ATOM     16  C   UNL     1      46.298   8.647  12.224  0.00  0.00    +0.000 C 
ENDBRANCH   1  16
BRANCH   1  17
ATOM     17  C   UNL     1      47.267   6.276  12.326  0.00  0.00    +0.000 C 
BRANCH  17  18
ATOM     18  C   UNL     1      47.451   5.895  13.773  0.00  0.00    +0.000 A 
ATOM     19  C   UNL     1      48.322   6.631  14.593  0.00  0.00    +0.000 A 
ATOM     20  C   UNL     1      48.709   6.128  15.834  0.00  0.00    +0.000 A 
ATOM     21  C   UNL     1      48.217   4.896  16.270  0.00  0.00    +0.000 A 
ATOM     22  C   UNL     1      47.215   4.254  15.532  0.00  0.00    +0.000 A 
ATOM     23  C   UNL     1      46.839   4.748  14.285  0.00  0.00    +0.000 A 
BRANCH  21  24
ATOM     24  C   UNL     1      48.859   4.191  17.437  0.00  0.00    +0.000 C 
BRANCH  24  25
ATOM     25  O   UNL     1      49.365   2.913  17.066  0.00  0.00    +0.000 OA
BRANCH  25  26
ATOM     26  C   UNL     1      50.679   2.696  17.390  0.00  0.00    +0.000 A 
ATOM     27  C   UNL     1      51.326   1.461  17.408  0.00  0.00    +0.000 A 
ATOM     28  C   UNL     1      52.667   1.426  17.761  0.00  0.00    +0.000 A 
ATOM     29  N   UNL     1      53.384   2.519  18.088  0.00  0.00    +0.000 NA
ATOM     30  C   UNL     1      52.736   3.701  18.066  0.00  0.00    +0.000 A 
ATOM     31  C   UNL     1      51.397   3.837  17.728  0.00  0.00    +0.000 A 
ENDBRANCH  25  26
ENDBRANCH  24  25
ENDBRANCH  21  24
ENDBRANCH  17  18
ENDBRANCH   1  17
TORSDOF 7
ENDMDL
MODEL 2
REMARK VINA RESULT:    -7.174      3.441      8.255
REMARK INTER + INTRA:         -11.548
REMARK INTER:                 -10.066
REMARK INTRA:                  -1.482
REMARK UNBOUND:                -1.438
REMARK  Name = 
REMARK  8 active torsions:
REMARK  status: ('A' for Active; 'I' for Inactive)
REMARK    1  A    between atoms: C_1  and  C_2
REMARK    2  A    between atoms: C_2  and  N_3
REMARK    3  A    between atoms: N_3  and  C_4
REMARK    4  A    between atoms: C_4  and  C_5
REMARK    5  A    between atoms: C_8  and  C_9
REMARK    6  A    between atoms: C_9  and  O_10
REMARK    7  A    between atoms: O_10  and  C_11
REMARK    8  A    between atoms: C_19  and  C_21
REMARK                            x       y       z     vdW  Elec       q    Type
REMARK                         _______ _______ _______ _____ _____    ______ ____
ROOT
ATOM      1  N   UNL     1      48.771   7.498  13.660  0.00  0.00    +0.000 N 
ATOM      2  C   UNL     1      49.663   7.649  14.737  0.00  0.00    +0.000 C 
ATOM      3  O   UNL     1      50.868   7.439  14.607  0.00  0.00    +0.000 OA
ENDROOT
BRANCH   2   4
ATOM      4  C   UNL     1      49.152   8.017  16.058  0.00  0.00    +0.000 A 
ATOM      5  C   UNL     1      49.010   9.317  16.513  0.00  0.00    +0.000 A 
ATOM      6  S   UNL     1      48.262   9.420  18.046  0.00  0.00    +0.000 S 
ATOM      7  C   UNL     1      47.995   7.740  18.087  0.00  0.00    +0.000 A 
ATOM      8  N   UNL     1      47.294   7.163  19.099  0.00  0.00    +0.000 NA
ATOM      9  C   UNL     1      47.108   5.892  18.953  0.00  0.00    +0.000 A 
ATOM     10  N   UNL     1      47.592   5.141  17.911  0.00  0.00    +0.000 N 
ATOM     11  C   UNL     1      48.421   5.658  16.938  0.00  0.00    +0.000 A 
ATOM     12  O   UNL     1      49.025   4.925  16.164  0.00  0.00    +0.000 OA
ATOM     13  C   UNL     1      48.550   7.103  16.995  0.00  0.00    +0.000 A 
ATOM     14  H   UNL     1      47.469   4.140  17.894  0.00  0.00    +0.000 HD
ENDBRANCH   2   4
BRANCH   1  16
ATOM     15  C   UNL     1      49.576   8.090  11.373  0.00  0.00    +0.000 C 
ATOM     16  C   UNL     1      49.369   6.996  12.414  0.00  0.00    +0.000 C 
ENDBRANCH   1  16
BRANCH   1  17
ATOM     17  C   UNL     1      47.318   7.739  13.758  0.00  0.00    +0.000 C 
BRANCH  17  18
ATOM     18  C   UNL     1      46.430   6.778  13.010  0.00  0.00    +0.000 A 
ATOM     19  C   UNL     1      46.243   5.470  13.486  0.00  0.00    +0.000 A 
ATOM     20  C   UNL     1      45.660   4.503  12.669  0.00  0.00    +0.000 A 
ATOM     21  C   UNL     1      45.249   4.838  11.378  0.00  0.00    +0.000 A 
ATOM     22  C   UNL     1      45.274   6.179  10.973  0.00  0.00    +0.000 A 
ATOM     23  C   UNL     1      45.869   7.144  11.783  0.00  0.00    +0.000 A 
BRANCH  21  24
ATOM     24  C   UNL     1      44.923   3.758  10.379  0.00  0.00    +0.000 C 
BRANCH  24  25
ATOM     25  O   UNL     1      45.199   4.175   9.045  0.00  0.00    +0.000 OA
BRANCH  25  26
ATOM     26  C   UNL     1      45.918   3.279   8.298  0.00  0.00    +0.000 A 
ATOM     27  C   UNL     1      46.769   3.592   7.238  0.00  0.00    +0.000 A 
ATOM     28  C   UNL     1      47.422   2.554   6.591  0.00  0.00    +0.000 A 
ATOM     29  N   UNL     1      47.283   1.256   6.926  0.00  0.00    +0.000 NA
ATOM     30  C   UNL     1      46.453   0.979   7.952  0.00  0.00    +0.000 A 
ATOM     31  C   UNL     1      45.755   1.947   8.660  0.00  0.00    +0.000 A 
ENDBRANCH  25  26
ENDBRANCH  24  25
ENDBRANCH  21  24
ENDBRANCH  17  18
ENDBRANCH   1  17
TORSDOF 7
ENDMDL
MODEL 3
REMARK VINA RESULT:    -6.708      3.542      8.417
REMARK INTER + INTRA:         -10.891
REMARK INTER:                  -9.290
REMARK INTRA:                  -1.601
REMARK UNBOUND:                -1.438
REMARK  Name = 
REMARK  8 active torsions:
REMARK  status: ('A' for Active; 'I' for Inactive)
REMARK    1  A    between atoms: C_1  and  C_2
REMARK    2  A    between atoms: C_2  and  N_3
REMARK    3  A    between atoms: N_3  and  C_4
REMARK    4  A    between atoms: C_4  and  C_5
REMARK    5  A    between atoms: C_8  and  C_9
REMARK    6  A    between atoms: C_9  and  O_10
REMARK    7  A    between atoms: O_10  and  C_11
REMARK    8  A    between atoms: C_19  and  C_21
REMARK                            x       y       z     vdW  Elec       q    Type
REMARK                         _______ _______ _______ _____ _____    ______ ____
ROOT
ATOM      1  N   UNL     1      48.745   8.261  13.793  0.00  0.00    +0.000 N 
ATOM      2  C   UNL     1      49.586   7.892  14.859  0.00  0.00    +0.000 C 
ATOM      3  O   UNL     1      50.803   8.062  14.804  0.00  0.00    +0.000 OA
ENDROOT
BRANCH   2   4
ATOM      4  C   UNL     1      49.018   7.245  16.042  0.00  0.00    +0.000 A 
ATOM      5  C   UNL     1      49.019   5.879  16.269  0.00  0.00    +0.000 A 
ATOM      6  S   UNL     1      48.402   5.447  17.802  0.00  0.00    +0.000 S 
ATOM      7  C   UNL     1      48.232   7.080  18.252  0.00  0.00    +0.000 A 
ATOM      8  N   UNL     1      47.840   7.427  19.507  0.00  0.00    +0.000 NA
ATOM      9  C   UNL     1      47.831   8.702  19.723  0.00  0.00    +0.000 A 
ATOM     10  N   UNL     1      48.139   9.659  18.788  0.00  0.00    +0.000 N 
ATOM     11  C   UNL     1      48.410   9.358  17.470  0.00  0.00    +0.000 A 
ATOM     12  O   UNL     1      48.447  10.234  16.614  0.00  0.00    +0.000 OA
ATOM     13  C   UNL     1      48.553   7.935  17.218  0.00  0.00    +0.000 A 
ATOM     14  H   UNL     1      48.046  10.639  19.003  0.00  0.00    +0.000 HD
ENDBRANCH   2   4
BRANCH   1  16
ATOM     15  C   UNL     1      49.938   7.671  11.682  0.00  0.00    +0.000 C 
ATOM     16  C   UNL     1      49.432   8.778  12.600  0.00  0.00    +0.000 C 
ENDBRANCH   1  16
BRANCH   1  17
ATOM     17  C   UNL     1      47.279   8.083  13.804  0.00  0.00    +0.000 C 
BRANCH  17  18
ATOM     18  C   UNL     1      46.734   6.986  12.927  0.00  0.00    +0.000 A 
ATOM     19  C   UNL     1      46.085   7.299  11.722  0.00  0.00    +0.000 A 
ATOM     20  C   UNL     1      45.343   6.328  11.051  0.00  0.00    +0.000 A 
ATOM     21  C   UNL     1      45.257   5.035  11.573  0.00  0.00    +0.000 A 
ATOM     22  C   UNL     1      46.048   4.681  12.673  0.00  0.00    +0.000 A 
ATOM     23  C   UNL     1      46.778   5.655  13.352  0.00  0.00    +0.000 A 
BRANCH  21  24
ATOM     24  C   UNL     1      44.218   4.074  11.055  0.00  0.00    +0.000 C 
BRANCH  24  25
ATOM     25  O   UNL     1      44.036   4.205   9.648  0.00  0.00    +0.000 OA
BRANCH  25  26
ATOM     26  C   UNL     1      44.968   3.554   8.883  0.00  0.00    +0.000 A 
ATOM     27  C   UNL     1      45.812   4.142   7.940  0.00  0.00    +0.000 A 
ATOM     28  C   UNL     1      46.700   3.329   7.255  0.00  0.00    +0.000 A 
ATOM     29  N   UNL     1      46.799   1.998   7.445  0.00  0.00    +0.000 NA
ATOM     30  C   UNL     1      45.972   1.452   8.359  0.00  0.00    +0.000 A 
ATOM     31  C   UNL     1      45.049   2.183   9.094  0.00  0.00    +0.000 A 
ENDBRANCH  25  26
ENDBRANCH  24  25
ENDBRANCH  21  24
ENDBRANCH  17  18
ENDBRANCH   1  17
TORSDOF 7
ENDMDL
MODEL 4
REMARK VINA RESULT:    -6.457      2.261      2.975
REMARK INTER + INTRA:         -10.537
REMARK INTER:                  -9.071
REMARK INTRA:                  -1.466
REMARK UNBOUND:                -1.438
REMARK  Name = 
REMARK  8 active torsions:
REMARK  status: ('A' for Active; 'I' for Inactive)
REMARK    1  A    between atoms: C_1  and  C_2
REMARK    2  A    between atoms: C_2  and  N_3
REMARK    3  A    between atoms: N_3  and  C_4
REMARK    4  A    between atoms: C_4  and  C_5
REMARK    5  A    between atoms: C_8  and  C_9
REMARK    6  A    between atoms: C_9  and  O_10
REMARK    7  A    between atoms: O_10  and  C_11
REMARK    8  A    between atoms: C_19  and  C_21
REMARK                            x       y       z     vdW  Elec       q    Type
REMARK                         _______ _______ _______ _____ _____    ______ ____
ROOT
ATOM      1  N   UNL     1      46.075   7.029  11.804  0.00  0.00    +0.000 N 
ATOM      2  C   UNL     1      44.799   6.604  11.393  0.00  0.00    +0.000 C 
ATOM      3  O   UNL     1      43.921   7.411  11.091  0.00  0.00    +0.000 OA
ENDROOT
BRANCH   2   4
ATOM      4  C   UNL     1      44.481   5.177  11.367  0.00  0.00    +0.000 A 
ATOM      5  C   UNL     1      43.733   4.519  12.330  0.00  0.00    +0.000 A 
ATOM      6  S   UNL     1      43.425   2.883  11.946  0.00  0.00    +0.000 S 
ATOM      7  C   UNL     1      44.175   3.043  10.427  0.00  0.00    +0.000 A 
ATOM      8  N   UNL     1      44.173   2.021   9.529  0.00  0.00    +0.000 NA
ATOM      9  C   UNL     1      44.714   2.317   8.393  0.00  0.00    +0.000 A 
ATOM     10  N   UNL     1      45.290   3.524   8.087  0.00  0.00    +0.000 N 
ATOM     11  C   UNL     1      45.435   4.539   9.010  0.00  0.00    +0.000 A 
ATOM     12  O   UNL     1      46.157   5.503   8.784  0.00  0.00    +0.000 OA
ATOM     13  C   UNL     1      44.732   4.294  10.257  0.00  0.00    +0.000 A 
ATOM     14  H   UNL     1      45.756   3.666   7.204  0.00  0.00    +0.000 HD
ENDBRANCH   2   4
BRANCH   1  16
ATOM     15  C   UNL     1      45.737   9.034  13.252  0.00  0.00    +0.000 C 
ATOM     16  C   UNL     1      46.246   8.485  11.924  0.00  0.00    +0.000 C 
ENDBRANCH   1  16
BRANCH   1  17
ATOM     17  C   UNL     1      47.167   6.107  12.175  0.00  0.00    +0.000 C 
BRANCH  17  18
ATOM     18  C   UNL     1      47.365   5.867  13.650  0.00  0.00    +0.000 A 
ATOM     19  C   UNL     1      48.253   6.669  14.385  0.00  0.00    +0.000 A 
ATOM     20  C   UNL     1      48.649   6.285  15.665  0.00  0.00    +0.000 A 
ATOM     21  C   UNL     1      48.151   5.106  16.224  0.00  0.00    +0.000 A 
ATOM     22  C   UNL     1      47.134   4.406  15.563  0.00  0.00    +0.000 A 
ATOM     23  C   UNL     1      46.748   4.781  14.277  0.00  0.00    +0.000 A 
BRANCH  21  24
ATOM     24  C   UNL     1      48.799   4.511  17.447  0.00  0.00    +0.000 C 
BRANCH  24  25
ATOM     25  O   UNL     1      49.535   5.487  18.179  0.00  0.00    +0.000 OA
BRANCH  25  26
ATOM     26  C   UNL     1      48.837   6.101  19.185  0.00  0.00    +0.000 A 
ATOM     27  C   UNL     1      48.106   5.461  20.186  0.00  0.00    +0.000 A 
ATOM     28  C   UNL     1      47.459   6.243  21.130  0.00  0.00    +0.000 A 
ATOM     29  N   UNL     1      47.495   7.591  21.139  0.00  0.00    +0.000 NA
ATOM     30  C   UNL     1      48.205   8.186  20.160  0.00  0.00    +0.000 A 
ATOM     31  C   UNL     1      48.885   7.490  19.171  0.00  0.00    +0.000 A 
ENDBRANCH  25  26
ENDBRANCH  24  25
ENDBRANCH  21  24
ENDBRANCH  17  18
ENDBRANCH   1  17
TORSDOF 7
ENDMDL
MODEL 5
REMARK VINA RESULT:    -6.385      3.253      7.989
REMARK INTER + INTRA:         -10.436
REMARK INTER:                  -8.657
REMARK INTRA:                  -1.779
REMARK UNBOUND:                -1.438
REMARK  Name = 
REMARK  8 active torsions:
REMARK  status: ('A' for Active; 'I' for Inactive)
REMARK    1  A    between atoms: C_1  and  C_2
REMARK    2  A    between atoms: C_2  and  N_3
REMARK    3  A    between atoms: N_3  and  C_4
REMARK    4  A    between atoms: C_4  and  C_5
REMARK    5  A    between atoms: C_8  and  C_9
REMARK    6  A    between atoms: C_9  and  O_10
REMARK    7  A    between atoms: O_10  and  C_11
REMARK    8  A    between atoms: C_19  and  C_21
REMARK                            x       y       z     vdW  Elec       q    Type
REMARK                         _______ _______ _______ _____ _____    ______ ____
ROOT
ATOM      1  N   UNL     1      48.583   8.127  17.790  0.00  0.00    +0.000 N 
ATOM      2  C   UNL     1      48.671   6.939  18.539  0.00  0.00    +0.000 C 
ATOM      3  O   UNL     1      47.949   6.743  19.515  0.00  0.00    +0.000 OA
ENDROOT
BRANCH   2   4
ATOM      4  C   UNL     1      49.670   5.930  18.188  0.00  0.00    +0.000 A 
ATOM      5  C   UNL     1      50.999   5.970  18.577  0.00  0.00    +0.000 A 
ATOM      6  S   UNL     1      51.880   4.579  18.121  0.00  0.00    +0.000 S 
ATOM      7  C   UNL     1      50.481   3.832  17.502  0.00  0.00    +0.000 A 
ATOM      8  N   UNL     1      50.513   2.553  17.040  0.00  0.00    +0.000 NA
ATOM      9  C   UNL     1      49.359   2.098  16.674  0.00  0.00    +0.000 A 
ATOM     10  N   UNL     1      48.189   2.815  16.690  0.00  0.00    +0.000 N 
ATOM     11  C   UNL     1      48.136   4.152  17.022  0.00  0.00    +0.000 A 
ATOM     12  O   UNL     1      47.133   4.821  16.802  0.00  0.00    +0.000 OA
ATOM     13  C   UNL     1      49.384   4.667  17.559  0.00  0.00    +0.000 A 
ATOM     14  H   UNL     1      47.336   2.421  16.326  0.00  0.00    +0.000 HD
ENDBRANCH   2   4
BRANCH   1  16
ATOM     15  C   UNL     1      48.071  10.560  18.003  0.00  0.00    +0.000 C 
ATOM     16  C   UNL     1      47.640   9.130  18.308  0.00  0.00    +0.000 C 
ENDBRANCH   1  16
BRANCH   1  17
ATOM     17  C   UNL     1      49.421   8.415  16.608  0.00  0.00    +0.000 C 
BRANCH  17  18
ATOM     18  C   UNL     1      48.805   8.120  15.265  0.00  0.00    +0.000 A 
ATOM     19  C   UNL     1      47.864   9.001  14.709  0.00  0.00    +0.000 A 
ATOM     20  C   UNL     1      47.092   8.605  13.617  0.00  0.00    +0.000 A 
ATOM     21  C   UNL     1      47.264   7.333  13.068  0.00  0.00    +0.000 A 
ATOM     22  C   UNL     1      48.322   6.528  13.510  0.00  0.00    +0.000 A 
ATOM     23  C   UNL     1      49.084   6.917  14.610  0.00  0.00    +0.000 A 
BRANCH  21  24
ATOM     24  C   UNL     1      46.239   6.770  12.117  0.00  0.00    +0.000 C 
BRANCH  24  25
ATOM     25  O   UNL     1      45.136   6.197  12.812  0.00  0.00    +0.000 OA
BRANCH  25  26
ATOM     26  C   UNL     1      44.605   5.077  12.227  0.00  0.00    +0.000 A 
ATOM     27  C   UNL     1      43.885   4.074  12.878  0.00  0.00    +0.000 A 
ATOM     28  C   UNL     1      43.417   3.008  12.126  0.00  0.00    +0.000 A 
ATOM     29  N   UNL     1      43.616   2.881  10.799  0.00  0.00    +0.000 NA
ATOM     30  C   UNL     1      44.316   3.862  10.193  0.00  0.00    +0.000 A 
ATOM     31  C   UNL     1      44.826   4.967  10.859  0.00  0.00    +0.000 A 
ENDBRANCH  25  26
ENDBRANCH  24  25
ENDBRANCH  21  24
ENDBRANCH  17  18
ENDBRANCH   1  17
TORSDOF 7
ENDMDL
MODEL 6
REMARK VINA RESULT:    -6.231      2.396      8.273
REMARK INTER + INTRA:         -10.219
REMARK INTER:                  -8.871
REMARK INTRA:                  -1.347
REMARK UNBOUND:                -1.438
REMARK  Name = 
REMARK  8 active torsions:
REMARK  status: ('A' for Active; 'I' for Inactive)
REMARK    1  A    between atoms: C_1  and  C_2
REMARK    2  A    between atoms: C_2  and  N_3
REMARK    3  A    between atoms: N_3  and  C_4
REMARK    4  A    between atoms: C_4  and  C_5
REMARK    5  A    between atoms: C_8  and  C_9
REMARK    6  A    between atoms: C_9  and  O_10
REMARK    7  A    between atoms: O_10  and  C_11
REMARK    8  A    between atoms: C_19  and  C_21
REMARK                            x       y       z     vdW  Elec       q    Type
REMARK                         _______ _______ _______ _____ _____    ______ ____
ROOT
ATOM      1  N   UNL     1      48.796   6.961  17.391  0.00  0.00    +0.000 N 
ATOM      2  C   UNL     1      48.323   5.890  18.171  0.00  0.00    +0.000 C 
ATOM      3  O   UNL     1      47.780   6.080  19.258  0.00  0.00    +0.000 OA
ENDROOT
BRANCH   2   4
ATOM      4  C   UNL     1      48.519   4.515  17.713  0.00  0.00    +0.000 A 
ATOM      5  C   UNL     1      47.629   3.817  16.913  0.00  0.00    +0.000 A 
ATOM      6  S   UNL     1      48.207   2.280  16.441  0.00  0.00    +0.000 S 
ATOM      7  C   UNL     1      49.711   2.556  17.188  0.00  0.00    +0.000 A 
ATOM      8  N   UNL     1      50.728   1.661  17.075  0.00  0.00    +0.000 NA
ATOM      9  C   UNL     1      51.831   2.044  17.630  0.00  0.00    +0.000 A 
ATOM     10  N   UNL     1      51.996   3.219  18.321  0.00  0.00    +0.000 N 
ATOM     11  C   UNL     1      50.958   4.090  18.575  0.00  0.00    +0.000 A 
ATOM     12  O   UNL     1      51.079   5.000  19.387  0.00  0.00    +0.000 OA
ATOM     13  C   UNL     1      49.736   3.760  17.863  0.00  0.00    +0.000 A 
ATOM     14  H   UNL     1      52.865   3.425  18.789  0.00  0.00    +0.000 HD
ENDBRANCH   2   4
BRANCH   1  16
ATOM     15  C   UNL     1      49.955   9.105  17.926  0.00  0.00    +0.000 C 
ATOM     16  C   UNL     1      48.669   8.291  18.005  0.00  0.00    +0.000 C 
ENDBRANCH   1  16
BRANCH   1  17
ATOM     17  C   UNL     1      49.452   6.793  16.078  0.00  0.00    +0.000 C 
BRANCH  17  18
ATOM     18  C   UNL     1      48.570   6.945  14.867  0.00  0.00    +0.000 A 
ATOM     19  C   UNL     1      48.223   8.223  14.398  0.00  0.00    +0.000 A 
ATOM     20  C   UNL     1      47.199   8.374  13.465  0.00  0.00    +0.000 A 
ATOM     21  C   UNL     1      46.524   7.250  12.984  0.00  0.00    +0.000 A 
ATOM     22  C   UNL     1      46.989   5.972  13.317  0.00  0.00    +0.000 A 
ATOM     23  C   UNL     1      48.003   5.820  14.260  0.00  0.00    +0.000 A 
BRANCH  21  24
ATOM     24  C   UNL     1      45.224   7.406  12.239  0.00  0.00    +0.000 C 
BRANCH  24  25
ATOM     25  O   UNL     1      45.279   6.795  10.953  0.00  0.00    +0.000 OA
BRANCH  25  26
ATOM     26  C   UNL     1      44.713   5.549  10.881  0.00  0.00    +0.000 A 
ATOM     27  C   UNL     1      45.100   4.520  10.022  0.00  0.00    +0.000 A 
ATOM     28  C   UNL     1      44.414   3.317  10.086  0.00  0.00    +0.000 A 
ATOM     29  N   UNL     1      43.392   3.081  10.931  0.00  0.00    +0.000 NA
ATOM     30  C   UNL     1      43.034   4.092  11.750  0.00  0.00    +0.000 A 
ATOM     31  C   UNL     1      43.658   5.331  11.760  0.00  0.00    +0.000 A 
ENDBRANCH  25  26
ENDBRANCH  24  25
ENDBRANCH  21  24
ENDBRANCH  17  18
ENDBRANCH   1  17
TORSDOF 7
ENDMDL
MODEL 7
REMARK VINA RESULT:    -5.708      1.337      2.222
REMARK INTER + INTRA:          -9.481
REMARK INTER:                  -9.405
REMARK INTRA:                  -0.077
REMARK UNBOUND:                -1.438
REMARK  Name = 
REMARK  8 active torsions:
REMARK  status: ('A' for Active; 'I' for Inactive)
REMARK    1  A    between atoms: C_1  and  C_2
REMARK    2  A    between atoms: C_2  and  N_3
REMARK    3  A    between atoms: N_3  and  C_4
REMARK    4  A    between atoms: C_4  and  C_5
REMARK    5  A    between atoms: C_8  and  C_9
REMARK    6  A    between atoms: C_9  and  O_10
REMARK    7  A    between atoms: O_10  and  C_11
REMARK    8  A    between atoms: C_19  and  C_21
REMARK                            x       y       z     vdW  Elec       q    Type
REMARK                         _______ _______ _______ _____ _____    ______ ____
ROOT
ATOM      1  N   UNL     1      46.512   7.223  12.125  0.00  0.00    +0.000 N 
ATOM      2  C   UNL     1      45.437   7.149  11.221  0.00  0.00    +0.000 C 
ATOM      3  O   UNL     1      44.763   8.141  10.944  0.00  0.00    +0.000 OA
ENDROOT
BRANCH   2   4
ATOM      4  C   UNL     1      45.071   5.863  10.629  0.00  0.00    +0.000 A 
ATOM      5  C   UNL     1      45.493   5.420   9.386  0.00  0.00    +0.000 A 
ATOM      6  S   UNL     1      45.004   3.820   9.036  0.00  0.00    +0.000 S 
ATOM      7  C   UNL     1      44.324   3.633  10.585  0.00  0.00    +0.000 A 
ATOM      8  N   UNL     1      43.813   2.439  10.990  0.00  0.00    +0.000 NA
ATOM      9  C   UNL     1      43.402   2.431  12.216  0.00  0.00    +0.000 A 
ATOM     10  N   UNL     1      43.419   3.515  13.058  0.00  0.00    +0.000 N 
ATOM     11  C   UNL     1      43.801   4.775  12.648  0.00  0.00    +0.000 A 
ATOM     12  O   UNL     1      43.583   5.760  13.343  0.00  0.00    +0.000 OA
ATOM     13  C   UNL     1      44.386   4.800  11.320  0.00  0.00    +0.000 A 
ATOM     14  H   UNL     1      43.020   3.457  13.982  0.00  0.00    +0.000 HD
ENDBRANCH   2   4
BRANCH   1  16
ATOM     15  C   UNL     1      45.401   9.282  12.994  0.00  0.00    +0.000 C 
ATOM     16  C   UNL     1      46.709   8.533  12.764  0.00  0.00    +0.000 C 
ENDBRANCH   1  16
BRANCH   1  17
ATOM     17  C   UNL     1      47.355   6.068  12.493  0.00  0.00    +0.000 C 
BRANCH  17  18
ATOM     18  C   UNL     1      47.545   5.823  13.968  0.00  0.00    +0.000 A 
ATOM     19  C   UNL     1      48.351   6.683  14.731  0.00  0.00    +0.000 A 
ATOM     20  C   UNL     1      48.752   6.313  16.014  0.00  0.00    +0.000 A 
ATOM     21  C   UNL     1      48.341   5.090  16.546  0.00  0.00    +0.000 A 
ATOM     22  C   UNL     1      47.396   4.320  15.856  0.00  0.00    +0.000 A 
ATOM     23  C   UNL     1      47.006   4.681  14.568  0.00  0.00    +0.000 A 
BRANCH  21  24
ATOM     24  C   UNL     1      49.012   4.531  17.774  0.00  0.00    +0.000 C 
BRANCH  24  25
ATOM     25  O   UNL     1      49.283   3.139  17.638  0.00  0.00    +0.000 OA
BRANCH  25  26
ATOM     26  C   UNL     1      50.610   2.802  17.690  0.00  0.00    +0.000 A 
ATOM     27  C   UNL     1      51.652   3.632  18.103  0.00  0.00    +0.000 A 
ATOM     28  C   UNL     1      52.942   3.123  18.093  0.00  0.00    +0.000 A 
ATOM     29  N   UNL     1      53.250   1.870  17.707  0.00  0.00    +0.000 NA
ATOM     30  C   UNL     1      52.226   1.087  17.309  0.00  0.00    +0.000 A 
ATOM     31  C   UNL     1      50.904   1.506  17.283  0.00  0.00    +0.000 A 
ENDBRANCH  25  26
ENDBRANCH  24  25
ENDBRANCH  21  24
ENDBRANCH  17  18
ENDBRANCH   1  17
TORSDOF 7
ENDMDL
MODEL 8
REMARK VINA RESULT:    -5.506      4.371      8.398
REMARK INTER + INTRA:          -9.196
REMARK INTER:                  -7.239
REMARK INTRA:                  -1.957
REMARK UNBOUND:                -1.438
REMARK  Name = 
REMARK  8 active torsions:
REMARK  status: ('A' for Active; 'I' for Inactive)
REMARK    1  A    between atoms: C_1  and  C_2
REMARK    2  A    between atoms: C_2  and  N_3
REMARK    3  A    between atoms: N_3  and  C_4
REMARK    4  A    between atoms: C_4  and  C_5
REMARK    5  A    between atoms: C_8  and  C_9
REMARK    6  A    between atoms: C_9  and  O_10
REMARK    7  A    between atoms: O_10  and  C_11
REMARK    8  A    between atoms: C_19  and  C_21
REMARK                            x       y       z     vdW  Elec       q    Type
REMARK                         _______ _______ _______ _____ _____    ______ ____
ROOT
ATOM      1  N   UNL     1      51.866   8.988  12.542  0.00  0.00    +0.000 N 
ATOM      2  C   UNL     1      52.270   8.810  13.878  0.00  0.00    +0.000 C 
ATOM      3  O   UNL     1      53.174   8.031  14.175  0.00  0.00    +0.000 OA
ENDROOT
BRANCH   2   4
ATOM      4  C   UNL     1      51.575   9.523  14.949  0.00  0.00    +0.000 A 
ATOM      5  C   UNL     1      51.923  10.781  15.413  0.00  0.00    +0.000 A 
ATOM      6  S   UNL     1      50.836  11.398  16.578  0.00  0.00    +0.000 S 
ATOM      7  C   UNL     1      49.804  10.056  16.402  0.00  0.00    +0.000 A 
ATOM      8  N   UNL     1      48.611   9.996  17.053  0.00  0.00    +0.000 NA
ATOM      9  C   UNL     1      47.904   8.953  16.761  0.00  0.00    +0.000 A 
ATOM     10  N   UNL     1      48.298   7.949  15.913  0.00  0.00    +0.000 N 
ATOM     11  C   UNL     1      49.552   7.902  15.340  0.00  0.00    +0.000 A 
ATOM     12  O   UNL     1      49.958   6.887  14.786  0.00  0.00    +0.000 OA
ATOM     13  C   UNL     1      50.327   9.113  15.541  0.00  0.00    +0.000 A 
ATOM     14  H   UNL     1      47.727   7.129  15.783  0.00  0.00    +0.000 HD
ENDBRANCH   2   4
BRANCH   1  16
ATOM     15  C   UNL     1      52.854   8.845  10.255  0.00  0.00    +0.000 C 
ATOM     16  C   UNL     1      52.538   8.124  11.560  0.00  0.00    +0.000 C 
ENDBRANCH   1  16
BRANCH   1  17
ATOM     17  C   UNL     1      50.789   9.910  12.126  0.00  0.00    +0.000 C 
BRANCH  17  18
ATOM     18  C   UNL     1      49.408   9.317  12.018  0.00  0.00    +0.000 A 
ATOM     19  C   UNL     1      48.294  10.024  12.497  0.00  0.00    +0.000 A 
ATOM     20  C   UNL     1      47.068   9.379  12.655  0.00  0.00    +0.000 A 
ATOM     21  C   UNL     1      46.945   8.029  12.322  0.00  0.00    +0.000 A 
ATOM     22  C   UNL     1      48.005   7.377  11.679  0.00  0.00    +0.000 A 
ATOM     23  C   UNL     1      49.234   8.017  11.534  0.00  0.00    +0.000 A 
BRANCH  21  24
ATOM     24  C   UNL     1      45.745   7.239  12.779  0.00  0.00    +0.000 C 
BRANCH  24  25
ATOM     25  O   UNL     1      46.027   5.844  12.840  0.00  0.00    +0.000 OA
BRANCH  25  26
ATOM     26  C   UNL     1      45.127   5.045  12.185  0.00  0.00    +0.000 A 
ATOM     27  C   UNL     1      44.916   5.006  10.806  0.00  0.00    +0.000 A 
ATOM     28  C   UNL     1      43.961   4.132  10.311  0.00  0.00    +0.000 A 
ATOM     29  N   UNL     1      43.222   3.313  11.085  0.00  0.00    +0.000 NA
ATOM     30  C   UNL     1      43.442   3.370  12.414  0.00  0.00    +0.000 A 
ATOM     31  C   UNL     1      44.373   4.213  13.004  0.00  0.00    +0.000 A 
ENDBRANCH  25  26
ENDBRANCH  24  25
ENDBRANCH  21  24
ENDBRANCH  17  18
ENDBRANCH   1  17
TORSDOF 7
ENDMDL
MODEL 9
REMARK VINA RESULT:    -4.944     10.302     12.767
REMARK INTER + INTRA:          -8.404
REMARK INTER:                  -5.993
REMARK INTRA:                  -2.411
REMARK UNBOUND:                -1.438
REMARK  Name = 
REMARK  8 active torsions:
REMARK  status: ('A' for Active; 'I' for Inactive)
REMARK    1  A    between atoms: C_1  and  C_2
REMARK    2  A    between atoms: C_2  and  N_3
REMARK    3  A    between atoms: N_3  and  C_4
REMARK    4  A    between atoms: C_4  and  C_5
REMARK    5  A    between atoms: C_8  and  C_9
REMARK    6  A    between atoms: C_9  and  O_10
REMARK    7  A    between atoms: O_10  and  C_11
REMARK    8  A    between atoms: C_19  and  C_21
REMARK                            x       y       z     vdW  Elec       q    Type
REMARK                         _______ _______ _______ _____ _____    ______ ____
ROOT
ATOM      1  N   UNL     1      39.788  -3.241  12.141  0.00  0.00    +0.000 N 
ATOM      2  C   UNL     1      40.959  -3.102  12.907  0.00  0.00    +0.000 C 
ATOM      3  O   UNL     1      41.901  -2.413  12.520  0.00  0.00    +0.000 OA
ENDROOT
BRANCH   2   4
ATOM      4  C   UNL     1      41.091  -3.827  14.171  0.00  0.00    +0.000 A 
ATOM      5  C   UNL     1      41.678  -5.075  14.305  0.00  0.00    +0.000 A 
ATOM      6  S   UNL     1      41.799  -5.595  15.928  0.00  0.00    +0.000 S 
ATOM      7  C   UNL     1      41.186  -4.115  16.503  0.00  0.00    +0.000 A 
ATOM      8  N   UNL     1      41.121  -3.851  17.836  0.00  0.00    +0.000 NA
ATOM      9  C   UNL     1      40.706  -2.659  18.116  0.00  0.00    +0.000 A 
ATOM     10  N   UNL     1      40.313  -1.725  17.190  0.00  0.00    +0.000 N 
ATOM     11  C   UNL     1      40.234  -1.997  15.841  0.00  0.00    +0.000 A 
ATOM     12  O   UNL     1      39.660  -1.234  15.073  0.00  0.00    +0.000 OA
ATOM     13  C   UNL     1      40.809  -3.278  15.472  0.00  0.00    +0.000 A 
ATOM     14  H   UNL     1      39.934  -0.837  17.480  0.00  0.00    +0.000 HD
ENDBRANCH   2   4
BRANCH   1  16
ATOM     15  C   UNL     1      39.258  -3.457   9.711  0.00  0.00    +0.000 C 
ATOM     16  C   UNL     1      39.813  -2.579  10.828  0.00  0.00    +0.000 C 
ENDBRANCH   1  16
BRANCH   1  17
ATOM     17  C   UNL     1      38.626  -4.052  12.557  0.00  0.00    +0.000 C 
BRANCH  17  18
ATOM     18  C   UNL     1      37.619  -3.368  13.446  0.00  0.00    +0.000 A 
ATOM     19  C   UNL     1      37.030  -2.158  13.048  0.00  0.00    +0.000 A 
ATOM     20  C   UNL     1      36.321  -1.387  13.968  0.00  0.00    +0.000 A 
ATOM     21  C   UNL     1      36.186  -1.826  15.287  0.00  0.00    +0.000 A 
ATOM     22  C   UNL     1      36.620  -3.112  15.633  0.00  0.00    +0.000 A 
ATOM     23  C   UNL     1      37.340  -3.877  14.718  0.00  0.00    +0.000 A 
BRANCH  21  24
ATOM     24  C   UNL     1      35.716  -0.878  16.360  0.00  0.00    +0.000 C 
BRANCH  24  25
ATOM     25  O   UNL     1      36.787  -0.468  17.204  0.00  0.00    +0.000 OA
BRANCH  25  26
ATOM     26  C   UNL     1      37.198   0.827  17.026  0.00  0.00    +0.000 A 
ATOM     27  C   UNL     1      38.365   1.396  17.538  0.00  0.00    +0.000 A 
ATOM     28  C   UNL     1      38.626   2.727  17.255  0.00  0.00    +0.000 A 
ATOM     29  N   UNL     1      37.818   3.509  16.512  0.00  0.00    +0.000 NA
ATOM     30  C   UNL     1      36.695   2.938  16.031  0.00  0.00    +0.000 A 
ATOM     31  C   UNL     1      36.346   1.615  16.260  0.00  0.00    +0.000 A 
ENDBRANCH  25  26
ENDBRANCH  24  25
ENDBRANCH  21  24
ENDBRANCH  17  18
ENDBRANCH   1  17
TORSDOF 7
ENDMDL
