MODEL 1
REMARK VINA RESULT:    -7.893      0.000      0.000
REMARK INTER + INTRA:         -12.758
REMARK INTER:                 -11.585
REMARK INTRA:                  -1.173
REMARK UNBOUND:                -1.173
REMARK  Name = 
REMARK  8 active torsions:
REMARK  status: ('A' for Active; 'I' for Inactive)
REMARK    1  A    between atoms: C_2  and  C_3
REMARK    2  A    between atoms: C_7  and  C_8
REMARK    3  A    between atoms: C_8  and  O_9
REMARK    4  A    between atoms: O_9  and  C_10
REMARK    5  A    between atoms: C_10  and  C_11
REMARK    6  A    between atoms: C_14  and  C_15
REMARK    7  A    between atoms: C_15  and  N_16
REMARK    8  A    between atoms: C_17  and  C_19
REMARK                            x       y       z     vdW  Elec       q    Type
REMARK                         _______ _______ _______ _____ _____    ______ ____
ROOT
ATOM      1  C   UNL     1      44.453   5.659  12.154  0.00  0.00    +0.000 A 
ATOM      2  C   UNL     1      44.991   4.935  13.228  0.00  0.00    +0.000 A 
ATOM      3  C   UNL     1      46.257   5.242  13.739  0.00  0.00    +0.000 A 
ATOM      4  C   UNL     1      47.007   6.291  13.191  0.00  0.00    +0.000 A 
ATOM      5  C   UNL     1      46.482   6.994  12.098  0.00  0.00    +0.000 A 
ATOM      6  C   UNL     1      45.217   6.687  11.589  0.00  0.00    +0.000 A 
ENDROOT
BRANCH   1   7
ATOM      7  C   UNL     1      43.086   5.318  11.619  0.00  0.00    +0.000 C 
BRANCH   7   8
ATOM      8  O   UNL     1      43.238   4.754  10.320  0.00  0.00    +0.000 OA
BRANCH   8   9
ATOM      9  C   UNL     1      43.808   3.446  10.370  0.00  0.00    +0.000 C 
BRANCH   9  14
ATOM     10  C   UNL     1      46.192   1.841   8.050  0.00  0.00    +0.000 A 
ATOM     11  C   UNL     1      46.773   2.892   7.351  0.00  0.00    +0.000 A 
ATOM     12  C   UNL     1      46.367   4.185   7.657  0.00  0.00    +0.000 A 
ATOM     13  C   UNL     1      45.400   4.382   8.639  0.00  0.00    +0.000 A 
ATOM     14  C   UNL     1      44.850   3.275   9.286  0.00  0.00    +0.000 A 
ATOM     15  N   UNL     1      45.251   2.008   9.012  0.00  0.00    +0.000 NA
BRANCH  10  17
ATOM     16  N   UNL     1      46.878  -0.607   7.524  0.00  0.00    +0.000 NA
ATOM     17  C   UNL     1      46.581   0.485   7.778  0.00  0.00    +0.000 C 
ENDBRANCH  10  17
ENDBRANCH   9  14
ENDBRANCH   8   9
ENDBRANCH   7   8
ENDBRANCH   1   7
BRANCH   4  18
ATOM     18  C   UNL     1      48.364   6.649  13.743  0.00  0.00    +0.000 C 
BRANCH  18  19
ATOM     19  N   UNL     1      48.374   6.608  15.181  0.00  0.00    +0.000 N 
ATOM     20  C   UNL     1      49.514   6.863  15.900  0.00  0.00    +0.000 C 
ATOM     21  O   UNL     1      50.575   7.162  15.360  0.00  0.00    +0.000 OA
ATOM     22  H   UNL     1      47.606   6.119  15.628  0.00  0.00    +0.000 HD
BRANCH  20  23
ATOM     23  C   UNL     1      49.379   6.823  17.362  0.00  0.00    +0.000 A 
ATOM     24  C   UNL     1      49.553   7.982  18.106  0.00  0.00    +0.000 A 
ATOM     25  S   UNL     1      49.311   7.760  19.780  0.00  0.00    +0.000 S 
ATOM     26  C   UNL     1      49.015   6.097  19.574  0.00  0.00    +0.000 A 
ATOM     27  N   UNL     1      48.760   5.292  20.640  0.00  0.00    +0.000 NA
ATOM     28  C   UNL     1      48.581   4.048  20.338  0.00  0.00    +0.000 A 
ATOM     29  N   UNL     1      48.625   3.539  19.068  0.00  0.00    +0.000 N 
ATOM     30  C   UNL     1      48.847   4.319  17.959  0.00  0.00    +0.000 A 
ATOM     31  O   UNL     1      48.829   3.838  16.830  0.00  0.00    +0.000 OA
ATOM     32  C   UNL     1      49.076   5.722  18.244  0.00  0.00    +0.000 A 
ATOM     33  H   UNL     1      48.461   2.558  18.895  0.00  0.00    +0.000 HD
ENDBRANCH  20  23
ENDBRANCH  18  19
ENDBRANCH   4  18
TORSDOF 8
ENDMDL
MODEL 2
REMARK VINA RESULT:    -7.721      1.711      1.922
REMARK INTER + INTRA:         -12.504
REMARK INTER:                 -11.109
REMARK INTRA:                  -1.395
REMARK UNBOUND:                -1.173
REMARK  Name = 
REMARK  8 active torsions:
REMARK  status: ('A' for Active; 'I' for Inactive)
REMARK    1  A    between atoms: C_2  and  C_3
REMARK    2  A    between atoms: C_7  and  C_8
REMARK    3  A    between atoms: C_8  and  O_9
REMARK    4  A    between atoms: O_9  and  C_10
REMARK    5  A    between atoms: C_10  and  C_11
REMARK    6  A    between atoms: C_14  and  C_15
REMARK    7  A    between atoms: C_15  and  N_16
REMARK    8  A    between atoms: C_17  and  C_19
REMARK                            x       y       z     vdW  Elec       q    Type
REMARK                         _______ _______ _______ _____ _____    ______ ____
ROOT
ATOM      1  C   UNL     1      44.688   5.298  12.886  0.00  0.00    +0.000 A 
ATOM      2  C   UNL     1      45.903   4.726  13.292  0.00  0.00    +0.000 A 
ATOM      3  C   UNL     1      47.102   5.439  13.188  0.00  0.00    +0.000 A 
ATOM      4  C   UNL     1      47.109   6.746  12.685  0.00  0.00    +0.000 A 
ATOM      5  C   UNL     1      45.900   7.306  12.250  0.00  0.00    +0.000 A 
ATOM      6  C   UNL     1      44.702   6.593  12.356  0.00  0.00    +0.000 A 
ENDROOT
BRANCH   1   7
ATOM      7  C   UNL     1      43.404   4.519  13.009  0.00  0.00    +0.000 C 
BRANCH   7   8
ATOM      8  O   UNL     1      42.948   4.191  11.701  0.00  0.00    +0.000 OA
BRANCH   8   9
ATOM      9  C   UNL     1      43.439   2.921  11.269  0.00  0.00    +0.000 C 
BRANCH   9  14
ATOM     10  C   UNL     1      45.733   2.080   8.499  0.00  0.00    +0.000 A 
ATOM     11  C   UNL     1      45.982   3.291   7.862  0.00  0.00    +0.000 A 
ATOM     12  C   UNL     1      45.374   4.433   8.366  0.00  0.00    +0.000 A 
ATOM     13  C   UNL     1      44.541   4.329   9.476  0.00  0.00    +0.000 A 
ATOM     14  C   UNL     1      44.325   3.076  10.052  0.00  0.00    +0.000 A 
ATOM     15  N   UNL     1      44.928   1.955   9.582  0.00  0.00    +0.000 NA
BRANCH  10  17
ATOM     16  N   UNL     1      46.837  -0.092   7.604  0.00  0.00    +0.000 NA
ATOM     17  C   UNL     1      46.343   0.870   8.023  0.00  0.00    +0.000 C 
ENDBRANCH  10  17
ENDBRANCH   9  14
ENDBRANCH   8   9
ENDBRANCH   7   8
ENDBRANCH   1   7
BRANCH   4  18
ATOM     18  C   UNL     1      48.390   7.536  12.585  0.00  0.00    +0.000 C 
BRANCH  18  19
ATOM     19  N   UNL     1      49.370   7.068  13.528  0.00  0.00    +0.000 N 
ATOM     20  C   UNL     1      49.459   7.592  14.793  0.00  0.00    +0.000 C 
ATOM     21  O   UNL     1      48.696   8.466  15.194  0.00  0.00    +0.000 OA
ATOM     22  H   UNL     1      50.159   6.554  13.150  0.00  0.00    +0.000 HD
BRANCH  20  23
ATOM     23  C   UNL     1      50.479   7.001  15.668  0.00  0.00    +0.000 A 
ATOM     24  C   UNL     1      51.784   7.473  15.628  0.00  0.00    +0.000 A 
ATOM     25  S   UNL     1      52.820   6.707  16.746  0.00  0.00    +0.000 S 
ATOM     26  C   UNL     1      51.573   5.684  17.287  0.00  0.00    +0.000 A 
ATOM     27  N   UNL     1      51.801   4.744  18.243  0.00  0.00    +0.000 NA
ATOM     28  C   UNL     1      50.771   4.021  18.537  0.00  0.00    +0.000 A 
ATOM     29  N   UNL     1      49.533   4.158  17.969  0.00  0.00    +0.000 N 
ATOM     30  C   UNL     1      49.248   5.114  17.024  0.00  0.00    +0.000 A 
ATOM     31  O   UNL     1      48.114   5.243  16.572  0.00  0.00    +0.000 OA
ATOM     32  C   UNL     1      50.377   5.940  16.642  0.00  0.00    +0.000 A 
ATOM     33  H   UNL     1      48.762   3.572  18.253  0.00  0.00    +0.000 HD
ENDBRANCH  20  23
ENDBRANCH  18  19
ENDBRANCH   4  18
TORSDOF 8
ENDMDL
MODEL 3
REMARK VINA RESULT:    -7.275      2.837      8.844
REMARK INTER + INTRA:         -11.850
REMARK INTER:                 -10.327
REMARK INTRA:                  -1.523
REMARK UNBOUND:                -1.173
REMARK  Name = 
REMARK  8 active torsions:
REMARK  status: ('A' for Active; 'I' for Inactive)
REMARK    1  A    between atoms: C_2  and  C_3
REMARK    2  A    between atoms: C_7  and  C_8
REMARK    3  A    between atoms: C_8  and  O_9
REMARK    4  A    between atoms: O_9  and  C_10
REMARK    5  A    between atoms: C_10  and  C_11
REMARK    6  A    between atoms: C_14  and  C_15
REMARK    7  A    between atoms: C_15  and  N_16
REMARK    8  A    between atoms: C_17  and  C_19
REMARK                            x       y       z     vdW  Elec       q    Type
REMARK                         _______ _______ _______ _____ _____    ______ ____
ROOT
ATOM      1  C   UNL     1      49.159   7.845  16.004  0.00  0.00    +0.000 A 
ATOM      2  C   UNL     1      49.112   6.671  15.238  0.00  0.00    +0.000 A 
ATOM      3  C   UNL     1      48.480   6.654  13.989  0.00  0.00    +0.000 A 
ATOM      4  C   UNL     1      47.891   7.817  13.476  0.00  0.00    +0.000 A 
ATOM      5  C   UNL     1      47.911   8.981  14.255  0.00  0.00    +0.000 A 
ATOM      6  C   UNL     1      48.544   8.998  15.502  0.00  0.00    +0.000 A 
ENDROOT
BRANCH   1   7
ATOM      7  C   UNL     1      49.847   7.849  17.344  0.00  0.00    +0.000 C 
BRANCH   7   8
ATOM      8  O   UNL     1      48.878   7.569  18.350  0.00  0.00    +0.000 OA
BRANCH   8   9
ATOM      9  C   UNL     1      49.221   6.412  19.113  0.00  0.00    +0.000 C 
BRANCH   9  14
ATOM     10  C   UNL     1      49.345   3.093  17.499  0.00  0.00    +0.000 A 
ATOM     11  C   UNL     1      48.042   2.851  17.079  0.00  0.00    +0.000 A 
ATOM     12  C   UNL     1      47.082   3.821  17.335  0.00  0.00    +0.000 A 
ATOM     13  C   UNL     1      47.450   4.988  17.997  0.00  0.00    +0.000 A 
ATOM     14  C   UNL     1      48.775   5.152  18.403  0.00  0.00    +0.000 A 
ATOM     15  N   UNL     1      49.728   4.222  18.143  0.00  0.00    +0.000 NA
BRANCH  10  17
ATOM     16  N   UNL     1      51.195   1.321  17.080  0.00  0.00    +0.000 NA
ATOM     17  C   UNL     1      50.378   2.126  17.254  0.00  0.00    +0.000 C 
ENDBRANCH  10  17
ENDBRANCH   9  14
ENDBRANCH   8   9
ENDBRANCH   7   8
ENDBRANCH   1   7
BRANCH   4  18
ATOM     18  C   UNL     1      47.224   7.820  12.123  0.00  0.00    +0.000 C 
BRANCH  18  19
ATOM     19  N   UNL     1      46.591   6.558  11.847  0.00  0.00    +0.000 N 
ATOM     20  C   UNL     1      45.233   6.456  11.684  0.00  0.00    +0.000 C 
ATOM     21  O   UNL     1      44.491   7.432  11.740  0.00  0.00    +0.000 OA
ATOM     22  H   UNL     1      47.128   5.723  12.054  0.00  0.00    +0.000 HD
BRANCH  20  23
ATOM     23  C   UNL     1      44.718   5.116  11.371  0.00  0.00    +0.000 A 
ATOM     24  C   UNL     1      43.935   4.441  12.297  0.00  0.00    +0.000 A 
ATOM     25  S   UNL     1      43.384   2.923  11.746  0.00  0.00    +0.000 S 
ATOM     26  C   UNL     1      44.215   3.094  10.271  0.00  0.00    +0.000 A 
ATOM     27  N   UNL     1      44.185   2.111   9.331  0.00  0.00    +0.000 NA
ATOM     28  C   UNL     1      44.883   2.364   8.273  0.00  0.00    +0.000 A 
ATOM     29  N   UNL     1      45.600   3.513   8.066  0.00  0.00    +0.000 N 
ATOM     30  C   UNL     1      45.633   4.544   8.974  0.00  0.00    +0.000 A 
ATOM     31  O   UNL     1      46.245   5.581   8.734  0.00  0.00    +0.000 OA
ATOM     32  C   UNL     1      44.883   4.302  10.190  0.00  0.00    +0.000 A 
ATOM     33  H   UNL     1      46.113   3.658   7.210  0.00  0.00    +0.000 HD
ENDBRANCH  20  23
ENDBRANCH  18  19
ENDBRANCH   4  18
TORSDOF 8
ENDMDL
MODEL 4
REMARK VINA RESULT:    -7.184      2.198      2.556
REMARK INTER + INTRA:         -11.717
REMARK INTER:                 -10.743
REMARK INTRA:                  -0.975
REMARK UNBOUND:                -1.173
REMARK  Name = 
REMARK  8 active torsions:
REMARK  status: ('A' for Active; 'I' for Inactive)
REMARK    1  A    between atoms: C_2  and  C_3
REMARK    2  A    between atoms: C_7  and  C_8
REMARK    3  A    between atoms: C_8  and  O_9
REMARK    4  A    between atoms: O_9  and  C_10
REMARK    5  A    between atoms: C_10  and  C_11
REMARK    6  A    between atoms: C_14  and  C_15
REMARK    7  A    between atoms: C_15  and  N_16
REMARK    8  A    between atoms: C_17  and  C_19
REMARK                            x       y       z     vdW  Elec       q    Type
REMARK                         _______ _______ _______ _____ _____    ______ ____
ROOT
ATOM      1  C   UNL     1      46.082   5.112  12.642  0.00  0.00    +0.000 A 
ATOM      2  C   UNL     1      46.504   4.539  13.851  0.00  0.00    +0.000 A 
ATOM      3  C   UNL     1      47.411   5.205  14.682  0.00  0.00    +0.000 A 
ATOM      4  C   UNL     1      47.906   6.467  14.326  0.00  0.00    +0.000 A 
ATOM      5  C   UNL     1      47.508   7.025  13.104  0.00  0.00    +0.000 A 
ATOM      6  C   UNL     1      46.600   6.359  12.274  0.00  0.00    +0.000 A 
ENDROOT
BRANCH   1   7
ATOM      7  C   UNL     1      45.101   4.385  11.760  0.00  0.00    +0.000 C 
BRANCH   7   8
ATOM      8  O   UNL     1      45.090   5.014  10.482  0.00  0.00    +0.000 OA
BRANCH   8   9
ATOM      9  C   UNL     1      44.472   4.194   9.489  0.00  0.00    +0.000 C 
BRANCH   9  14
ATOM     10  C   UNL     1      46.589   1.775   7.670  0.00  0.00    +0.000 A 
ATOM     11  C   UNL     1      47.403   2.555   6.855  0.00  0.00    +0.000 A 
ATOM     12  C   UNL     1      47.252   3.934   6.908  0.00  0.00    +0.000 A 
ATOM     13  C   UNL     1      46.301   4.485   7.762  0.00  0.00    +0.000 A 
ATOM     14  C   UNL     1      45.508   3.637   8.537  0.00  0.00    +0.000 A 
ATOM     15  N   UNL     1      45.658   2.288   8.510  0.00  0.00    +0.000 NA
BRANCH  10  17
ATOM     16  N   UNL     1      46.811  -0.811   7.689  0.00  0.00    +0.000 NA
ATOM     17  C   UNL     1      46.709   0.344   7.659  0.00  0.00    +0.000 C 
ENDBRANCH  10  17
ENDBRANCH   9  14
ENDBRANCH   8   9
ENDBRANCH   7   8
ENDBRANCH   1   7
BRANCH   4  18
ATOM     18  C   UNL     1      48.868   7.207  15.220  0.00  0.00    +0.000 C 
BRANCH  18  19
ATOM     19  N   UNL     1      49.889   6.332  15.732  0.00  0.00    +0.000 N 
ATOM     20  C   UNL     1      50.107   6.191  17.078  0.00  0.00    +0.000 C 
ATOM     21  O   UNL     1      49.432   6.782  17.916  0.00  0.00    +0.000 OA
ATOM     22  H   UNL     1      50.614   6.047  15.081  0.00  0.00    +0.000 HD
BRANCH  20  23
ATOM     23  C   UNL     1      51.156   5.239  17.469  0.00  0.00    +0.000 A 
ATOM     24  C   UNL     1      52.369   5.706  17.955  0.00  0.00    +0.000 A 
ATOM     25  S   UNL     1      53.447   4.463  18.405  0.00  0.00    +0.000 S 
ATOM     26  C   UNL     1      52.349   3.258  17.917  0.00  0.00    +0.000 A 
ATOM     27  N   UNL     1      52.668   1.939  18.009  0.00  0.00    +0.000 NA
ATOM     28  C   UNL     1      51.751   1.137  17.578  0.00  0.00    +0.000 A 
ATOM     29  N   UNL     1      50.542   1.534  17.071  0.00  0.00    +0.000 N 
ATOM     30  C   UNL     1      50.164   2.852  16.989  0.00  0.00    +0.000 A 
ATOM     31  O   UNL     1      49.053   3.170  16.577  0.00  0.00    +0.000 OA
ATOM     32  C   UNL     1      51.167   3.796  17.441  0.00  0.00    +0.000 A 
ATOM     33  H   UNL     1      49.859   0.857  16.764  0.00  0.00    +0.000 HD
ENDBRANCH  20  23
ENDBRANCH  18  19
ENDBRANCH   4  18
TORSDOF 8
ENDMDL
MODEL 5
REMARK VINA RESULT:    -6.981      3.492      5.108
REMARK INTER + INTRA:         -11.419
REMARK INTER:                 -10.312
REMARK INTRA:                  -1.107
REMARK UNBOUND:                -1.173
REMARK  Name = 
REMARK  8 active torsions:
REMARK  status: ('A' for Active; 'I' for Inactive)
REMARK    1  A    between atoms: C_2  and  C_3
REMARK    2  A    between atoms: C_7  and  C_8
REMARK    3  A    between atoms: C_8  and  O_9
REMARK    4  A    between atoms: O_9  and  C_10
REMARK    5  A    between atoms: C_10  and  C_11
REMARK    6  A    between atoms: C_14  and  C_15
REMARK    7  A    between atoms: C_15  and  N_16
REMARK    8  A    between atoms: C_17  and  C_19
REMARK                            x       y       z     vdW  Elec       q    Type
REMARK                         _______ _______ _______ _____ _____    ______ ____
ROOT
ATOM      1  C   UNL     1      47.766   6.000  14.468  0.00  0.00    +0.000 A 
ATOM      2  C   UNL     1      47.124   4.754  14.513  0.00  0.00    +0.000 A 
ATOM      3  C   UNL     1      47.288   3.902  15.611  0.00  0.00    +0.000 A 
ATOM      4  C   UNL     1      48.090   4.286  16.693  0.00  0.00    +0.000 A 
ATOM      5  C   UNL     1      48.756   5.518  16.634  0.00  0.00    +0.000 A 
ATOM      6  C   UNL     1      48.590   6.369  15.537  0.00  0.00    +0.000 A 
ENDROOT
BRANCH   1   7
ATOM      7  C   UNL     1      47.576   6.909  13.281  0.00  0.00    +0.000 C 
BRANCH   7   8
ATOM      8  O   UNL     1      46.183   7.163  13.127  0.00  0.00    +0.000 OA
BRANCH   8   9
ATOM      9  C   UNL     1      45.722   6.829  11.817  0.00  0.00    +0.000 C 
BRANCH   9  14
ATOM     10  C   UNL     1      44.397   3.522  10.843  0.00  0.00    +0.000 A 
ATOM     11  C   UNL     1      43.446   3.219  11.812  0.00  0.00    +0.000 A 
ATOM     12  C   UNL     1      43.229   4.142  12.826  0.00  0.00    +0.000 A 
ATOM     13  C   UNL     1      43.964   5.324  12.843  0.00  0.00    +0.000 A 
ATOM     14  C   UNL     1      44.913   5.551  11.845  0.00  0.00    +0.000 A 
ATOM     15  N   UNL     1      45.122   4.667  10.836  0.00  0.00    +0.000 NA
BRANCH  10  17
ATOM     16  N   UNL     1      44.899   1.859   8.915  0.00  0.00    +0.000 NA
ATOM     17  C   UNL     1      44.655   2.606   9.768  0.00  0.00    +0.000 C 
ENDBRANCH  10  17
ENDBRANCH   9  14
ENDBRANCH   8   9
ENDBRANCH   7   8
ENDBRANCH   1   7
BRANCH   4  18
ATOM     18  C   UNL     1      48.261   3.388  17.893  0.00  0.00    +0.000 C 
BRANCH  18  19
ATOM     19  N   UNL     1      49.645   3.057  18.108  0.00  0.00    +0.000 N 
ATOM     20  C   UNL     1      50.327   2.231  17.252  0.00  0.00    +0.000 C 
ATOM     21  O   UNL     1      49.805   1.751  16.249  0.00  0.00    +0.000 OA
ATOM     22  H   UNL     1      50.013   3.216  19.040  0.00  0.00    +0.000 HD
BRANCH  20  23
ATOM     23  C   UNL     1      51.744   2.001  17.565  0.00  0.00    +0.000 A 
ATOM     24  C   UNL     1      52.217   0.706  17.722  0.00  0.00    +0.000 A 
ATOM     25  S   UNL     1      53.893   0.626  18.033  0.00  0.00    +0.000 S 
ATOM     26  C   UNL     1      54.033   2.322  18.018  0.00  0.00    +0.000 A 
ATOM     27  N   UNL     1      55.228   2.929  18.251  0.00  0.00    +0.000 NA
ATOM     28  C   UNL     1      55.181   4.220  18.237  0.00  0.00    +0.000 A 
ATOM     29  N   UNL     1      54.052   4.959  18.002  0.00  0.00    +0.000 N 
ATOM     30  C   UNL     1      52.832   4.389  17.730  0.00  0.00    +0.000 A 
ATOM     31  O   UNL     1      51.851   5.080  17.473  0.00  0.00    +0.000 OA
ATOM     32  C   UNL     1      52.824   2.939  17.756  0.00  0.00    +0.000 A 
ATOM     33  H   UNL     1      54.083   5.967  17.988  0.00  0.00    +0.000 HD
ENDBRANCH  20  23
ENDBRANCH  18  19
ENDBRANCH   4  18
TORSDOF 8
ENDMDL
MODEL 6
REMARK VINA RESULT:    -6.969      2.896      8.730
REMARK INTER + INTRA:         -11.402
REMARK INTER:                  -9.932
REMARK INTRA:                  -1.470
REMARK UNBOUND:                -1.173
REMARK  Name = 
REMARK  8 active torsions:
REMARK  status: ('A' for Active; 'I' for Inactive)
REMARK    1  A    between atoms: C_2  and  C_3
REMARK    2  A    between atoms: C_7  and  C_8
REMARK    3  A    between atoms: C_8  and  O_9
REMARK    4  A    between atoms: O_9  and  C_10
REMARK    5  A    between atoms: C_10  and  C_11
REMARK    6  A    between atoms: C_14  and  C_15
REMARK    7  A    between atoms: C_15  and  N_16
REMARK    8  A    between atoms: C_17  and  C_19
REMARK                            x       y       z     vdW  Elec       q    Type
REMARK                         _______ _______ _______ _____ _____    ______ ____
ROOT
ATOM      1  C   UNL     1      49.872   8.320  14.477  0.00  0.00    +0.000 A 
ATOM      2  C   UNL     1      48.638   8.854  14.875  0.00  0.00    +0.000 A 
ATOM      3  C   UNL     1      47.531   8.816  14.020  0.00  0.00    +0.000 A 
ATOM      4  C   UNL     1      47.634   8.230  12.752  0.00  0.00    +0.000 A 
ATOM      5  C   UNL     1      48.875   7.724  12.344  0.00  0.00    +0.000 A 
ATOM      6  C   UNL     1      49.980   7.762  13.199  0.00  0.00    +0.000 A 
ENDROOT
BRANCH   1   7
ATOM      7  C   UNL     1      51.054   8.365  15.411  0.00  0.00    +0.000 C 
BRANCH   7   8
ATOM      8  O   UNL     1      50.649   7.851  16.676  0.00  0.00    +0.000 OA
BRANCH   8   9
ATOM      9  C   UNL     1      50.981   6.470  16.822  0.00  0.00    +0.000 C 
BRANCH   9  14
ATOM     10  C   UNL     1      47.821   4.648  16.240  0.00  0.00    +0.000 A 
ATOM     11  C   UNL     1      47.440   4.184  17.494  0.00  0.00    +0.000 A 
ATOM     12  C   UNL     1      48.254   4.485  18.578  0.00  0.00    +0.000 A 
ATOM     13  C   UNL     1      49.413   5.230  18.375  0.00  0.00    +0.000 A 
ATOM     14  C   UNL     1      49.738   5.646  17.084  0.00  0.00    +0.000 A 
ATOM     15  N   UNL     1      48.943   5.376  16.018  0.00  0.00    +0.000 NA
BRANCH  10  17
ATOM     16  N   UNL     1      46.332   4.130  14.177  0.00  0.00    +0.000 NA
ATOM     17  C   UNL     1      47.012   4.371  15.086  0.00  0.00    +0.000 C 
ENDBRANCH  10  17
ENDBRANCH   9  14
ENDBRANCH   8   9
ENDBRANCH   7   8
ENDBRANCH   1   7
BRANCH   4  18
ATOM     18  C   UNL     1      46.444   8.162  11.827  0.00  0.00    +0.000 C 
BRANCH  18  19
ATOM     19  N   UNL     1      46.021   6.803  11.616  0.00  0.00    +0.000 N 
ATOM     20  C   UNL     1      44.700   6.483  11.426  0.00  0.00    +0.000 C 
ATOM     21  O   UNL     1      43.817   7.335  11.402  0.00  0.00    +0.000 OA
ATOM     22  H   UNL     1      46.672   6.074  11.889  0.00  0.00    +0.000 HD
BRANCH  20  23
ATOM     23  C   UNL     1      44.406   5.064  11.187  0.00  0.00    +0.000 A 
ATOM     24  C   UNL     1      43.626   4.356  12.091  0.00  0.00    +0.000 A 
ATOM     25  S   UNL     1      43.346   2.738  11.629  0.00  0.00    +0.000 S 
ATOM     26  C   UNL     1      44.300   2.913  10.231  0.00  0.00    +0.000 A 
ATOM     27  N   UNL     1      44.502   1.868   9.384  0.00  0.00    +0.000 NA
ATOM     28  C   UNL     1      45.269   2.137   8.379  0.00  0.00    +0.000 A 
ATOM     29  N   UNL     1      45.843   3.357   8.139  0.00  0.00    +0.000 N 
ATOM     30  C   UNL     1      45.641   4.449   8.949  0.00  0.00    +0.000 A 
ATOM     31  O   UNL     1      46.130   5.541   8.677  0.00  0.00    +0.000 OA
ATOM     32  C   UNL     1      44.804   4.195  10.106  0.00  0.00    +0.000 A 
ATOM     33  H   UNL     1      46.421   3.510   7.326  0.00  0.00    +0.000 HD
ENDBRANCH  20  23
ENDBRANCH  18  19
ENDBRANCH   4  18
TORSDOF 8
ENDMDL
MODEL 7
REMARK VINA RESULT:    -6.759      5.094     10.018
REMARK INTER + INTRA:         -11.094
REMARK INTER:                 -10.260
REMARK INTRA:                  -0.834
REMARK UNBOUND:                -1.173
REMARK  Name = 
REMARK  8 active torsions:
REMARK  status: ('A' for Active; 'I' for Inactive)
REMARK    1  A    between atoms: C_2  and  C_3
REMARK    2  A    between atoms: C_7  and  C_8
REMARK    3  A    between atoms: C_8  and  O_9
REMARK    4  A    between atoms: O_9  and  C_10
REMARK    5  A    between atoms: C_10  and  C_11
REMARK    6  A    between atoms: C_14  and  C_15
REMARK    7  A    between atoms: C_15  and  N_16
REMARK    8  A    between atoms: C_17  and  C_19
REMARK                            x       y       z     vdW  Elec       q    Type
REMARK                         _______ _______ _______ _____ _____    ______ ____
ROOT
ATOM      1  C   UNL     1      51.401   3.167  17.762  0.00  0.00    +0.000 A 
ATOM      2  C   UNL     1      50.730   4.387  17.927  0.00  0.00    +0.000 A 
ATOM      3  C   UNL     1      49.369   4.504  17.622  0.00  0.00    +0.000 A 
ATOM      4  C   UNL     1      48.648   3.397  17.158  0.00  0.00    +0.000 A 
ATOM      5  C   UNL     1      49.326   2.186  16.964  0.00  0.00    +0.000 A 
ATOM      6  C   UNL     1      50.686   2.070  17.270  0.00  0.00    +0.000 A 
ENDROOT
BRANCH   1   7
ATOM      7  C   UNL     1      52.866   3.056  18.099  0.00  0.00    +0.000 C 
BRANCH   7   8
ATOM      8  O   UNL     1      53.151   1.700  18.428  0.00  0.00    +0.000 OA
BRANCH   8   9
ATOM      9  C   UNL     1      54.174   1.153  17.595  0.00  0.00    +0.000 C 
BRANCH   9  14
ATOM     10  C   UNL     1      53.774  -2.187  19.119  0.00  0.00    +0.000 A 
ATOM     11  C   UNL     1      54.562  -3.030  18.343  0.00  0.00    +0.000 A 
ATOM     12  C   UNL     1      55.256  -2.478  17.275  0.00  0.00    +0.000 A 
ATOM     13  C   UNL     1      55.140  -1.114  17.017  0.00  0.00    +0.000 A 
ATOM     14  C   UNL     1      54.317  -0.335  17.831  0.00  0.00    +0.000 A 
ATOM     15  N   UNL     1      53.648  -0.858  18.889  0.00  0.00    +0.000 NA
BRANCH  10  17
ATOM     16  N   UNL     1      52.419  -3.103  21.134  0.00  0.00    +0.000 NA
ATOM     17  C   UNL     1      53.041  -2.706  20.240  0.00  0.00    +0.000 C 
ENDBRANCH  10  17
ENDBRANCH   9  14
ENDBRANCH   8   9
ENDBRANCH   7   8
ENDBRANCH   1   7
BRANCH   4  18
ATOM     18  C   UNL     1      47.176   3.500  16.845  0.00  0.00    +0.000 C 
BRANCH  18  19
ATOM     19  N   UNL     1      46.924   4.486  15.828  0.00  0.00    +0.000 N 
ATOM     20  C   UNL     1      47.003   4.179  14.493  0.00  0.00    +0.000 C 
ATOM     21  O   UNL     1      47.268   3.048  14.096  0.00  0.00    +0.000 OA
ATOM     22  H   UNL     1      46.966   5.459  16.115  0.00  0.00    +0.000 HD
BRANCH  20  23
ATOM     23  C   UNL     1      46.688   5.268  13.559  0.00  0.00    +0.000 A 
ATOM     24  C   UNL     1      47.640   6.238  13.279  0.00  0.00    +0.000 A 
ATOM     25  S   UNL     1      47.121   7.394  12.137  0.00  0.00    +0.000 S 
ATOM     26  C   UNL     1      45.588   6.666  12.015  0.00  0.00    +0.000 A 
ATOM     27  N   UNL     1      44.626   7.187  11.207  0.00  0.00    +0.000 NA
ATOM     28  C   UNL     1      43.503   6.548  11.233  0.00  0.00    +0.000 A 
ATOM     29  N   UNL     1      43.258   5.431  11.987  0.00  0.00    +0.000 N 
ATOM     30  C   UNL     1      44.208   4.852  12.792  0.00  0.00    +0.000 A 
ATOM     31  O   UNL     1      43.971   3.821  13.415  0.00  0.00    +0.000 OA
ATOM     32  C   UNL     1      45.482   5.543  12.815  0.00  0.00    +0.000 A 
ATOM     33  H   UNL     1      42.363   4.967  11.953  0.00  0.00    +0.000 HD
ENDBRANCH  20  23
ENDBRANCH  18  19
ENDBRANCH   4  18
TORSDOF 8
ENDMDL
MODEL 8
REMARK VINA RESULT:    -6.459      5.977      7.950
REMARK INTER + INTRA:         -10.652
REMARK INTER:                  -9.671
REMARK INTRA:                  -0.982
REMARK UNBOUND:                -1.173
REMARK  Name = 
REMARK  8 active torsions:
REMARK  status: ('A' for Active; 'I' for Inactive)
REMARK    1  A    between atoms: C_2  and  C_3
REMARK    2  A    between atoms: C_7  and  C_8
REMARK    3  A    between atoms: C_8  and  O_9
REMARK    4  A    between atoms: O_9  and  C_10
REMARK    5  A    between atoms: C_10  and  C_11
REMARK    6  A    between atoms: C_14  and  C_15
REMARK    7  A    between atoms: C_15  and  N_16
REMARK    8  A    between atoms: C_17  and  C_19
REMARK                            x       y       z     vdW  Elec       q    Type
REMARK                         _______ _______ _______ _____ _____    ______ ____
ROOT
ATOM      1  C   UNL     1      48.745   3.250  17.029  0.00  0.00    +0.000 A 
ATOM      2  C   UNL     1      49.396   2.068  16.645  0.00  0.00    +0.000 A 
ATOM      3  C   UNL     1      50.726   1.831  17.008  0.00  0.00    +0.000 A 
ATOM      4  C   UNL     1      51.430   2.768  17.775  0.00  0.00    +0.000 A 
ATOM      5  C   UNL     1      50.789   3.962  18.133  0.00  0.00    +0.000 A 
ATOM      6  C   UNL     1      49.459   4.198  17.770  0.00  0.00    +0.000 A 
ENDROOT
BRANCH   1   7
ATOM      7  C   UNL     1      47.311   3.489  16.633  0.00  0.00    +0.000 C 
BRANCH   7   8
ATOM      8  O   UNL     1      47.235   3.531  15.212  0.00  0.00    +0.000 OA
BRANCH   8   9
ATOM      9  C   UNL     1      47.259   4.870  14.717  0.00  0.00    +0.000 C 
BRANCH   9  14
ATOM     10  C   UNL     1      44.751   4.095  12.118  0.00  0.00    +0.000 A 
ATOM     11  C   UNL     1      44.850   5.138  11.205  0.00  0.00    +0.000 A 
ATOM     12  C   UNL     1      45.781   6.138  11.451  0.00  0.00    +0.000 A 
ATOM     13  C   UNL     1      46.575   6.065  12.592  0.00  0.00    +0.000 A 
ATOM     14  C   UNL     1      46.407   4.995  13.472  0.00  0.00    +0.000 A 
ATOM     15  N   UNL     1      45.514   4.001  13.235  0.00  0.00    +0.000 NA
BRANCH  10  17
ATOM     16  N   UNL     1      43.026   2.188  11.766  0.00  0.00    +0.000 NA
ATOM     17  C   UNL     1      43.809   3.032  11.908  0.00  0.00    +0.000 C 
ENDBRANCH  10  17
ENDBRANCH   9  14
ENDBRANCH   8   9
ENDBRANCH   7   8
ENDBRANCH   1   7
BRANCH   4  18
ATOM     18  C   UNL     1      52.858   2.519  18.193  0.00  0.00    +0.000 C 
BRANCH  18  19
ATOM     19  N   UNL     1      53.232   1.145  17.988  0.00  0.00    +0.000 N 
ATOM     20  C   UNL     1      54.164   0.527  18.782  0.00  0.00    +0.000 C 
ATOM     21  O   UNL     1      54.708   1.102  19.721  0.00  0.00    +0.000 OA
ATOM     22  H   UNL     1      53.006   0.741  17.085  0.00  0.00    +0.000 HD
BRANCH  20  23
ATOM     23  C   UNL     1      54.430  -0.887  18.488  0.00  0.00    +0.000 A 
ATOM     24  C   UNL     1      54.224  -1.849  19.468  0.00  0.00    +0.000 A 
ATOM     25  S   UNL     1      54.535  -3.440  18.936  0.00  0.00    +0.000 S 
ATOM     26  C   UNL     1      55.004  -2.893  17.395  0.00  0.00    +0.000 A 
ATOM     27  N   UNL     1      55.425  -3.765  16.439  0.00  0.00    +0.000 NA
ATOM     28  C   UNL     1      55.775  -3.208  15.327  0.00  0.00    +0.000 A 
ATOM     29  N   UNL     1      55.735  -1.862  15.080  0.00  0.00    +0.000 N 
ATOM     30  C   UNL     1      55.287  -0.948  16.004  0.00  0.00    +0.000 A 
ATOM     31  O   UNL     1      55.215   0.247  15.732  0.00  0.00    +0.000 OA
ATOM     32  C   UNL     1      54.901  -1.519  17.279  0.00  0.00    +0.000 A 
ATOM     33  H   UNL     1      56.007  -1.489  14.183  0.00  0.00    +0.000 HD
ENDBRANCH  20  23
ENDBRANCH  18  19
ENDBRANCH   4  18
TORSDOF 8
ENDMDL
MODEL 9
REMARK VINA RESULT:    -6.423      2.833      3.618
REMARK INTER + INTRA:         -10.600
REMARK INTER:                  -9.883
REMARK INTRA:                  -0.717
REMARK UNBOUND:                -1.173
REMARK  Name = 
REMARK  8 active torsions:
REMARK  status: ('A' for Active; 'I' for Inactive)
REMARK    1  A    between atoms: C_2  and  C_3
REMARK    2  A    between atoms: C_7  and  C_8
REMARK    3  A    between atoms: C_8  and  O_9
REMARK    4  A    between atoms: O_9  and  C_10
REMARK    5  A    between atoms: C_10  and  C_11
REMARK    6  A    between atoms: C_14  and  C_15
REMARK    7  A    between atoms: C_15  and  N_16
REMARK    8  A    between atoms: C_17  and  C_19
REMARK                            x       y       z     vdW  Elec       q    Type
REMARK                         _______ _______ _______ _____ _____    ______ ____
ROOT
ATOM      1  C   UNL     1      47.084   5.571  13.517  0.00  0.00    +0.000 A 
ATOM      2  C   UNL     1      47.165   4.978  14.785  0.00  0.00    +0.000 A 
ATOM      3  C   UNL     1      48.040   5.477  15.756  0.00  0.00    +0.000 A 
ATOM      4  C   UNL     1      48.845   6.590  15.481  0.00  0.00    +0.000 A 
ATOM      5  C   UNL     1      48.787   7.163  14.204  0.00  0.00    +0.000 A 
ATOM      6  C   UNL     1      47.911   6.664  13.234  0.00  0.00    +0.000 A 
ENDROOT
BRANCH   1   7
ATOM      7  C   UNL     1      46.134   5.025  12.483  0.00  0.00    +0.000 C 
BRANCH   7   8
ATOM      8  O   UNL     1      45.860   6.053  11.535  0.00  0.00    +0.000 OA
BRANCH   8   9
ATOM      9  C   UNL     1      44.651   5.805  10.816  0.00  0.00    +0.000 C 
BRANCH   9  14
ATOM     10  C   UNL     1      45.477   3.326   8.206  0.00  0.00    +0.000 A 
ATOM     11  C   UNL     1      44.889   2.143   8.638  0.00  0.00    +0.000 A 
ATOM     12  C   UNL     1      44.188   2.161   9.837  0.00  0.00    +0.000 A 
ATOM     13  C   UNL     1      44.102   3.347  10.559  0.00  0.00    +0.000 A 
ATOM     14  C   UNL     1      44.733   4.491  10.069  0.00  0.00    +0.000 A 
ATOM     15  N   UNL     1      45.404   4.493   8.890  0.00  0.00    +0.000 NA
BRANCH  10  17
ATOM     16  N   UNL     1      46.822   3.372   5.986  0.00  0.00    +0.000 NA
ATOM     17  C   UNL     1      46.207   3.364   6.969  0.00  0.00    +0.000 C 
ENDBRANCH  10  17
ENDBRANCH   9  14
ENDBRANCH   8   9
ENDBRANCH   7   8
ENDBRANCH   1   7
BRANCH   4  18
ATOM     18  C   UNL     1      49.778   7.153  16.524  0.00  0.00    +0.000 C 
BRANCH  18  19
ATOM     19  N   UNL     1      50.766   6.185  16.922  0.00  0.00    +0.000 N 
ATOM     20  C   UNL     1      50.712   5.563  18.143  0.00  0.00    +0.000 C 
ATOM     21  O   UNL     1      49.811   5.780  18.949  0.00  0.00    +0.000 OA
ATOM     22  H   UNL     1      51.639   6.186  16.406  0.00  0.00    +0.000 HD
BRANCH  20  23
ATOM     23  C   UNL     1      51.760   4.571  18.412  0.00  0.00    +0.000 A 
ATOM     24  C   UNL     1      52.910   4.944  19.094  0.00  0.00    +0.000 A 
ATOM     25  S   UNL     1      53.994   3.654  19.360  0.00  0.00    +0.000 S 
ATOM     26  C   UNL     1      52.988   2.563  18.528  0.00  0.00    +0.000 A 
ATOM     27  N   UNL     1      53.349   1.262  18.362  0.00  0.00    +0.000 NA
ATOM     28  C   UNL     1      52.502   0.555  17.688  0.00  0.00    +0.000 A 
ATOM     29  N   UNL     1      51.325   1.029  17.173  0.00  0.00    +0.000 N 
ATOM     30  C   UNL     1      50.905   2.326  17.343  0.00  0.00    +0.000 A 
ATOM     31  O   UNL     1      49.820   2.704  16.912  0.00  0.00    +0.000 OA
ATOM     32  C   UNL     1      51.830   3.169  18.076  0.00  0.00    +0.000 A 
ATOM     33  H   UNL     1      50.697   0.422  16.668  0.00  0.00    +0.000 HD
ENDBRANCH  20  23
ENDBRANCH  18  19
ENDBRANCH   4  18
TORSDOF 8
ENDMDL
