MODEL 1
REMARK VINA RESULT:    -7.613      0.000      0.000
REMARK INTER + INTRA:          -9.750
REMARK INTER:                  -9.171
REMARK INTRA:                  -0.579
REMARK UNBOUND:                -0.579
REMARK  Name = 
REMARK  4 active torsions:
REMARK  status: ('A' for Active; 'I' for Inactive)
REMARK    1  A    between atoms: N_1  and  C_2
REMARK    2  A    between atoms: C_2  and  C_3
REMARK    3  A    between atoms: C_6  and  C_7
REMARK    4  A    between atoms: C_7  and  N_8
REMARK                            x       y       z     vdW  Elec       q    Type
REMARK                         _______ _______ _______ _____ _____    ______ ____
ROOT
ATOM      1  C   UNL     1      46.814   2.152   7.427  0.00  0.00    +0.000 A 
ATOM      2  C   UNL     1      45.925   1.565   8.339  0.00  0.00    +0.000 A 
ATOM      3  C   UNL     1      44.985   2.338   9.023  0.00  0.00    +0.000 A 
ATOM      4  C   UNL     1      44.918   3.723   8.822  0.00  0.00    +0.000 A 
ATOM      5  C   UNL     1      45.806   4.311   7.909  0.00  0.00    +0.000 A 
ATOM      6  C   UNL     1      46.740   3.534   7.216  0.00  0.00    +0.000 A 
ENDROOT
BRANCH   1   7
ATOM      7  C   UNL     1      47.833   1.309   6.705  0.00  0.00    +0.000 C 
BRANCH   7   8
ATOM      8  N   UNL     1      48.388   2.014   5.555  0.00  0.00    +0.000 NA
ATOM      9  H   UNL     1      49.339   1.691   5.391  0.00  0.00    +0.000 HD
ATOM     10  H   UNL     1      48.453   3.006   5.781  0.00  0.00    +0.000 HD
ENDBRANCH   7   8
ENDBRANCH   1   7
BRANCH   4  11
ATOM     11  C   UNL     1      43.911   4.565   9.559  0.00  0.00    +0.000 C 
BRANCH  11  12
ATOM     12  N   UNL     1      44.110   4.555  11.006  0.00  0.00    +0.000 N 
ATOM     13  C   UNL     1      43.354   3.817  11.884  0.00  0.00    +0.000 A 
ATOM     14  C   UNL     1      43.917   3.923  13.137  0.00  0.00    +0.000 A 
ATOM     15  C   UNL     1      45.071   4.748  13.018  0.00  0.00    +0.000 A 
ATOM     16  C   UNL     1      46.049   5.183  13.920  0.00  0.00    +0.000 A 
ATOM     17  N   UNL     1      47.072   5.972  13.509  0.00  0.00    +0.000 NA
ATOM     18  C   UNL     1      47.123   6.340  12.212  0.00  0.00    +0.000 A 
ATOM     19  C   UNL     1      46.203   5.970  11.243  0.00  0.00    +0.000 A 
ATOM     20  C   UNL     1      45.163   5.144  11.681  0.00  0.00    +0.000 A 
ENDBRANCH  11  12
ENDBRANCH   4  11
TORSDOF 4
ENDMDL
MODEL 2
REMARK VINA RESULT:    -7.538      1.315      1.872
REMARK INTER + INTRA:          -9.659
REMARK INTER:                  -9.157
REMARK INTRA:                  -0.501
REMARK UNBOUND:                -0.579
REMARK  Name = 
REMARK  4 active torsions:
REMARK  status: ('A' for Active; 'I' for Inactive)
REMARK    1  A    between atoms: N_1  and  C_2
REMARK    2  A    between atoms: C_2  and  C_3
REMARK    3  A    between atoms: C_6  and  C_7
REMARK    4  A    between atoms: C_7  and  N_8
REMARK                            x       y       z     vdW  Elec       q    Type
REMARK                         _______ _______ _______ _____ _____    ______ ____
ROOT
ATOM      1  C   UNL     1      46.583   2.769   6.913  0.00  0.00    +0.000 A 
ATOM      2  C   UNL     1      46.080   4.022   7.290  0.00  0.00    +0.000 A 
ATOM      3  C   UNL     1      45.312   4.168   8.446  0.00  0.00    +0.000 A 
ATOM      4  C   UNL     1      45.018   3.059   9.251  0.00  0.00    +0.000 A 
ATOM      5  C   UNL     1      45.523   1.806   8.876  0.00  0.00    +0.000 A 
ATOM      6  C   UNL     1      46.300   1.662   7.722  0.00  0.00    +0.000 A 
ENDROOT
BRANCH   1   7
ATOM      7  C   UNL     1      47.399   2.622   5.654  0.00  0.00    +0.000 C 
BRANCH   7   8
ATOM      8  N   UNL     1      48.484   1.663   5.831  0.00  0.00    +0.000 NA
ATOM      9  H   UNL     1      48.203   0.764   5.448  0.00  0.00    +0.000 HD
ATOM     10  H   UNL     1      48.632   1.521   6.830  0.00  0.00    +0.000 HD
ENDBRANCH   7   8
ENDBRANCH   1   7
BRANCH   4  11
ATOM     11  C   UNL     1      44.187   3.206  10.499  0.00  0.00    +0.000 C 
BRANCH  11  12
ATOM     12  N   UNL     1      44.917   3.831  11.599  0.00  0.00    +0.000 N 
ATOM     13  C   UNL     1      45.717   3.146  12.481  0.00  0.00    +0.000 A 
ATOM     14  C   UNL     1      46.367   4.061  13.279  0.00  0.00    +0.000 A 
ATOM     15  C   UNL     1      45.958   5.359  12.858  0.00  0.00    +0.000 A 
ATOM     16  C   UNL     1      46.294   6.658  13.258  0.00  0.00    +0.000 A 
ATOM     17  N   UNL     1      45.744   7.737  12.650  0.00  0.00    +0.000 NA
ATOM     18  C   UNL     1      44.855   7.534  11.654  0.00  0.00    +0.000 A 
ATOM     19  C   UNL     1      44.452   6.291  11.189  0.00  0.00    +0.000 A 
ATOM     20  C   UNL     1      45.041   5.190  11.819  0.00  0.00    +0.000 A 
ENDBRANCH  11  12
ENDBRANCH   4  11
TORSDOF 4
ENDMDL
MODEL 3
REMARK VINA RESULT:    -7.524      1.104      2.015
REMARK INTER + INTRA:          -9.642
REMARK INTER:                  -9.115
REMARK INTRA:                  -0.527
REMARK UNBOUND:                -0.579
REMARK  Name = 
REMARK  4 active torsions:
REMARK  status: ('A' for Active; 'I' for Inactive)
REMARK    1  A    between atoms: N_1  and  C_2
REMARK    2  A    between atoms: C_2  and  C_3
REMARK    3  A    between atoms: C_6  and  C_7
REMARK    4  A    between atoms: C_7  and  N_8
REMARK                            x       y       z     vdW  Elec       q    Type
REMARK                         _______ _______ _______ _____ _____    ______ ____
ROOT
ATOM      1  C   UNL     1      46.495   2.320   7.524  0.00  0.00    +0.000 A 
ATOM      2  C   UNL     1      46.405   3.720   7.530  0.00  0.00    +0.000 A 
ATOM      3  C   UNL     1      45.589   4.382   8.449  0.00  0.00    +0.000 A 
ATOM      4  C   UNL     1      44.833   3.659   9.382  0.00  0.00    +0.000 A 
ATOM      5  C   UNL     1      44.924   2.260   9.379  0.00  0.00    +0.000 A 
ATOM      6  C   UNL     1      45.749   1.598   8.464  0.00  0.00    +0.000 A 
ENDROOT
BRANCH   1   7
ATOM      7  C   UNL     1      47.367   1.616   6.517  0.00  0.00    +0.000 C 
BRANCH   7   8
ATOM      8  N   UNL     1      48.512   2.438   6.138  0.00  0.00    +0.000 NA
ATOM      9  H   UNL     1      49.345   1.856   6.105  0.00  0.00    +0.000 HD
ATOM     10  H   UNL     1      48.670   3.132   6.867  0.00  0.00    +0.000 HD
ENDBRANCH   7   8
ENDBRANCH   1   7
BRANCH   4  11
ATOM     11  C   UNL     1      43.948   4.366  10.375  0.00  0.00    +0.000 C 
BRANCH  11  12
ATOM     12  N   UNL     1      44.693   5.226  11.290  0.00  0.00    +0.000 N 
ATOM     13  C   UNL     1      44.515   6.585  11.390  0.00  0.00    +0.000 A 
ATOM     14  C   UNL     1      45.261   7.043  12.453  0.00  0.00    +0.000 A 
ATOM     15  C   UNL     1      45.912   5.918  13.034  0.00  0.00    +0.000 A 
ATOM     16  C   UNL     1      46.760   5.751  14.136  0.00  0.00    +0.000 A 
ATOM     17  N   UNL     1      47.227   4.524  14.474  0.00  0.00    +0.000 NA
ATOM     18  C   UNL     1      46.867   3.466  13.719  0.00  0.00    +0.000 A 
ATOM     19  C   UNL     1      46.040   3.526  12.607  0.00  0.00    +0.000 A 
ATOM     20  C   UNL     1      45.556   4.797  12.282  0.00  0.00    +0.000 A 
ENDBRANCH  11  12
ENDBRANCH   4  11
TORSDOF 4
ENDMDL
MODEL 4
REMARK VINA RESULT:    -5.412      2.609      4.399
REMARK INTER + INTRA:          -7.098
REMARK INTER:                  -6.629
REMARK INTRA:                  -0.469
REMARK UNBOUND:                -0.579
REMARK  Name = 
REMARK  4 active torsions:
REMARK  status: ('A' for Active; 'I' for Inactive)
REMARK    1  A    between atoms: N_1  and  C_2
REMARK    2  A    between atoms: C_2  and  C_3
REMARK    3  A    between atoms: C_6  and  C_7
REMARK    4  A    between atoms: C_7  and  N_8
REMARK                            x       y       z     vdW  Elec       q    Type
REMARK                         _______ _______ _______ _____ _____    ______ ____
ROOT
ATOM      1  C   UNL     1      44.901   3.281   9.805  0.00  0.00    +0.000 A 
ATOM      2  C   UNL     1      45.260   4.596   9.478  0.00  0.00    +0.000 A 
ATOM      3  C   UNL     1      45.425   5.562  10.473  0.00  0.00    +0.000 A 
ATOM      4  C   UNL     1      45.225   5.239  11.822  0.00  0.00    +0.000 A 
ATOM      5  C   UNL     1      44.869   3.923  12.149  0.00  0.00    +0.000 A 
ATOM      6  C   UNL     1      44.713   2.953  11.154  0.00  0.00    +0.000 A 
ENDROOT
BRANCH   1   7
ATOM      7  C   UNL     1      44.712   2.250   8.721  0.00  0.00    +0.000 C 
BRANCH   7   8
ATOM      8  N   UNL     1      45.918   1.452   8.529  0.00  0.00    +0.000 NA
ATOM      9  H   UNL     1      45.804   0.866   7.706  0.00  0.00    +0.000 HD
ATOM     10  H   UNL     1      46.021   0.822   9.324  0.00  0.00    +0.000 HD
ENDBRANCH   7   8
ENDBRANCH   1   7
BRANCH   4  11
ATOM     11  C   UNL     1      45.397   6.276  12.901  0.00  0.00    +0.000 C 
BRANCH  11  12
ATOM     12  N   UNL     1      46.573   7.117  12.698  0.00  0.00    +0.000 N 
ATOM     13  C   UNL     1      47.865   6.650  12.694  0.00  0.00    +0.000 A 
ATOM     14  C   UNL     1      48.698   7.681  12.320  0.00  0.00    +0.000 A 
ATOM     15  C   UNL     1      47.882   8.821  12.074  0.00  0.00    +0.000 A 
ATOM     16  C   UNL     1      48.145  10.127  11.644  0.00  0.00    +0.000 A 
ATOM     17  N   UNL     1      47.140  11.021  11.477  0.00  0.00    +0.000 NA
ATOM     18  C   UNL     1      45.876  10.628  11.744  0.00  0.00    +0.000 A 
ATOM     19  C   UNL     1      45.512   9.363  12.180  0.00  0.00    +0.000 A 
ATOM     20  C   UNL     1      46.560   8.450  12.332  0.00  0.00    +0.000 A 
ENDBRANCH  11  12
ENDBRANCH   4  11
TORSDOF 4
ENDMDL
MODEL 5
REMARK VINA RESULT:    -5.383      1.724      3.077
REMARK INTER + INTRA:          -7.063
REMARK INTER:                  -6.512
REMARK INTRA:                  -0.551
REMARK UNBOUND:                -0.579
REMARK  Name = 
REMARK  4 active torsions:
REMARK  status: ('A' for Active; 'I' for Inactive)
REMARK    1  A    between atoms: N_1  and  C_2
REMARK    2  A    between atoms: C_2  and  C_3
REMARK    3  A    between atoms: C_6  and  C_7
REMARK    4  A    between atoms: C_7  and  N_8
REMARK                            x       y       z     vdW  Elec       q    Type
REMARK                         _______ _______ _______ _____ _____    ______ ____
ROOT
ATOM      1  C   UNL     1      45.221   3.407   8.648  0.00  0.00    +0.000 A 
ATOM      2  C   UNL     1      44.300   3.092   9.657  0.00  0.00    +0.000 A 
ATOM      3  C   UNL     1      44.057   3.977  10.708  0.00  0.00    +0.000 A 
ATOM      4  C   UNL     1      44.740   5.199  10.784  0.00  0.00    +0.000 A 
ATOM      5  C   UNL     1      45.660   5.516   9.774  0.00  0.00    +0.000 A 
ATOM      6  C   UNL     1      45.895   4.633   8.716  0.00  0.00    +0.000 A 
ENDROOT
BRANCH   1   7
ATOM      7  C   UNL     1      45.485   2.436   7.526  0.00  0.00    +0.000 C 
BRANCH   7   8
ATOM      8  N   UNL     1      46.845   1.911   7.585  0.00  0.00    +0.000 NA
ATOM      9  H   UNL     1      46.828   0.914   7.386  0.00  0.00    +0.000 HD
ATOM     10  H   UNL     1      47.192   2.012   8.538  0.00  0.00    +0.000 HD
ENDBRANCH   7   8
ENDBRANCH   1   7
BRANCH   4  11
ATOM     11  C   UNL     1      44.487   6.159  11.917  0.00  0.00    +0.000 C 
BRANCH  11  12
ATOM     12  N   UNL     1      45.717   6.628  12.550  0.00  0.00    +0.000 N 
ATOM     13  C   UNL     1      46.231   7.893  12.395  0.00  0.00    +0.000 A 
ATOM     14  C   UNL     1      47.300   8.035  13.252  0.00  0.00    +0.000 A 
ATOM     15  C   UNL     1      47.438   6.812  13.969  0.00  0.00    +0.000 A 
ATOM     16  C   UNL     1      48.303   6.372  14.977  0.00  0.00    +0.000 A 
ATOM     17  N   UNL     1      48.187   5.126  15.498  0.00  0.00    +0.000 NA
ATOM     18  C   UNL     1      47.224   4.312  15.017  0.00  0.00    +0.000 A 
ATOM     19  C   UNL     1      46.323   4.649  14.017  0.00  0.00    +0.000 A 
ATOM     20  C   UNL     1      46.449   5.943  13.502  0.00  0.00    +0.000 A 
ENDBRANCH  11  12
ENDBRANCH   4  11
TORSDOF 4
ENDMDL
MODEL 6
REMARK VINA RESULT:    -5.331      3.708      7.427
REMARK INTER + INTRA:          -7.000
REMARK INTER:                  -6.472
REMARK INTRA:                  -0.528
REMARK UNBOUND:                -0.579
REMARK  Name = 
REMARK  4 active torsions:
REMARK  status: ('A' for Active; 'I' for Inactive)
REMARK    1  A    between atoms: N_1  and  C_2
REMARK    2  A    between atoms: C_2  and  C_3
REMARK    3  A    between atoms: C_6  and  C_7
REMARK    4  A    between atoms: C_7  and  N_8
REMARK                            x       y       z     vdW  Elec       q    Type
REMARK                         _______ _______ _______ _____ _____    ______ ____
ROOT
ATOM      1  C   UNL     1      48.045   5.033  17.642  0.00  0.00    +0.000 A 
ATOM      2  C   UNL     1      48.647   6.090  16.944  0.00  0.00    +0.000 A 
ATOM      3  C   UNL     1      48.490   6.216  15.562  0.00  0.00    +0.000 A 
ATOM      4  C   UNL     1      47.734   5.282  14.842  0.00  0.00    +0.000 A 
ATOM      5  C   UNL     1      47.130   4.227  15.540  0.00  0.00    +0.000 A 
ATOM      6  C   UNL     1      47.279   4.106  16.926  0.00  0.00    +0.000 A 
ENDROOT
BRANCH   1   7
ATOM      7  C   UNL     1      48.234   4.899  19.132  0.00  0.00    +0.000 C 
BRANCH   7   8
ATOM      8  N   UNL     1      48.389   3.503  19.525  0.00  0.00    +0.000 NA
ATOM      9  H   UNL     1      47.780   3.307  20.315  0.00  0.00    +0.000 HD
ATOM     10  H   UNL     1      49.344   3.360  19.851  0.00  0.00    +0.000 HD
ENDBRANCH   7   8
ENDBRANCH   1   7
BRANCH   4  11
ATOM     11  C   UNL     1      47.563   5.409  13.351  0.00  0.00    +0.000 C 
BRANCH  11  12
ATOM     12  N   UNL     1      46.208   5.797  12.964  0.00  0.00    +0.000 N 
ATOM     13  C   UNL     1      45.780   7.098  12.854  0.00  0.00    +0.000 A 
ATOM     14  C   UNL     1      44.510   7.092  12.322  0.00  0.00    +0.000 A 
ATOM     15  C   UNL     1      44.152   5.735  12.085  0.00  0.00    +0.000 A 
ATOM     16  C   UNL     1      43.024   5.111  11.539  0.00  0.00    +0.000 A 
ATOM     17  N   UNL     1      42.966   3.762  11.418  0.00  0.00    +0.000 NA
ATOM     18  C   UNL     1      44.016   3.029  11.846  0.00  0.00    +0.000 A 
ATOM     19  C   UNL     1      45.173   3.549  12.406  0.00  0.00    +0.000 A 
ATOM     20  C   UNL     1      45.222   4.943  12.509  0.00  0.00    +0.000 A 
ENDBRANCH  11  12
ENDBRANCH   4  11
TORSDOF 4
ENDMDL
MODEL 7
REMARK VINA RESULT:    -5.211      3.199      5.676
REMARK INTER + INTRA:          -6.856
REMARK INTER:                  -6.383
REMARK INTRA:                  -0.473
REMARK UNBOUND:                -0.579
REMARK  Name = 
REMARK  4 active torsions:
REMARK  status: ('A' for Active; 'I' for Inactive)
REMARK    1  A    between atoms: N_1  and  C_2
REMARK    2  A    between atoms: C_2  and  C_3
REMARK    3  A    between atoms: C_6  and  C_7
REMARK    4  A    between atoms: C_7  and  N_8
REMARK                            x       y       z     vdW  Elec       q    Type
REMARK                         _______ _______ _______ _____ _____    ______ ____
ROOT
ATOM      1  C   UNL     1      44.601   4.078  11.301  0.00  0.00    +0.000 A 
ATOM      2  C   UNL     1      44.951   5.156  10.476  0.00  0.00    +0.000 A 
ATOM      3  C   UNL     1      45.477   6.331  11.017  0.00  0.00    +0.000 A 
ATOM      4  C   UNL     1      45.656   6.460  12.401  0.00  0.00    +0.000 A 
ATOM      5  C   UNL     1      45.309   5.381  13.226  0.00  0.00    +0.000 A 
ATOM      6  C   UNL     1      44.791   4.201  12.682  0.00  0.00    +0.000 A 
ENDROOT
BRANCH   1   7
ATOM      7  C   UNL     1      44.021   2.820  10.705  0.00  0.00    +0.000 C 
BRANCH   7   8
ATOM      8  N   UNL     1      43.030   2.220  11.592  0.00  0.00    +0.000 NA
ATOM      9  H   UNL     1      43.098   1.207  11.533  0.00  0.00    +0.000 HD
ATOM     10  H   UNL     1      42.100   2.469  11.257  0.00  0.00    +0.000 HD
ENDBRANCH   7   8
ENDBRANCH   1   7
BRANCH   4  11
ATOM     11  C   UNL     1      46.219   7.725  12.994  0.00  0.00    +0.000 C 
BRANCH  11  12
ATOM     12  N   UNL     1      47.623   7.938  12.652  0.00  0.00    +0.000 N 
ATOM     13  C   UNL     1      48.591   6.966  12.723  0.00  0.00    +0.000 A 
ATOM     14  C   UNL     1      49.753   7.469  12.181  0.00  0.00    +0.000 A 
ATOM     15  C   UNL     1      49.482   8.799  11.750  0.00  0.00    +0.000 A 
ATOM     16  C   UNL     1      50.241   9.784  11.108  0.00  0.00    +0.000 A 
ATOM     17  N   UNL     1      49.700  10.986  10.796  0.00  0.00    +0.000 NA
ATOM     18  C   UNL     1      48.413  11.221  11.127  0.00  0.00    +0.000 A 
ATOM     19  C   UNL     1      47.579  10.316  11.768  0.00  0.00    +0.000 A 
ATOM     20  C   UNL     1      48.150   9.076  12.069  0.00  0.00    +0.000 A 
ENDBRANCH  11  12
ENDBRANCH   4  11
TORSDOF 4
ENDMDL
MODEL 8
REMARK VINA RESULT:    -5.203      2.239      3.930
REMARK INTER + INTRA:          -6.846
REMARK INTER:                  -6.279
REMARK INTRA:                  -0.567
REMARK UNBOUND:                -0.579
REMARK  Name = 
REMARK  4 active torsions:
REMARK  status: ('A' for Active; 'I' for Inactive)
REMARK    1  A    between atoms: N_1  and  C_2
REMARK    2  A    between atoms: C_2  and  C_3
REMARK    3  A    between atoms: C_6  and  C_7
REMARK    4  A    between atoms: C_7  and  N_8
REMARK                            x       y       z     vdW  Elec       q    Type
REMARK                         _______ _______ _______ _____ _____    ______ ____
ROOT
ATOM      1  C   UNL     1      44.684   3.088  10.103  0.00  0.00    +0.000 A 
ATOM      2  C   UNL     1      44.979   2.849  11.453  0.00  0.00    +0.000 A 
ATOM      3  C   UNL     1      44.997   3.893  12.379  0.00  0.00    +0.000 A 
ATOM      4  C   UNL     1      44.729   5.209  11.975  0.00  0.00    +0.000 A 
ATOM      5  C   UNL     1      44.432   5.448  10.626  0.00  0.00    +0.000 A 
ATOM      6  C   UNL     1      44.405   4.400   9.701  0.00  0.00    +0.000 A 
ENDROOT
BRANCH   1   7
ATOM      7  C   UNL     1      44.683   1.953   9.111  0.00  0.00    +0.000 C 
BRANCH   7   8
ATOM      8  N   UNL     1      45.972   1.832   8.440  0.00  0.00    +0.000 NA
ATOM      9  H   UNL     1      46.221   0.848   8.367  0.00  0.00    +0.000 HD
ATOM     10  H   UNL     1      46.685   2.270   9.022  0.00  0.00    +0.000 HD
ENDBRANCH   7   8
ENDBRANCH   1   7
BRANCH   4  11
ATOM     11  C   UNL     1      44.750   6.343  12.966  0.00  0.00    +0.000 C 
BRANCH  11  12
ATOM     12  N   UNL     1      45.567   7.470  12.524  0.00  0.00    +0.000 N 
ATOM     13  C   UNL     1      45.067   8.714  12.223  0.00  0.00    +0.000 A 
ATOM     14  C   UNL     1      46.126   9.565  11.999  0.00  0.00    +0.000 A 
ATOM     15  C   UNL     1      47.323   8.814  12.183  0.00  0.00    +0.000 A 
ATOM     16  C   UNL     1      48.685   9.132  12.125  0.00  0.00    +0.000 A 
ATOM     17  N   UNL     1      49.629   8.191  12.368  0.00  0.00    +0.000 NA
ATOM     18  C   UNL     1      49.230   6.935  12.658  0.00  0.00    +0.000 A 
ATOM     19  C   UNL     1      47.909   6.518  12.734  0.00  0.00    +0.000 A 
ATOM     20  C   UNL     1      46.949   7.505  12.494  0.00  0.00    +0.000 A 
ENDBRANCH  11  12
ENDBRANCH   4  11
TORSDOF 4
ENDMDL
MODEL 9
REMARK VINA RESULT:    -4.944      3.316      5.592
REMARK INTER + INTRA:          -6.534
REMARK INTER:                  -6.029
REMARK INTRA:                  -0.505
REMARK UNBOUND:                -0.579
REMARK  Name = 
REMARK  4 active torsions:
REMARK  status: ('A' for Active; 'I' for Inactive)
REMARK    1  A    between atoms: N_1  and  C_2
REMARK    2  A    between atoms: C_2  and  C_3
REMARK    3  A    between atoms: C_6  and  C_7
REMARK    4  A    between atoms: C_7  and  N_8
REMARK                            x       y       z     vdW  Elec       q    Type
REMARK                         _______ _______ _______ _____ _____    ______ ____
ROOT
ATOM      1  C   UNL     1      44.585   4.063  11.358  0.00  0.00    +0.000 A 
ATOM      2  C   UNL     1      44.440   5.310  10.732  0.00  0.00    +0.000 A 
ATOM      3  C   UNL     1      45.027   6.455  11.272  0.00  0.00    +0.000 A 
ATOM      4  C   UNL     1      45.768   6.386  12.459  0.00  0.00    +0.000 A 
ATOM      5  C   UNL     1      45.916   5.139  13.084  0.00  0.00    +0.000 A 
ATOM      6  C   UNL     1      45.336   3.990  12.538  0.00  0.00    +0.000 A 
ENDROOT
BRANCH   1   7
ATOM      7  C   UNL     1      43.934   2.836  10.774  0.00  0.00    +0.000 C 
BRANCH   7   8
ATOM      8  N   UNL     1      43.064   2.182  11.745  0.00  0.00    +0.000 NA
ATOM      9  H   UNL     1      42.096   2.287  11.452  0.00  0.00    +0.000 HD
ATOM     10  H   UNL     1      43.152   2.665  12.639  0.00  0.00    +0.000 HD
ENDBRANCH   7   8
ENDBRANCH   1   7
BRANCH   4  11
ATOM     11  C   UNL     1      46.402   7.618  13.050  0.00  0.00    +0.000 C 
BRANCH  11  12
ATOM     12  N   UNL     1      47.855   7.636  12.903  0.00  0.00    +0.000 N 
ATOM     13  C   UNL     1      48.508   7.762  11.701  0.00  0.00    +0.000 A 
ATOM     14  C   UNL     1      49.855   7.901  11.951  0.00  0.00    +0.000 A 
ATOM     15  C   UNL     1      50.032   7.869  13.364  0.00  0.00    +0.000 A 
ATOM     16  C   UNL     1      51.145   7.992  14.204  0.00  0.00    +0.000 A 
ATOM     17  N   UNL     1      51.008   7.939  15.551  0.00  0.00    +0.000 NA
ATOM     18  C   UNL     1      49.775   7.754  16.069  0.00  0.00    +0.000 A 
ATOM     19  C   UNL     1      48.613   7.615  15.324  0.00  0.00    +0.000 A 
ATOM     20  C   UNL     1      48.772   7.687  13.937  0.00  0.00    +0.000 A 
ENDBRANCH  11  12
ENDBRANCH   4  11
TORSDOF 4
ENDMDL
