MODEL 1
REMARK VINA RESULT:    -8.712      0.000      0.000
REMARK INTER + INTRA:         -13.179
REMARK INTER:                 -12.531
REMARK INTRA:                  -0.648
REMARK UNBOUND:                -0.648
REMARK  Name = 
REMARK  8 active torsions:
REMARK  status: ('A' for Active; 'I' for Inactive)
REMARK    1  A    between atoms: C_2  and  C_4
REMARK    2  A    between atoms: C_7  and  N_8
REMARK    3  A    between atoms: N_8  and  C_9
REMARK    4  A    between atoms: C_9  and  C_10
REMARK    5  A    between atoms: C_10  and  C_11
REMARK    6  A    between atoms: C_15  and  C_16
REMARK    7  A    between atoms: C_21  and  C_22
REMARK    8  A    between atoms: C_22  and  O_23
REMARK                            x       y       z     vdW  Elec       q    Type
REMARK                         _______ _______ _______ _____ _____    ______ ____
ROOT
ATOM      1  C   UNL     1      43.510   5.523  12.348  0.00  0.00    +0.000 C 
ENDROOT
BRANCH   1   2
ATOM      2  C   UNL     1      44.990   5.725  12.566  0.00  0.00    +0.000 A 
ATOM      3  C   UNL     1      45.719   6.548  11.705  0.00  0.00    +0.000 A 
ATOM      4  C   UNL     1      47.095   6.678  11.861  0.00  0.00    +0.000 A 
ATOM      5  C   UNL     1      47.743   6.022  12.911  0.00  0.00    +0.000 A 
ATOM      6  C   UNL     1      47.026   5.301  13.880  0.00  0.00    +0.000 A 
ATOM      7  C   UNL     1      45.648   5.121  13.654  0.00  0.00    +0.000 A 
BRANCH   6   8
ATOM      8  C   UNL     1      47.668   4.780  15.115  0.00  0.00    +0.000 A 
ATOM      9  N   UNL     1      47.480   3.447  15.322  0.00  0.00    +0.000 NA
ATOM     10  C   UNL     1      48.002   2.888  16.438  0.00  0.00    +0.000 A 
ATOM     11  C   UNL     1      48.727   3.588  17.380  0.00  0.00    +0.000 A 
ATOM     12  C   UNL     1      48.914   4.946  17.173  0.00  0.00    +0.000 A 
ATOM     13  C   UNL     1      48.356   5.583  16.048  0.00  0.00    +0.000 A 
BRANCH  13  14
ATOM     14  C   UNL     1      48.550   7.066  15.876  0.00  0.00    +0.000 C 
BRANCH  14  15
ATOM     15  O   UNL     1      48.208   7.792  17.053  0.00  0.00    +0.000 OA
ATOM     16  H   UNL     1      47.371   8.245  16.856  0.00  0.00    +0.000 HD
ENDBRANCH  14  15
ENDBRANCH  13  14
ENDBRANCH   6   8
ENDBRANCH   1   2
BRANCH   1  17
ATOM     17  C   UNL     1      43.228   4.393  11.354  0.00  0.00    +0.000 C 
BRANCH  17  18
ATOM     18  N   UNL     1      43.678   4.770  10.016  0.00  0.00    +0.000 N 
ATOM     19  H   UNL     1      42.986   5.245   9.444  0.00  0.00    +0.000 HD
BRANCH  18  23
ATOM     20  C   UNL     1      46.308   2.277   7.844  0.00  0.00    +0.000 A 
ATOM     21  C   UNL     1      45.413   1.704   8.748  0.00  0.00    +0.000 A 
ATOM     22  C   UNL     1      44.524   2.518   9.466  0.00  0.00    +0.000 A 
ATOM     23  C   UNL     1      44.485   3.903   9.272  0.00  0.00    +0.000 A 
ATOM     24  C   UNL     1      45.407   4.461   8.375  0.00  0.00    +0.000 A 
ATOM     25  C   UNL     1      46.315   3.661   7.669  0.00  0.00    +0.000 A 
BRANCH  20  27
ATOM     26  N   UNL     1      48.381   2.100   6.577  0.00  0.00    +0.000 N 
ATOM     27  C   UNL     1      47.289   1.454   7.089  0.00  0.00    +0.000 C 
ATOM     28  O   UNL     1      47.154   0.245   6.957  0.00  0.00    +0.000 OA
ATOM     29  H   UNL     1      49.091   1.514   6.156  0.00  0.00    +0.000 HD
ATOM     30  H   UNL     1      48.654   3.025   6.878  0.00  0.00    +0.000 HD
ENDBRANCH  20  27
ENDBRANCH  18  23
ENDBRANCH  17  18
ENDBRANCH   1  17
TORSDOF 8
ENDMDL
MODEL 2
REMARK VINA RESULT:    -8.461      2.300      3.925
REMARK INTER + INTRA:         -12.818
REMARK INTER:                 -12.189
REMARK INTRA:                  -0.629
REMARK UNBOUND:                -0.648
REMARK  Name = 
REMARK  8 active torsions:
REMARK  status: ('A' for Active; 'I' for Inactive)
REMARK    1  A    between atoms: C_2  and  C_4
REMARK    2  A    between atoms: C_7  and  N_8
REMARK    3  A    between atoms: N_8  and  C_9
REMARK    4  A    between atoms: C_9  and  C_10
REMARK    5  A    between atoms: C_10  and  C_11
REMARK    6  A    between atoms: C_15  and  C_16
REMARK    7  A    between atoms: C_21  and  C_22
REMARK    8  A    between atoms: C_22  and  O_23
REMARK                            x       y       z     vdW  Elec       q    Type
REMARK                         _______ _______ _______ _____ _____    ______ ____
ROOT
ATOM      1  C   UNL     1      43.272   4.990  12.533  0.00  0.00    +0.000 C 
ENDROOT
BRANCH   1   2
ATOM      2  C   UNL     1      44.714   5.332  12.817  0.00  0.00    +0.000 A 
ATOM      3  C   UNL     1      45.577   4.358  13.327  0.00  0.00    +0.000 A 
ATOM      4  C   UNL     1      46.887   4.691  13.656  0.00  0.00    +0.000 A 
ATOM      5  C   UNL     1      47.355   5.987  13.433  0.00  0.00    +0.000 A 
ATOM      6  C   UNL     1      46.563   6.954  12.792  0.00  0.00    +0.000 A 
ATOM      7  C   UNL     1      45.219   6.616  12.541  0.00  0.00    +0.000 A 
BRANCH   6   8
ATOM      8  C   UNL     1      47.111   8.264  12.354  0.00  0.00    +0.000 A 
ATOM      9  N   UNL     1      46.208   9.283  12.377  0.00  0.00    +0.000 NA
ATOM     10  C   UNL     1      46.608  10.508  11.966  0.00  0.00    +0.000 A 
ATOM     11  C   UNL     1      47.885  10.794  11.533  0.00  0.00    +0.000 A 
ATOM     12  C   UNL     1      48.805   9.756  11.503  0.00  0.00    +0.000 A 
ATOM     13  C   UNL     1      48.427   8.453  11.882  0.00  0.00    +0.000 A 
BRANCH  13  14
ATOM     14  C   UNL     1      49.442   7.345  11.803  0.00  0.00    +0.000 C 
BRANCH  14  15
ATOM     15  O   UNL     1      50.497   7.515  12.745  0.00  0.00    +0.000 OA
ATOM     16  H   UNL     1      51.321   7.516  12.229  0.00  0.00    +0.000 HD
ENDBRANCH  14  15
ENDBRANCH  13  14
ENDBRANCH   6   8
ENDBRANCH   1   2
BRANCH   1  17
ATOM     17  C   UNL     1      43.132   4.062  11.322  0.00  0.00    +0.000 C 
BRANCH  17  18
ATOM     18  N   UNL     1      43.748   4.669  10.144  0.00  0.00    +0.000 N 
ATOM     19  H   UNL     1      43.122   5.217   9.561  0.00  0.00    +0.000 HD
BRANCH  18  23
ATOM     20  C   UNL     1      46.422   2.389   7.800  0.00  0.00    +0.000 A 
ATOM     21  C   UNL     1      46.414   3.778   7.671  0.00  0.00    +0.000 A 
ATOM     22  C   UNL     1      45.541   4.549   8.454  0.00  0.00    +0.000 A 
ATOM     23  C   UNL     1      44.693   3.959   9.396  0.00  0.00    +0.000 A 
ATOM     24  C   UNL     1      44.700   2.560   9.494  0.00  0.00    +0.000 A 
ATOM     25  C   UNL     1      45.551   1.778   8.702  0.00  0.00    +0.000 A 
BRANCH  20  27
ATOM     26  N   UNL     1      48.415   2.124   6.424  0.00  0.00    +0.000 N 
ATOM     27  C   UNL     1      47.306   1.533   6.965  0.00  0.00    +0.000 C 
ATOM     28  O   UNL     1      47.080   0.343   6.794  0.00  0.00    +0.000 OA
ATOM     29  H   UNL     1      49.060   1.509   5.945  0.00  0.00    +0.000 HD
ATOM     30  H   UNL     1      48.766   3.014   6.747  0.00  0.00    +0.000 HD
ENDBRANCH  20  27
ENDBRANCH  18  23
ENDBRANCH  17  18
ENDBRANCH   1  17
TORSDOF 8
ENDMDL
MODEL 3
REMARK VINA RESULT:    -8.082      2.415      3.878
REMARK INTER + INTRA:         -12.273
REMARK INTER:                 -11.416
REMARK INTRA:                  -0.857
REMARK UNBOUND:                -0.648
REMARK  Name = 
REMARK  8 active torsions:
REMARK  status: ('A' for Active; 'I' for Inactive)
REMARK    1  A    between atoms: C_2  and  C_4
REMARK    2  A    between atoms: C_7  and  N_8
REMARK    3  A    between atoms: N_8  and  C_9
REMARK    4  A    between atoms: C_9  and  C_10
REMARK    5  A    between atoms: C_10  and  C_11
REMARK    6  A    between atoms: C_15  and  C_16
REMARK    7  A    between atoms: C_21  and  C_22
REMARK    8  A    between atoms: C_22  and  O_23
REMARK                            x       y       z     vdW  Elec       q    Type
REMARK                         _______ _______ _______ _____ _____    ______ ____
ROOT
ATOM      1  C   UNL     1      44.186   6.307  11.646  0.00  0.00    +0.000 C 
ENDROOT
BRANCH   1   2
ATOM      2  C   UNL     1      45.570   6.233  12.244  0.00  0.00    +0.000 A 
ATOM      3  C   UNL     1      45.888   5.218  13.150  0.00  0.00    +0.000 A 
ATOM      4  C   UNL     1      47.139   5.190  13.756  0.00  0.00    +0.000 A 
ATOM      5  C   UNL     1      48.097   6.150  13.425  0.00  0.00    +0.000 A 
ATOM      6  C   UNL     1      47.866   7.100  12.416  0.00  0.00    +0.000 A 
ATOM      7  C   UNL     1      46.567   7.156  11.875  0.00  0.00    +0.000 A 
BRANCH   6   8
ATOM      8  C   UNL     1      48.941   7.987  11.901  0.00  0.00    +0.000 A 
ATOM      9  N   UNL     1      50.073   7.330  11.523  0.00  0.00    +0.000 NA
ATOM     10  C   UNL     1      51.119   8.058  11.069  0.00  0.00    +0.000 A 
ATOM     11  C   UNL     1      51.106   9.432  10.953  0.00  0.00    +0.000 A 
ATOM     12  C   UNL     1      49.956  10.103  11.343  0.00  0.00    +0.000 A 
ATOM     13  C   UNL     1      48.855   9.395  11.861  0.00  0.00    +0.000 A 
BRANCH  13  14
ATOM     14  C   UNL     1      47.638  10.159  12.307  0.00  0.00    +0.000 C 
BRANCH  14  15
ATOM     15  O   UNL     1      47.690  10.490  13.692  0.00  0.00    +0.000 OA
ATOM     16  H   UNL     1      46.768  10.509  13.999  0.00  0.00    +0.000 HD
ENDBRANCH  14  15
ENDBRANCH  13  14
ENDBRANCH   6   8
ENDBRANCH   1   2
BRANCH   1  17
ATOM     17  C   UNL     1      43.626   4.918  11.329  0.00  0.00    +0.000 C 
BRANCH  17  18
ATOM     18  N   UNL     1      43.571   4.710   9.884  0.00  0.00    +0.000 N 
ATOM     19  H   UNL     1      42.646   4.527   9.507  0.00  0.00    +0.000 HD
BRANCH  18  23
ATOM     20  C   UNL     1      46.411   2.344   7.840  0.00  0.00    +0.000 A 
ATOM     21  C   UNL     1      46.413   3.727   7.653  0.00  0.00    +0.000 A 
ATOM     22  C   UNL     1      45.484   4.527   8.337  0.00  0.00    +0.000 A 
ATOM     23  C   UNL     1      44.569   3.974   9.238  0.00  0.00    +0.000 A 
ATOM     24  C   UNL     1      44.569   2.580   9.394  0.00  0.00    +0.000 A 
ATOM     25  C   UNL     1      45.477   1.769   8.701  0.00  0.00    +0.000 A 
BRANCH  20  27
ATOM     26  N   UNL     1      48.472   2.041   6.576  0.00  0.00    +0.000 N 
ATOM     27  C   UNL     1      47.355   1.457   7.109  0.00  0.00    +0.000 C 
ATOM     28  O   UNL     1      47.169   0.252   7.014  0.00  0.00    +0.000 OA
ATOM     29  H   UNL     1      49.155   1.413   6.171  0.00  0.00    +0.000 HD
ATOM     30  H   UNL     1      48.784   2.962   6.848  0.00  0.00    +0.000 HD
ENDBRANCH  20  27
ENDBRANCH  18  23
ENDBRANCH  17  18
ENDBRANCH   1  17
TORSDOF 8
ENDMDL
MODEL 4
REMARK VINA RESULT:    -8.064      1.807      2.366
REMARK INTER + INTRA:         -12.248
REMARK INTER:                 -11.763
REMARK INTRA:                  -0.485
REMARK UNBOUND:                -0.648
REMARK  Name = 
REMARK  8 active torsions:
REMARK  status: ('A' for Active; 'I' for Inactive)
REMARK    1  A    between atoms: C_2  and  C_4
REMARK    2  A    between atoms: C_7  and  N_8
REMARK    3  A    between atoms: N_8  and  C_9
REMARK    4  A    between atoms: C_9  and  C_10
REMARK    5  A    between atoms: C_10  and  C_11
REMARK    6  A    between atoms: C_15  and  C_16
REMARK    7  A    between atoms: C_21  and  C_22
REMARK    8  A    between atoms: C_22  and  O_23
REMARK                            x       y       z     vdW  Elec       q    Type
REMARK                         _______ _______ _______ _____ _____    ______ ____
ROOT
ATOM      1  C   UNL     1      45.181   4.155  12.740  0.00  0.00    +0.000 C 
ENDROOT
BRANCH   1   2
ATOM      2  C   UNL     1      46.263   4.913  13.470  0.00  0.00    +0.000 A 
ATOM      3  C   UNL     1      46.804   6.074  12.911  0.00  0.00    +0.000 A 
ATOM      4  C   UNL     1      47.850   6.733  13.548  0.00  0.00    +0.000 A 
ATOM      5  C   UNL     1      48.331   6.262  14.771  0.00  0.00    +0.000 A 
ATOM      6  C   UNL     1      47.722   5.183  15.433  0.00  0.00    +0.000 A 
ATOM      7  C   UNL     1      46.718   4.487  14.732  0.00  0.00    +0.000 A 
BRANCH   6   8
ATOM      8  C   UNL     1      48.078   4.804  16.825  0.00  0.00    +0.000 A 
ATOM      9  N   UNL     1      48.105   5.849  17.698  0.00  0.00    +0.000 NA
ATOM     10  C   UNL     1      48.449   5.605  18.984  0.00  0.00    +0.000 A 
ATOM     11  C   UNL     1      48.765   4.354  19.470  0.00  0.00    +0.000 A 
ATOM     12  C   UNL     1      48.743   3.290  18.581  0.00  0.00    +0.000 A 
ATOM     13  C   UNL     1      48.431   3.497  17.224  0.00  0.00    +0.000 A 
BRANCH  13  14
ATOM     14  C   UNL     1      48.452   2.325  16.280  0.00  0.00    +0.000 C 
BRANCH  14  15
ATOM     15  O   UNL     1      49.762   1.787  16.122  0.00  0.00    +0.000 OA
ATOM     16  H   UNL     1      50.200   1.888  16.983  0.00  0.00    +0.000 HD
ENDBRANCH  14  15
ENDBRANCH  13  14
ENDBRANCH   6   8
ENDBRANCH   1   2
BRANCH   1  17
ATOM     17  C   UNL     1      44.735   4.881  11.467  0.00  0.00    +0.000 C 
BRANCH  17  18
ATOM     18  N   UNL     1      44.174   3.930  10.511  0.00  0.00    +0.000 N 
ATOM     19  H   UNL     1      43.602   3.194  10.915  0.00  0.00    +0.000 HD
BRANCH  18  23
ATOM     20  C   UNL     1      46.669   2.707   7.329  0.00  0.00    +0.000 A 
ATOM     21  C   UNL     1      46.057   1.740   8.129  0.00  0.00    +0.000 A 
ATOM     22  C   UNL     1      45.215   2.132   9.180  0.00  0.00    +0.000 A 
ATOM     23  C   UNL     1      44.939   3.480   9.430  0.00  0.00    +0.000 A 
ATOM     24  C   UNL     1      45.581   4.436   8.629  0.00  0.00    +0.000 A 
ATOM     25  C   UNL     1      46.442   4.058   7.591  0.00  0.00    +0.000 A 
BRANCH  20  27
ATOM     26  N   UNL     1      47.521   3.070   5.075  0.00  0.00    +0.000 N 
ATOM     27  C   UNL     1      47.595   2.335   6.227  0.00  0.00    +0.000 C 
ATOM     28  O   UNL     1      48.417   1.436   6.347  0.00  0.00    +0.000 OA
ATOM     29  H   UNL     1      48.224   2.875   4.374  0.00  0.00    +0.000 HD
ATOM     30  H   UNL     1      47.049   3.962   5.032  0.00  0.00    +0.000 HD
ENDBRANCH  20  27
ENDBRANCH  18  23
ENDBRANCH  17  18
ENDBRANCH   1  17
TORSDOF 8
ENDMDL
MODEL 5
REMARK VINA RESULT:    -8.012      1.605      2.193
REMARK INTER + INTRA:         -12.172
REMARK INTER:                 -11.611
REMARK INTRA:                  -0.561
REMARK UNBOUND:                -0.648
REMARK  Name = 
REMARK  8 active torsions:
REMARK  status: ('A' for Active; 'I' for Inactive)
REMARK    1  A    between atoms: C_2  and  C_4
REMARK    2  A    between atoms: C_7  and  N_8
REMARK    3  A    between atoms: N_8  and  C_9
REMARK    4  A    between atoms: C_9  and  C_10
REMARK    5  A    between atoms: C_10  and  C_11
REMARK    6  A    between atoms: C_15  and  C_16
REMARK    7  A    between atoms: C_21  and  C_22
REMARK    8  A    between atoms: C_22  and  O_23
REMARK                            x       y       z     vdW  Elec       q    Type
REMARK                         _______ _______ _______ _____ _____    ______ ____
ROOT
ATOM      1  C   UNL     1      43.879   5.407  12.405  0.00  0.00    +0.000 C 
ENDROOT
BRANCH   1   2
ATOM      2  C   UNL     1      45.303   5.907  12.441  0.00  0.00    +0.000 A 
ATOM      3  C   UNL     1      45.838   6.578  11.339  0.00  0.00    +0.000 A 
ATOM      4  C   UNL     1      47.171   6.976  11.343  0.00  0.00    +0.000 A 
ATOM      5  C   UNL     1      47.964   6.747  12.470  0.00  0.00    +0.000 A 
ATOM      6  C   UNL     1      47.426   6.204  13.649  0.00  0.00    +0.000 A 
ATOM      7  C   UNL     1      46.098   5.739  13.591  0.00  0.00    +0.000 A 
BRANCH   6   8
ATOM      8  C   UNL     1      48.194   6.152  14.920  0.00  0.00    +0.000 A 
ATOM      9  N   UNL     1      49.078   7.176  15.080  0.00  0.00    +0.000 NA
ATOM     10  C   UNL     1      49.845   7.196  16.194  0.00  0.00    +0.000 A 
ATOM     11  C   UNL     1      49.778   6.244  17.190  0.00  0.00    +0.000 A 
ATOM     12  C   UNL     1      48.883   5.198  17.025  0.00  0.00    +0.000 A 
ATOM     13  C   UNL     1      48.091   5.109  15.864  0.00  0.00    +0.000 A 
BRANCH  13  14
ATOM     14  C   UNL     1      47.157   3.940  15.703  0.00  0.00    +0.000 C 
BRANCH  14  15
ATOM     15  O   UNL     1      47.715   2.915  14.888  0.00  0.00    +0.000 OA
ATOM     16  H   UNL     1      47.837   2.145  15.469  0.00  0.00    +0.000 HD
ENDBRANCH  14  15
ENDBRANCH  13  14
ENDBRANCH   6   8
ENDBRANCH   1   2
BRANCH   1  17
ATOM     17  C   UNL     1      43.413   5.117  10.975  0.00  0.00    +0.000 C 
BRANCH  17  18
ATOM     18  N   UNL     1      43.708   3.732  10.616  0.00  0.00    +0.000 N 
ATOM     19  H   UNL     1      43.739   3.079  11.393  0.00  0.00    +0.000 HD
BRANCH  18  23
ATOM     20  C   UNL     1      46.441   2.709   7.561  0.00  0.00    +0.000 A 
ATOM     21  C   UNL     1      46.110   4.050   7.761  0.00  0.00    +0.000 A 
ATOM     22  C   UNL     1      45.214   4.405   8.781  0.00  0.00    +0.000 A 
ATOM     23  C   UNL     1      44.665   3.445   9.637  0.00  0.00    +0.000 A 
ATOM     24  C   UNL     1      44.993   2.101   9.405  0.00  0.00    +0.000 A 
ATOM     25  C   UNL     1      45.869   1.732   8.376  0.00  0.00    +0.000 A 
BRANCH  20  27
ATOM     26  N   UNL     1      47.409   3.079   5.357  0.00  0.00    +0.000 N 
ATOM     27  C   UNL     1      47.358   2.286   6.470  0.00  0.00    +0.000 C 
ATOM     28  O   UNL     1      48.068   1.295   6.569  0.00  0.00    +0.000 OA
ATOM     29  H   UNL     1      48.110   2.838   4.667  0.00  0.00    +0.000 HD
ATOM     30  H   UNL     1      47.043   4.021   5.345  0.00  0.00    +0.000 HD
ENDBRANCH  20  27
ENDBRANCH  18  23
ENDBRANCH  17  18
ENDBRANCH   1  17
TORSDOF 8
ENDMDL
MODEL 6
REMARK VINA RESULT:    -7.982      1.883      2.538
REMARK INTER + INTRA:         -12.130
REMARK INTER:                 -11.428
REMARK INTRA:                  -0.702
REMARK UNBOUND:                -0.648
REMARK  Name = 
REMARK  8 active torsions:
REMARK  status: ('A' for Active; 'I' for Inactive)
REMARK    1  A    between atoms: C_2  and  C_4
REMARK    2  A    between atoms: C_7  and  N_8
REMARK    3  A    between atoms: N_8  and  C_9
REMARK    4  A    between atoms: C_9  and  C_10
REMARK    5  A    between atoms: C_10  and  C_11
REMARK    6  A    between atoms: C_15  and  C_16
REMARK    7  A    between atoms: C_21  and  C_22
REMARK    8  A    between atoms: C_22  and  O_23
REMARK                            x       y       z     vdW  Elec       q    Type
REMARK                         _______ _______ _______ _____ _____    ______ ____
ROOT
ATOM      1  C   UNL     1      45.207   4.623  11.899  0.00  0.00    +0.000 C 
ENDROOT
BRANCH   1   2
ATOM      2  C   UNL     1      45.779   5.904  12.457  0.00  0.00    +0.000 A 
ATOM      3  C   UNL     1      45.077   7.104  12.317  0.00  0.00    +0.000 A 
ATOM      4  C   UNL     1      45.635   8.295  12.767  0.00  0.00    +0.000 A 
ATOM      5  C   UNL     1      46.879   8.287  13.403  0.00  0.00    +0.000 A 
ATOM      6  C   UNL     1      47.550   7.086  13.689  0.00  0.00    +0.000 A 
ATOM      7  C   UNL     1      47.001   5.905  13.154  0.00  0.00    +0.000 A 
BRANCH   6   8
ATOM      8  C   UNL     1      48.761   7.041  14.549  0.00  0.00    +0.000 A 
ATOM      9  N   UNL     1      48.560   6.459  15.765  0.00  0.00    +0.000 NA
ATOM     10  C   UNL     1      49.599   6.400  16.629  0.00  0.00    +0.000 A 
ATOM     11  C   UNL     1      50.859   6.883  16.350  0.00  0.00    +0.000 A 
ATOM     12  C   UNL     1      51.064   7.481  15.115  0.00  0.00    +0.000 A 
ATOM     13  C   UNL     1      50.004   7.605  14.196  0.00  0.00    +0.000 A 
BRANCH  13  14
ATOM     14  C   UNL     1      50.254   8.291  12.879  0.00  0.00    +0.000 C 
BRANCH  14  15
ATOM     15  O   UNL     1      50.486   7.362  11.825  0.00  0.00    +0.000 OA
ATOM     16  H   UNL     1      50.530   6.485  12.243  0.00  0.00    +0.000 HD
ENDBRANCH  14  15
ENDBRANCH  13  14
ENDBRANCH   6   8
ENDBRANCH   1   2
BRANCH   1  17
ATOM     17  C   UNL     1      43.766   4.806  11.412  0.00  0.00    +0.000 C 
BRANCH  17  18
ATOM     18  N   UNL     1      43.703   4.690   9.958  0.00  0.00    +0.000 N 
ATOM     19  H   UNL     1      42.772   4.563   9.573  0.00  0.00    +0.000 HD
BRANCH  18  23
ATOM     20  C   UNL     1      46.458   2.346   7.776  0.00  0.00    +0.000 A 
ATOM     21  C   UNL     1      46.457   3.731   7.610  0.00  0.00    +0.000 A 
ATOM     22  C   UNL     1      45.557   4.524   8.339  0.00  0.00    +0.000 A 
ATOM     23  C   UNL     1      44.674   3.960   9.265  0.00  0.00    +0.000 A 
ATOM     24  C   UNL     1      44.675   2.564   9.400  0.00  0.00    +0.000 A 
ATOM     25  C   UNL     1      45.553   1.760   8.662  0.00  0.00    +0.000 A 
BRANCH  20  27
ATOM     26  N   UNL     1      48.513   2.036   6.506  0.00  0.00    +0.000 N 
ATOM     27  C   UNL     1      47.371   1.467   6.998  0.00  0.00    +0.000 C 
ATOM     28  O   UNL     1      47.137   0.278   6.830  0.00  0.00    +0.000 OA
ATOM     29  H   UNL     1      49.174   1.406   6.067  0.00  0.00    +0.000 HD
ATOM     30  H   UNL     1      48.860   2.926   6.834  0.00  0.00    +0.000 HD
ENDBRANCH  20  27
ENDBRANCH  18  23
ENDBRANCH  17  18
ENDBRANCH   1  17
TORSDOF 8
ENDMDL
MODEL 7
REMARK VINA RESULT:    -7.556      2.442      7.569
REMARK INTER + INTRA:         -11.517
REMARK INTER:                 -10.200
REMARK INTRA:                  -1.317
REMARK UNBOUND:                -0.648
REMARK  Name = 
REMARK  8 active torsions:
REMARK  status: ('A' for Active; 'I' for Inactive)
REMARK    1  A    between atoms: C_2  and  C_4
REMARK    2  A    between atoms: C_7  and  N_8
REMARK    3  A    between atoms: N_8  and  C_9
REMARK    4  A    between atoms: C_9  and  C_10
REMARK    5  A    between atoms: C_10  and  C_11
REMARK    6  A    between atoms: C_15  and  C_16
REMARK    7  A    between atoms: C_21  and  C_22
REMARK    8  A    between atoms: C_22  and  O_23
REMARK                            x       y       z     vdW  Elec       q    Type
REMARK                         _______ _______ _______ _____ _____    ______ ____
ROOT
ATOM      1  C   UNL     1      48.616   8.254  11.951  0.00  0.00    +0.000 C 
ENDROOT
BRANCH   1   2
ATOM      2  C   UNL     1      47.207   7.725  11.842  0.00  0.00    +0.000 A 
ATOM      3  C   UNL     1      46.142   8.453  12.379  0.00  0.00    +0.000 A 
ATOM      4  C   UNL     1      44.853   7.934  12.344  0.00  0.00    +0.000 A 
ATOM      5  C   UNL     1      44.612   6.703  11.729  0.00  0.00    +0.000 A 
ATOM      6  C   UNL     1      45.630   6.008  11.054  0.00  0.00    +0.000 A 
ATOM      7  C   UNL     1      46.938   6.516  11.173  0.00  0.00    +0.000 A 
BRANCH   6   8
ATOM      8  C   UNL     1      45.352   4.814  10.215  0.00  0.00    +0.000 A 
ATOM      9  N   UNL     1      45.549   5.010   8.882  0.00  0.00    +0.000 NA
ATOM     10  C   UNL     1      45.292   3.986   8.035  0.00  0.00    +0.000 A 
ATOM     11  C   UNL     1      44.851   2.745   8.443  0.00  0.00    +0.000 A 
ATOM     12  C   UNL     1      44.645   2.546   9.799  0.00  0.00    +0.000 A 
ATOM     13  C   UNL     1      44.858   3.591  10.718  0.00  0.00    +0.000 A 
BRANCH  13  14
ATOM     14  C   UNL     1      44.589   3.349  12.179  0.00  0.00    +0.000 C 
BRANCH  14  15
ATOM     15  O   UNL     1      45.720   2.802  12.849  0.00  0.00    +0.000 OA
ATOM     16  H   UNL     1      46.285   2.421  12.157  0.00  0.00    +0.000 HD
ENDBRANCH  14  15
ENDBRANCH  13  14
ENDBRANCH   6   8
ENDBRANCH   1   2
BRANCH   1  17
ATOM     17  C   UNL     1      49.477   7.397  12.883  0.00  0.00    +0.000 C 
BRANCH  17  18
ATOM     18  N   UNL     1      49.213   7.741  14.278  0.00  0.00    +0.000 N 
ATOM     19  H   UNL     1      49.889   8.367  14.705  0.00  0.00    +0.000 HD
BRANCH  18  23
ATOM     20  C   UNL     1      47.865   4.639  16.808  0.00  0.00    +0.000 A 
ATOM     21  C   UNL     1      48.758   5.589  17.307  0.00  0.00    +0.000 A 
ATOM     22  C   UNL     1      49.203   6.633  16.482  0.00  0.00    +0.000 A 
ATOM     23  C   UNL     1      48.744   6.770  15.168  0.00  0.00    +0.000 A 
ATOM     24  C   UNL     1      47.865   5.793  14.680  0.00  0.00    +0.000 A 
ATOM     25  C   UNL     1      47.430   4.733  15.486  0.00  0.00    +0.000 A 
BRANCH  20  27
ATOM     26  N   UNL     1      48.155   3.167  18.728  0.00  0.00    +0.000 N 
ATOM     27  C   UNL     1      47.396   3.498  17.638  0.00  0.00    +0.000 C 
ATOM     28  O   UNL     1      46.360   2.898  17.387  0.00  0.00    +0.000 OA
ATOM     29  H   UNL     1      47.772   2.458  19.340  0.00  0.00    +0.000 HD
ATOM     30  H   UNL     1      48.857   3.786  19.107  0.00  0.00    +0.000 HD
ENDBRANCH  20  27
ENDBRANCH  18  23
ENDBRANCH  17  18
ENDBRANCH   1  17
TORSDOF 8
ENDMDL
MODEL 8
REMARK VINA RESULT:    -7.526      2.856      8.081
REMARK INTER + INTRA:         -11.474
REMARK INTER:                 -10.739
REMARK INTRA:                  -0.735
REMARK UNBOUND:                -0.648
REMARK  Name = 
REMARK  8 active torsions:
REMARK  status: ('A' for Active; 'I' for Inactive)
REMARK    1  A    between atoms: C_2  and  C_4
REMARK    2  A    between atoms: C_7  and  N_8
REMARK    3  A    between atoms: N_8  and  C_9
REMARK    4  A    between atoms: C_9  and  C_10
REMARK    5  A    between atoms: C_10  and  C_11
REMARK    6  A    between atoms: C_15  and  C_16
REMARK    7  A    between atoms: C_21  and  C_22
REMARK    8  A    between atoms: C_22  and  O_23
REMARK                            x       y       z     vdW  Elec       q    Type
REMARK                         _______ _______ _______ _____ _____    ______ ____
ROOT
ATOM      1  C   UNL     1      47.540   6.226  14.261  0.00  0.00    +0.000 C 
ENDROOT
BRANCH   1   2
ATOM      2  C   UNL     1      46.598   6.484  13.110  0.00  0.00    +0.000 A 
ATOM      3  C   UNL     1      45.997   7.737  12.965  0.00  0.00    +0.000 A 
ATOM      4  C   UNL     1      45.075   7.954  11.947  0.00  0.00    +0.000 A 
ATOM      5  C   UNL     1      44.783   6.934  11.039  0.00  0.00    +0.000 A 
ATOM      6  C   UNL     1      45.470   5.709  11.066  0.00  0.00    +0.000 A 
ATOM      7  C   UNL     1      46.340   5.487  12.151  0.00  0.00    +0.000 A 
BRANCH   6   8
ATOM      8  C   UNL     1      45.331   4.698   9.985  0.00  0.00    +0.000 A 
ATOM      9  N   UNL     1      45.953   5.035   8.822  0.00  0.00    +0.000 NA
ATOM     10  C   UNL     1      45.855   4.190   7.770  0.00  0.00    +0.000 A 
ATOM     11  C   UNL     1      45.169   2.994   7.808  0.00  0.00    +0.000 A 
ATOM     12  C   UNL     1      44.530   2.652   8.990  0.00  0.00    +0.000 A 
ATOM     13  C   UNL     1      44.567   3.517  10.100  0.00  0.00    +0.000 A 
BRANCH  13  14
ATOM     14  C   UNL     1      43.832   3.130  11.355  0.00  0.00    +0.000 C 
BRANCH  14  15
ATOM     15  O   UNL     1      42.574   3.788  11.465  0.00  0.00    +0.000 OA
ATOM     16  H   UNL     1      42.569   4.477  10.779  0.00  0.00    +0.000 HD
ENDBRANCH  14  15
ENDBRANCH  13  14
ENDBRANCH   6   8
ENDBRANCH   1   2
BRANCH   1  17
ATOM     17  C   UNL     1      47.156   4.965  15.041  0.00  0.00    +0.000 C 
BRANCH  17  18
ATOM     18  N   UNL     1      47.670   5.036  16.407  0.00  0.00    +0.000 N 
ATOM     19  H   UNL     1      47.744   5.972  16.794  0.00  0.00    +0.000 HD
BRANCH  18  23
ATOM     20  C   UNL     1      50.852   2.440  17.397  0.00  0.00    +0.000 A 
ATOM     21  C   UNL     1      50.974   3.804  17.665  0.00  0.00    +0.000 A 
ATOM     22  C   UNL     1      49.920   4.676  17.354  0.00  0.00    +0.000 A 
ATOM     23  C   UNL     1      48.721   4.206  16.809  0.00  0.00    +0.000 A 
ATOM     24  C   UNL     1      48.627   2.835  16.528  0.00  0.00    +0.000 A 
ATOM     25  C   UNL     1      49.681   1.958  16.813  0.00  0.00    +0.000 A 
BRANCH  20  27
ATOM     26  N   UNL     1      51.610   0.237  18.109  0.00  0.00    +0.000 N 
ATOM     27  C   UNL     1      51.958   1.488  17.679  0.00  0.00    +0.000 C 
ATOM     28  O   UNL     1      53.131   1.788  17.502  0.00  0.00    +0.000 OA
ATOM     29  H   UNL     1      52.364  -0.432  18.199  0.00  0.00    +0.000 HD
ATOM     30  H   UNL     1      50.670  -0.124  18.021  0.00  0.00    +0.000 HD
ENDBRANCH  20  27
ENDBRANCH  18  23
ENDBRANCH  17  18
ENDBRANCH   1  17
TORSDOF 8
ENDMDL
MODEL 9
REMARK VINA RESULT:    -7.121      3.256      5.011
REMARK INTER + INTRA:         -10.891
REMARK INTER:                  -9.523
REMARK INTRA:                  -1.367
REMARK UNBOUND:                -0.648
REMARK  Name = 
REMARK  8 active torsions:
REMARK  status: ('A' for Active; 'I' for Inactive)
REMARK    1  A    between atoms: C_2  and  C_4
REMARK    2  A    between atoms: C_7  and  N_8
REMARK    3  A    between atoms: N_8  and  C_9
REMARK    4  A    between atoms: C_9  and  C_10
REMARK    5  A    between atoms: C_10  and  C_11
REMARK    6  A    between atoms: C_15  and  C_16
REMARK    7  A    between atoms: C_21  and  C_22
REMARK    8  A    between atoms: C_22  and  O_23
REMARK                            x       y       z     vdW  Elec       q    Type
REMARK                         _______ _______ _______ _____ _____    ______ ____
ROOT
ATOM      1  C   UNL     1      49.014   8.971  14.219  0.00  0.00    +0.000 C 
ENDROOT
BRANCH   1   2
ATOM      2  C   UNL     1      48.895   8.308  15.570  0.00  0.00    +0.000 A 
ATOM      3  C   UNL     1      48.289   8.986  16.631  0.00  0.00    +0.000 A 
ATOM      4  C   UNL     1      48.242   8.406  17.894  0.00  0.00    +0.000 A 
ATOM      5  C   UNL     1      48.760   7.124  18.093  0.00  0.00    +0.000 A 
ATOM      6  C   UNL     1      49.248   6.355  17.023  0.00  0.00    +0.000 A 
ATOM      7  C   UNL     1      49.356   6.994  15.773  0.00  0.00    +0.000 A 
BRANCH   6   8
ATOM      8  C   UNL     1      49.601   4.919  17.175  0.00  0.00    +0.000 A 
ATOM      9  N   UNL     1      50.936   4.683  17.303  0.00  0.00    +0.000 NA
ATOM     10  C   UNL     1      51.356   3.402  17.416  0.00  0.00    +0.000 A 
ATOM     11  C   UNL     1      50.509   2.315  17.422  0.00  0.00    +0.000 A 
ATOM     12  C   UNL     1      49.150   2.552  17.285  0.00  0.00    +0.000 A 
ATOM     13  C   UNL     1      48.666   3.865  17.123  0.00  0.00    +0.000 A 
BRANCH  13  14
ATOM     14  C   UNL     1      47.187   4.082  16.941  0.00  0.00    +0.000 C 
BRANCH  14  15
ATOM     15  O   UNL     1      46.415   3.041  17.532  0.00  0.00    +0.000 OA
ATOM     16  H   UNL     1      47.050   2.358  17.806  0.00  0.00    +0.000 HD
ENDBRANCH  14  15
ENDBRANCH  13  14
ENDBRANCH   6   8
ENDBRANCH   1   2
BRANCH   1  17
ATOM     17  C   UNL     1      47.781   8.717  13.348  0.00  0.00    +0.000 C 
BRANCH  17  18
ATOM     18  N   UNL     1      47.997   7.557  12.488  0.00  0.00    +0.000 N 
ATOM     19  H   UNL     1      48.352   7.765  11.559  0.00  0.00    +0.000 HD
BRANCH  18  23
ATOM     20  C   UNL     1      45.307   4.308  12.260  0.00  0.00    +0.000 A 
ATOM     21  C   UNL     1      46.208   4.376  13.324  0.00  0.00    +0.000 A 
ATOM     22  C   UNL     1      47.097   5.457  13.420  0.00  0.00    +0.000 A 
ATOM     23  C   UNL     1      47.082   6.499  12.487  0.00  0.00    +0.000 A 
ATOM     24  C   UNL     1      46.185   6.399  11.414  0.00  0.00    +0.000 A 
ATOM     25  C   UNL     1      45.307   5.314  11.295  0.00  0.00    +0.000 A 
BRANCH  20  27
ATOM     26  N   UNL     1      44.448   2.451  10.936  0.00  0.00    +0.000 N 
ATOM     27  C   UNL     1      44.371   3.163  12.103  0.00  0.00    +0.000 C 
ATOM     28  O   UNL     1      43.589   2.840  12.986  0.00  0.00    +0.000 OA
ATOM     29  H   UNL     1      43.879   1.615  10.884  0.00  0.00    +0.000 HD
ATOM     30  H   UNL     1      45.236   2.523  10.309  0.00  0.00    +0.000 HD
ENDBRANCH  20  27
ENDBRANCH  18  23
ENDBRANCH  17  18
ENDBRANCH   1  17
TORSDOF 8
ENDMDL
