MODEL 1
REMARK VINA RESULT:    -8.167      0.000      0.000
REMARK INTER + INTRA:         -10.637
REMARK INTER:                 -10.077
REMARK INTRA:                  -0.560
REMARK UNBOUND:                -0.560
REMARK  Name = 
REMARK  5 active torsions:
REMARK  status: ('A' for Active; 'I' for Inactive)
REMARK    1  A    between atoms: C_1  and  C_2
REMARK    2  A    between atoms: C_2  and  O_3
REMARK    3  A    between atoms: C_2  and  C_13
REMARK    4  A    between atoms: O_3  and  C_4
REMARK    5  A    between atoms: C_7  and  C_8
REMARK                            x       y       z     vdW  Elec       q    Type
REMARK                         _______ _______ _______ _____ _____    ______ ____
ROOT
ATOM      1  C   UNL     1      44.515   3.856   9.280  0.00  0.00    +0.000 A 
ATOM      2  C   UNL     1      45.430   4.380   8.368  0.00  0.00    +0.000 A 
ATOM      3  C   UNL     1      46.307   3.529   7.693  0.00  0.00    +0.000 A 
ATOM      4  C   UNL     1      46.246   2.170   7.971  0.00  0.00    +0.000 A 
ATOM      5  N   UNL     1      45.386   1.622   8.873  0.00  0.00    +0.000 NA
ATOM      6  C   UNL     1      44.552   2.484   9.508  0.00  0.00    +0.000 A 
ENDROOT
BRANCH   4   7
ATOM      7  C   UNL     1      47.161   1.221   7.262  0.00  0.00    +0.000 C 
ATOM      8  N   UNL     1      48.272   1.787   6.694  0.00  0.00    +0.000 N 
ATOM      9  O   UNL     1      46.942   0.019   7.188  0.00  0.00    +0.000 OA
ATOM     10  H   UNL     1      48.415   2.787   6.769  0.00  0.00    +0.000 HD
ATOM     11  H   UNL     1      48.924   1.208   6.187  0.00  0.00    +0.000 HD
ENDBRANCH   4   7
BRANCH   1  12
ATOM     12  O   UNL     1      43.673   4.754   9.876  0.00  0.00    +0.000 OA
BRANCH  12  14
ATOM     13  C   UNL     1      42.321   5.506  11.767  0.00  0.00    +0.000 C 
ATOM     14  C   UNL     1      43.518   4.669  11.303  0.00  0.00    +0.000 C 
BRANCH  14  15
ATOM     15  C   UNL     1      44.771   5.186  12.005  0.00  0.00    +0.000 A 
ATOM     16  C   UNL     1      45.457   6.287  11.458  0.00  0.00    +0.000 A 
ATOM     17  C   UNL     1      46.659   6.732  12.013  0.00  0.00    +0.000 A 
ATOM     18  C   UNL     1      47.192   6.085  13.125  0.00  0.00    +0.000 A 
ATOM     19  C   UNL     1      46.516   5.002  13.683  0.00  0.00    +0.000 A 
ATOM     20 CL   UNL     1      47.181   4.203  15.055  0.00  0.00    +0.000 Cl
ATOM     21  C   UNL     1      45.315   4.549  13.130  0.00  0.00    +0.000 A 
ENDBRANCH  14  15
ENDBRANCH  12  14
ENDBRANCH   1  12
TORSDOF 4
ENDMDL
MODEL 2
REMARK VINA RESULT:    -8.002      1.324      1.681
REMARK INTER + INTRA:         -10.433
REMARK INTER:                  -9.743
REMARK INTRA:                  -0.690
REMARK UNBOUND:                -0.560
REMARK  Name = 
REMARK  5 active torsions:
REMARK  status: ('A' for Active; 'I' for Inactive)
REMARK    1  A    between atoms: C_1  and  C_2
REMARK    2  A    between atoms: C_2  and  O_3
REMARK    3  A    between atoms: C_2  and  C_13
REMARK    4  A    between atoms: O_3  and  C_4
REMARK    5  A    between atoms: C_7  and  C_8
REMARK                            x       y       z     vdW  Elec       q    Type
REMARK                         _______ _______ _______ _____ _____    ______ ____
ROOT
ATOM      1  C   UNL     1      44.498   3.874   9.211  0.00  0.00    +0.000 A 
ATOM      2  C   UNL     1      45.421   4.453   8.342  0.00  0.00    +0.000 A 
ATOM      3  C   UNL     1      46.343   3.650   7.669  0.00  0.00    +0.000 A 
ATOM      4  C   UNL     1      46.317   2.282   7.905  0.00  0.00    +0.000 A 
ATOM      5  N   UNL     1      45.450   1.681   8.767  0.00  0.00    +0.000 NA
ATOM      6  C   UNL     1      44.572   2.498   9.401  0.00  0.00    +0.000 A 
ENDROOT
BRANCH   4   7
ATOM      7  C   UNL     1      47.282   1.383   7.197  0.00  0.00    +0.000 C 
ATOM      8  N   UNL     1      48.333   2.013   6.584  0.00  0.00    +0.000 N 
ATOM      9  O   UNL     1      47.151   0.166   7.161  0.00  0.00    +0.000 OA
ATOM     10  H   UNL     1      48.403   3.023   6.628  0.00  0.00    +0.000 HD
ATOM     11  H   UNL     1      49.013   1.470   6.075  0.00  0.00    +0.000 HD
ENDBRANCH   4   7
BRANCH   1  12
ATOM     12  O   UNL     1      43.611   4.729   9.807  0.00  0.00    +0.000 OA
BRANCH  12  14
ATOM     13  C   UNL     1      42.294   5.465  11.728  0.00  0.00    +0.000 C 
ATOM     14  C   UNL     1      43.531   4.701  11.243  0.00  0.00    +0.000 C 
BRANCH  14  15
ATOM     15  C   UNL     1      44.769   5.346  11.856  0.00  0.00    +0.000 A 
ATOM     16  C   UNL     1      45.650   4.553  12.616  0.00  0.00    +0.000 A 
ATOM     17  C   UNL     1      46.743   5.121  13.275  0.00  0.00    +0.000 A 
ATOM     18  C   UNL     1      46.975   6.491  13.180  0.00  0.00    +0.000 A 
ATOM     19  C   UNL     1      46.118   7.285  12.420  0.00  0.00    +0.000 A 
ATOM     20 CL   UNL     1      46.407   8.978  12.309  0.00  0.00    +0.000 Cl
ATOM     21  C   UNL     1      45.021   6.724  11.763  0.00  0.00    +0.000 A 
ENDBRANCH  14  15
ENDBRANCH  12  14
ENDBRANCH   1  12
TORSDOF 4
ENDMDL
MODEL 3
REMARK VINA RESULT:    -6.949      3.520      6.003
REMARK INTER + INTRA:          -9.134
REMARK INTER:                  -9.716
REMARK INTRA:                   0.582
REMARK UNBOUND:                -0.560
REMARK  Name = 
REMARK  5 active torsions:
REMARK  status: ('A' for Active; 'I' for Inactive)
REMARK    1  A    between atoms: C_1  and  C_2
REMARK    2  A    between atoms: C_2  and  O_3
REMARK    3  A    between atoms: C_2  and  C_13
REMARK    4  A    between atoms: O_3  and  C_4
REMARK    5  A    between atoms: C_7  and  C_8
REMARK                            x       y       z     vdW  Elec       q    Type
REMARK                         _______ _______ _______ _____ _____    ______ ____
ROOT
ATOM      1  C   UNL     1      45.131   5.086  11.638  0.00  0.00    +0.000 A 
ATOM      2  C   UNL     1      46.292   5.851  11.737  0.00  0.00    +0.000 A 
ATOM      3  C   UNL     1      47.058   5.808  12.904  0.00  0.00    +0.000 A 
ATOM      4  C   UNL     1      46.618   5.005  13.947  0.00  0.00    +0.000 A 
ATOM      5  N   UNL     1      45.476   4.264  13.901  0.00  0.00    +0.000 NA
ATOM      6  C   UNL     1      44.762   4.334  12.749  0.00  0.00    +0.000 A 
ENDROOT
BRANCH   4   7
ATOM      7  C   UNL     1      47.413   4.922  15.213  0.00  0.00    +0.000 C 
ATOM      8  N   UNL     1      46.860   4.159  16.208  0.00  0.00    +0.000 N 
ATOM      9  O   UNL     1      48.486   5.494  15.361  0.00  0.00    +0.000 OA
ATOM     10  H   UNL     1      45.966   3.708  16.051  0.00  0.00    +0.000 HD
ATOM     11  H   UNL     1      47.334   4.072  17.093  0.00  0.00    +0.000 HD
ENDBRANCH   4   7
BRANCH   1  12
ATOM     12  O   UNL     1      44.457   5.163  10.450  0.00  0.00    +0.000 OA
BRANCH  12  14
ATOM     13  C   UNL     1      43.764   2.864  10.904  0.00  0.00    +0.000 C 
ATOM     14  C   UNL     1      44.057   3.924   9.837  0.00  0.00    +0.000 C 
BRANCH  14  15
ATOM     15  C   UNL     1      45.164   3.401   8.927  0.00  0.00    +0.000 A 
ATOM     16  C   UNL     1      45.877   4.311   8.123  0.00  0.00    +0.000 A 
ATOM     17  C   UNL     1      46.832   3.866   7.206  0.00  0.00    +0.000 A 
ATOM     18  C   UNL     1      47.091   2.503   7.081  0.00  0.00    +0.000 A 
ATOM     19  C   UNL     1      46.401   1.593   7.880  0.00  0.00    +0.000 A 
ATOM     20 CL   UNL     1      46.722  -0.090   7.718  0.00  0.00    +0.000 Cl
ATOM     21  C   UNL     1      45.442   2.032   8.796  0.00  0.00    +0.000 A 
ENDBRANCH  14  15
ENDBRANCH  12  14
ENDBRANCH   1  12
TORSDOF 4
ENDMDL
MODEL 4
REMARK VINA RESULT:    -6.661      3.929      6.477
REMARK INTER + INTRA:          -8.779
REMARK INTER:                  -8.143
REMARK INTRA:                  -0.636
REMARK UNBOUND:                -0.560
REMARK  Name = 
REMARK  5 active torsions:
REMARK  status: ('A' for Active; 'I' for Inactive)
REMARK    1  A    between atoms: C_1  and  C_2
REMARK    2  A    between atoms: C_2  and  O_3
REMARK    3  A    between atoms: C_2  and  C_13
REMARK    4  A    between atoms: O_3  and  C_4
REMARK    5  A    between atoms: C_7  and  C_8
REMARK                            x       y       z     vdW  Elec       q    Type
REMARK                         _______ _______ _______ _____ _____    ______ ____
ROOT
ATOM      1  C   UNL     1      45.647   5.482  11.883  0.00  0.00    +0.000 A 
ATOM      2  C   UNL     1      44.634   6.371  11.527  0.00  0.00    +0.000 A 
ATOM      3  C   UNL     1      44.829   7.745  11.677  0.00  0.00    +0.000 A 
ATOM      4  C   UNL     1      46.038   8.183  12.202  0.00  0.00    +0.000 A 
ATOM      5  N   UNL     1      47.041   7.346  12.587  0.00  0.00    +0.000 NA
ATOM      6  C   UNL     1      46.810   6.019  12.424  0.00  0.00    +0.000 A 
ENDROOT
BRANCH   4   7
ATOM      7  C   UNL     1      46.292   9.648  12.371  0.00  0.00    +0.000 C 
ATOM      8  N   UNL     1      45.195  10.457  12.230  0.00  0.00    +0.000 N 
ATOM      9  O   UNL     1      47.401  10.105  12.619  0.00  0.00    +0.000 OA
ATOM     10  H   UNL     1      44.296  10.043  12.015  0.00  0.00    +0.000 HD
ATOM     11  H   UNL     1      45.297  11.456  12.316  0.00  0.00    +0.000 HD
ENDBRANCH   4   7
BRANCH   1  12
ATOM     12  O   UNL     1      45.386   4.155  11.676  0.00  0.00    +0.000 OA
BRANCH  12  14
ATOM     13  C   UNL     1      43.574   2.669  10.983  0.00  0.00    +0.000 C 
ATOM     14  C   UNL     1      44.509   3.817  10.587  0.00  0.00    +0.000 C 
BRANCH  14  15
ATOM     15  C   UNL     1      45.319   3.382   9.369  0.00  0.00    +0.000 A 
ATOM     16  C   UNL     1      45.689   4.347   8.412  0.00  0.00    +0.000 A 
ATOM     17  C   UNL     1      46.346   3.979   7.237  0.00  0.00    +0.000 A 
ATOM     18  C   UNL     1      46.648   2.640   7.000  0.00  0.00    +0.000 A 
ATOM     19  C   UNL     1      46.299   1.677   7.945  0.00  0.00    +0.000 A 
ATOM     20 CL   UNL     1      46.669   0.023   7.646  0.00  0.00    +0.000 Cl
ATOM     21  C   UNL     1      45.637   2.038   9.121  0.00  0.00    +0.000 A 
ENDBRANCH  14  15
ENDBRANCH  12  14
ENDBRANCH   1  12
TORSDOF 4
ENDMDL
MODEL 5
REMARK VINA RESULT:    -6.519      3.899      5.918
REMARK INTER + INTRA:          -8.603
REMARK INTER:                  -7.914
REMARK INTRA:                  -0.689
REMARK UNBOUND:                -0.560
REMARK  Name = 
REMARK  5 active torsions:
REMARK  status: ('A' for Active; 'I' for Inactive)
REMARK    1  A    between atoms: C_1  and  C_2
REMARK    2  A    between atoms: C_2  and  O_3
REMARK    3  A    between atoms: C_2  and  C_13
REMARK    4  A    between atoms: O_3  and  C_4
REMARK    5  A    between atoms: C_7  and  C_8
REMARK                            x       y       z     vdW  Elec       q    Type
REMARK                         _______ _______ _______ _____ _____    ______ ____
ROOT
ATOM      1  C   UNL     1      46.017   5.947  12.701  0.00  0.00    +0.000 A 
ATOM      2  C   UNL     1      46.219   7.186  12.095  0.00  0.00    +0.000 A 
ATOM      3  C   UNL     1      47.498   7.742  12.056  0.00  0.00    +0.000 A 
ATOM      4  C   UNL     1      48.538   7.037  12.648  0.00  0.00    +0.000 A 
ATOM      5  N   UNL     1      48.378   5.838  13.274  0.00  0.00    +0.000 NA
ATOM      6  C   UNL     1      47.118   5.333  13.289  0.00  0.00    +0.000 A 
ENDROOT
BRANCH   4   7
ATOM      7  C   UNL     1      49.927   7.593  12.622  0.00  0.00    +0.000 C 
ATOM      8  N   UNL     1      50.577   7.613  13.829  0.00  0.00    +0.000 N 
ATOM      9  O   UNL     1      50.458   8.007  11.599  0.00  0.00    +0.000 OA
ATOM     10  H   UNL     1      50.103   7.270  14.656  0.00  0.00    +0.000 HD
ATOM     11  H   UNL     1      51.511   7.988  13.888  0.00  0.00    +0.000 HD
ENDBRANCH   4   7
BRANCH   1  12
ATOM     12  O   UNL     1      44.739   5.459  12.668  0.00  0.00    +0.000 OA
BRANCH  12  14
ATOM     13  C   UNL     1      42.497   5.533  11.699  0.00  0.00    +0.000 C 
ATOM     14  C   UNL     1      44.006   5.612  11.440  0.00  0.00    +0.000 C 
BRANCH  14  15
ATOM     15  C   UNL     1      44.385   4.511  10.454  0.00  0.00    +0.000 A 
ATOM     16  C   UNL     1      43.919   3.202  10.677  0.00  0.00    +0.000 A 
ATOM     17  C   UNL     1      44.319   2.146   9.855  0.00  0.00    +0.000 A 
ATOM     18  C   UNL     1      45.190   2.384   8.795  0.00  0.00    +0.000 A 
ATOM     19  C   UNL     1      45.649   3.678   8.555  0.00  0.00    +0.000 A 
ATOM     20 CL   UNL     1      46.729   3.966   7.247  0.00  0.00    +0.000 Cl
ATOM     21  C   UNL     1      45.255   4.738   9.377  0.00  0.00    +0.000 A 
ENDBRANCH  14  15
ENDBRANCH  12  14
ENDBRANCH   1  12
TORSDOF 4
ENDMDL
MODEL 6
REMARK VINA RESULT:    -6.214      4.014      6.426
REMARK INTER + INTRA:          -8.227
REMARK INTER:                  -8.423
REMARK INTRA:                   0.196
REMARK UNBOUND:                -0.560
REMARK  Name = 
REMARK  5 active torsions:
REMARK  status: ('A' for Active; 'I' for Inactive)
REMARK    1  A    between atoms: C_1  and  C_2
REMARK    2  A    between atoms: C_2  and  O_3
REMARK    3  A    between atoms: C_2  and  C_13
REMARK    4  A    between atoms: O_3  and  C_4
REMARK    5  A    between atoms: C_7  and  C_8
REMARK                            x       y       z     vdW  Elec       q    Type
REMARK                         _______ _______ _______ _____ _____    ______ ____
ROOT
ATOM      1  C   UNL     1      46.956   5.528  12.953  0.00  0.00    +0.000 A 
ATOM      2  C   UNL     1      47.561   6.257  13.976  0.00  0.00    +0.000 A 
ATOM      3  C   UNL     1      47.774   5.664  15.222  0.00  0.00    +0.000 A 
ATOM      4  C   UNL     1      47.353   4.353  15.405  0.00  0.00    +0.000 A 
ATOM      5  N   UNL     1      46.735   3.617  14.441  0.00  0.00    +0.000 NA
ATOM      6  C   UNL     1      46.547   4.231  13.246  0.00  0.00    +0.000 A 
ENDROOT
BRANCH   4   7
ATOM      7  C   UNL     1      47.571   3.676  16.722  0.00  0.00    +0.000 C 
ATOM      8  N   UNL     1      48.861   3.684  17.183  0.00  0.00    +0.000 N 
ATOM      9  O   UNL     1      46.665   3.147  17.354  0.00  0.00    +0.000 OA
ATOM     10  H   UNL     1      49.585   4.124  16.629  0.00  0.00    +0.000 HD
ATOM     11  H   UNL     1      49.082   3.232  18.057  0.00  0.00    +0.000 HD
ENDBRANCH   4   7
BRANCH   1  12
ATOM     12  O   UNL     1      46.812   6.173  11.756  0.00  0.00    +0.000 OA
BRANCH  12  14
ATOM     13  C   UNL     1      44.442   6.256  12.340  0.00  0.00    +0.000 C 
ATOM     14  C   UNL     1      45.483   6.275  11.216  0.00  0.00    +0.000 C 
BRANCH  14  15
ATOM     15  C   UNL     1      45.201   5.108  10.275  0.00  0.00    +0.000 A 
ATOM     16  C   UNL     1      44.332   4.083  10.696  0.00  0.00    +0.000 A 
ATOM     17  C   UNL     1      44.120   2.950   9.908  0.00  0.00    +0.000 A 
ATOM     18  C   UNL     1      44.773   2.825   8.683  0.00  0.00    +0.000 A 
ATOM     19  C   UNL     1      45.625   3.838   8.249  0.00  0.00    +0.000 A 
ATOM     20 CL   UNL     1      46.432   3.677   6.737  0.00  0.00    +0.000 Cl
ATOM     21  C   UNL     1      45.844   4.972   9.035  0.00  0.00    +0.000 A 
ENDBRANCH  14  15
ENDBRANCH  12  14
ENDBRANCH   1  12
TORSDOF 4
ENDMDL
MODEL 7
REMARK VINA RESULT:    -6.075      4.577      6.719
REMARK INTER + INTRA:          -8.056
REMARK INTER:                  -7.559
REMARK INTRA:                  -0.497
REMARK UNBOUND:                -0.560
REMARK  Name = 
REMARK  5 active torsions:
REMARK  status: ('A' for Active; 'I' for Inactive)
REMARK    1  A    between atoms: C_1  and  C_2
REMARK    2  A    between atoms: C_2  and  O_3
REMARK    3  A    between atoms: C_2  and  C_13
REMARK    4  A    between atoms: O_3  and  C_4
REMARK    5  A    between atoms: C_7  and  C_8
REMARK                            x       y       z     vdW  Elec       q    Type
REMARK                         _______ _______ _______ _____ _____    ______ ____
ROOT
ATOM      1  C   UNL     1      46.607   4.739  14.296  0.00  0.00    +0.000 A 
ATOM      2  C   UNL     1      47.106   5.883  13.675  0.00  0.00    +0.000 A 
ATOM      3  C   UNL     1      48.179   6.572  14.244  0.00  0.00    +0.000 A 
ATOM      4  C   UNL     1      48.708   6.095  15.435  0.00  0.00    +0.000 A 
ATOM      5  N   UNL     1      48.232   4.997  16.087  0.00  0.00    +0.000 NA
ATOM      6  C   UNL     1      47.189   4.358  15.501  0.00  0.00    +0.000 A 
ENDROOT
BRANCH   4   7
ATOM      7  C   UNL     1      49.864   6.798  16.074  0.00  0.00    +0.000 C 
ATOM      8  N   UNL     1      49.605   8.062  16.533  0.00  0.00    +0.000 N 
ATOM      9  O   UNL     1      50.973   6.288  16.184  0.00  0.00    +0.000 OA
ATOM     10  H   UNL     1      48.678   8.454  16.416  0.00  0.00    +0.000 HD
ATOM     11  H   UNL     1      50.343   8.600  16.961  0.00  0.00    +0.000 HD
ENDBRANCH   4   7
BRANCH   1  12
ATOM     12  O   UNL     1      45.575   4.107  13.658  0.00  0.00    +0.000 OA
BRANCH  12  14
ATOM     13  C   UNL     1      43.280   4.669  13.039  0.00  0.00    +0.000 C 
ATOM     14  C   UNL     1      44.770   4.895  12.763  0.00  0.00    +0.000 C 
BRANCH  14  15
ATOM     15  C   UNL     1      45.058   4.514  11.315  0.00  0.00    +0.000 A 
ATOM     16  C   UNL     1      45.516   5.503  10.424  0.00  0.00    +0.000 A 
ATOM     17  C   UNL     1      45.700   5.221   9.069  0.00  0.00    +0.000 A 
ATOM     18  C   UNL     1      45.432   3.944   8.582  0.00  0.00    +0.000 A 
ATOM     19  C   UNL     1      44.991   2.952   9.457  0.00  0.00    +0.000 A 
ATOM     20 CL   UNL     1      44.658   1.376   8.851  0.00  0.00    +0.000 Cl
ATOM     21  C   UNL     1      44.801   3.229  10.813  0.00  0.00    +0.000 A 
ENDBRANCH  14  15
ENDBRANCH  12  14
ENDBRANCH   1  12
TORSDOF 4
ENDMDL
MODEL 8
REMARK VINA RESULT:    -6.028      4.190      6.677
REMARK INTER + INTRA:          -7.998
REMARK INTER:                  -7.496
REMARK INTRA:                  -0.502
REMARK UNBOUND:                -0.560
REMARK  Name = 
REMARK  5 active torsions:
REMARK  status: ('A' for Active; 'I' for Inactive)
REMARK    1  A    between atoms: C_1  and  C_2
REMARK    2  A    between atoms: C_2  and  O_3
REMARK    3  A    between atoms: C_2  and  C_13
REMARK    4  A    between atoms: O_3  and  C_4
REMARK    5  A    between atoms: C_7  and  C_8
REMARK                            x       y       z     vdW  Elec       q    Type
REMARK                         _______ _______ _______ _____ _____    ______ ____
ROOT
ATOM      1  C   UNL     1      45.917   5.160  13.034  0.00  0.00    +0.000 A 
ATOM      2  C   UNL     1      46.361   4.471  14.162  0.00  0.00    +0.000 A 
ATOM      3  C   UNL     1      47.371   5.015  14.958  0.00  0.00    +0.000 A 
ATOM      4  C   UNL     1      47.918   6.234  14.581  0.00  0.00    +0.000 A 
ATOM      5  N   UNL     1      47.532   6.925  13.472  0.00  0.00    +0.000 NA
ATOM      6  C   UNL     1      46.548   6.361  12.727  0.00  0.00    +0.000 A 
ENDROOT
BRANCH   4   7
ATOM      7  C   UNL     1      48.997   6.857  15.411  0.00  0.00    +0.000 C 
ATOM      8  N   UNL     1      48.588   7.387  16.606  0.00  0.00    +0.000 N 
ATOM      9  O   UNL     1      50.168   6.897  15.055  0.00  0.00    +0.000 OA
ATOM     10  H   UNL     1      47.609   7.343  16.862  0.00  0.00    +0.000 HD
ATOM     11  H   UNL     1      49.260   7.837  17.209  0.00  0.00    +0.000 HD
ENDBRANCH   4   7
BRANCH   1  12
ATOM     12  O   UNL     1      44.904   4.572  12.327  0.00  0.00    +0.000 OA
BRANCH  12  14
ATOM     13  C   UNL     1      43.098   5.539  10.996  0.00  0.00    +0.000 C 
ATOM     14  C   UNL     1      44.577   5.139  11.047  0.00  0.00    +0.000 C 
BRANCH  14  15
ATOM     15  C   UNL     1      44.843   4.129   9.935  0.00  0.00    +0.000 A 
ATOM     16  C   UNL     1      44.416   2.798  10.101  0.00  0.00    +0.000 A 
ATOM     17  C   UNL     1      44.722   1.820   9.153  0.00  0.00    +0.000 A 
ATOM     18  C   UNL     1      45.459   2.159   8.020  0.00  0.00    +0.000 A 
ATOM     19  C   UNL     1      45.877   3.476   7.837  0.00  0.00    +0.000 A 
ATOM     20 CL   UNL     1      46.791   3.888   6.438  0.00  0.00    +0.000 Cl
ATOM     21  C   UNL     1      45.577   4.458   8.784  0.00  0.00    +0.000 A 
ENDBRANCH  14  15
ENDBRANCH  12  14
ENDBRANCH   1  12
TORSDOF 4
ENDMDL
MODEL 9
REMARK VINA RESULT:    -5.769      3.761      5.834
REMARK INTER + INTRA:          -7.678
REMARK INTER:                  -7.137
REMARK INTRA:                  -0.541
REMARK UNBOUND:                -0.560
REMARK  Name = 
REMARK  5 active torsions:
REMARK  status: ('A' for Active; 'I' for Inactive)
REMARK    1  A    between atoms: C_1  and  C_2
REMARK    2  A    between atoms: C_2  and  O_3
REMARK    3  A    between atoms: C_2  and  C_13
REMARK    4  A    between atoms: O_3  and  C_4
REMARK    5  A    between atoms: C_7  and  C_8
REMARK                            x       y       z     vdW  Elec       q    Type
REMARK                         _______ _______ _______ _____ _____    ______ ____
ROOT
ATOM      1  C   UNL     1      47.073   5.423  13.103  0.00  0.00    +0.000 A 
ATOM      2  C   UNL     1      46.496   6.062  12.007  0.00  0.00    +0.000 A 
ATOM      3  C   UNL     1      45.240   5.662  11.548  0.00  0.00    +0.000 A 
ATOM      4  C   UNL     1      44.607   4.612  12.201  0.00  0.00    +0.000 A 
ATOM      5  N   UNL     1      45.148   3.944  13.258  0.00  0.00    +0.000 NA
ATOM      6  C   UNL     1      46.370   4.365  13.671  0.00  0.00    +0.000 A 
ENDROOT
BRANCH   4   7
ATOM      7  C   UNL     1      43.255   4.157  11.749  0.00  0.00    +0.000 C 
ATOM      8  N   UNL     1      42.275   5.114  11.765  0.00  0.00    +0.000 N 
ATOM      9  O   UNL     1      43.028   3.009  11.387  0.00  0.00    +0.000 OA
ATOM     10  H   UNL     1      42.498   6.051  12.079  0.00  0.00    +0.000 HD
ATOM     11  H   UNL     1      41.336   4.873  11.487  0.00  0.00    +0.000 HD
ENDBRANCH   4   7
BRANCH   1  12
ATOM     12  O   UNL     1      48.291   5.896  13.506  0.00  0.00    +0.000 OA
BRANCH  12  14
ATOM     13  C   UNL     1      49.036   8.128  14.163  0.00  0.00    +0.000 C 
ATOM     14  C   UNL     1      48.306   6.848  14.584  0.00  0.00    +0.000 C 
BRANCH  14  15
ATOM     15  C   UNL     1      49.018   6.263  15.800  0.00  0.00    +0.000 A 
ATOM     16  C   UNL     1      50.334   6.672  16.086  0.00  0.00    +0.000 A 
ATOM     17  C   UNL     1      51.056   6.092  17.131  0.00  0.00    +0.000 A 
ATOM     18  C   UNL     1      50.472   5.095  17.909  0.00  0.00    +0.000 A 
ATOM     19  C   UNL     1      49.165   4.690  17.644  0.00  0.00    +0.000 A 
ATOM     20 CL   UNL     1      48.449   3.455  18.605  0.00  0.00    +0.000 Cl
ATOM     21  C   UNL     1      48.439   5.264  16.597  0.00  0.00    +0.000 A 
ENDBRANCH  14  15
ENDBRANCH  12  14
ENDBRANCH   1  12
TORSDOF 4
ENDMDL
