MODEL 1
REMARK VINA RESULT:    -8.172      0.000      0.000
REMARK INTER + INTRA:         -12.788
REMARK INTER:                 -11.516
REMARK INTRA:                  -1.272
REMARK UNBOUND:                -1.272
REMARK  Name = 
REMARK  7 active torsions:
REMARK  status: ('A' for Active; 'I' for Inactive)
REMARK    1  A    between atoms: C_2  and  C_3
REMARK    2  A    between atoms: C_6  and  N_7
REMARK    3  A    between atoms: N_7  and  C_8
REMARK    4  A    between atoms: C_8  and  C_9
REMARK    5  A    between atoms: C_14  and  C_15
REMARK    6  A    between atoms: C_19  and  O_20
REMARK    7  A    between atoms: O_20  and  C_21
REMARK                            x       y       z     vdW  Elec       q    Type
REMARK                         _______ _______ _______ _____ _____    ______ ____
ROOT
ATOM      1  C   UNL     1      45.059   5.402  12.187  0.00  0.00    +0.000 A 
ATOM      2  C   UNL     1      45.511   4.457  13.119  0.00  0.00    +0.000 A 
ATOM      3  C   UNL     1      46.753   4.600  13.719  0.00  0.00    +0.000 A 
ATOM      4  F   UNL     1      47.211   3.631  14.521  0.00  0.00    +0.000 F 
ATOM      5  C   UNL     1      47.559   5.697  13.441  0.00  0.00    +0.000 A 
ATOM      6  C   UNL     1      47.114   6.708  12.577  0.00  0.00    +0.000 A 
ATOM      7  C   UNL     1      45.847   6.548  11.986  0.00  0.00    +0.000 A 
ENDROOT
BRANCH   6   8
ATOM      8  C   UNL     1      47.973   7.848  12.197  0.00  0.00    +0.000 A 
ATOM      9  C   UNL     1      47.455   9.150  12.070  0.00  0.00    +0.000 A 
ATOM     10  C   UNL     1      48.249  10.201  11.608  0.00  0.00    +0.000 A 
ATOM     11  C   UNL     1      49.588   9.978  11.299  0.00  0.00    +0.000 A 
ATOM     12  C   UNL     1      50.142   8.710  11.462  0.00  0.00    +0.000 A 
ATOM     13  C   UNL     1      49.332   7.651  11.881  0.00  0.00    +0.000 A 
BRANCH  12  14
ATOM     14  O   UNL     1      51.466   8.603  11.135  0.00  0.00    +0.000 OA
BRANCH  14  15
ATOM     15  C   UNL     1      51.870   7.322  10.676  0.00  0.00    +0.000 C 
ATOM     16  F   UNL     1      51.612   7.228   9.349  0.00  0.00    +0.000 F 
ATOM     17  F   UNL     1      53.217   7.248  10.818  0.00  0.00    +0.000 F 
ENDBRANCH  14  15
ENDBRANCH  12  14
ENDBRANCH   6   8
BRANCH   1  18
ATOM     18  C   UNL     1      43.869   5.096  11.288  0.00  0.00    +0.000 C 
ATOM     19  C   UNL     1      42.676   4.355  11.864  0.00  0.00    +0.000 C 
ATOM     20  C   UNL     1      42.597   5.835  11.711  0.00  0.00    +0.000 C 
BRANCH  18  21
ATOM     21  N   UNL     1      44.151   5.099   9.859  0.00  0.00    +0.000 N 
ATOM     22  H   UNL     1      43.936   5.922   9.306  0.00  0.00    +0.000 HD
BRANCH  21  26
ATOM     23  C   UNL     1      46.671   2.803   7.581  0.00  0.00    +0.000 A 
ATOM     24  C   UNL     1      46.694   4.186   7.573  0.00  0.00    +0.000 A 
ATOM     25  N   UNL     1      45.872   4.934   8.348  0.00  0.00    +0.000 NA
ATOM     26  C   UNL     1      44.998   4.272   9.141  0.00  0.00    +0.000 A 
ATOM     27  C   UNL     1      44.982   2.879   9.142  0.00  0.00    +0.000 A 
ATOM     28  N   UNL     1      45.813   2.113   8.373  0.00  0.00    +0.000 NA
BRANCH  23  30
ATOM     29  N   UNL     1      48.322   1.497   6.055  0.00  0.00    +0.000 NA
ATOM     30  C   UNL     1      47.564   2.061   6.733  0.00  0.00    +0.000 C 
ENDBRANCH  23  30
ENDBRANCH  21  26
ENDBRANCH  18  21
ENDBRANCH   1  18
TORSDOF 7
ENDMDL
MODEL 2
REMARK VINA RESULT:    -8.081      3.069      5.085
REMARK INTER + INTRA:         -12.660
REMARK INTER:                 -11.713
REMARK INTRA:                  -0.946
REMARK UNBOUND:                -1.272
REMARK  Name = 
REMARK  7 active torsions:
REMARK  status: ('A' for Active; 'I' for Inactive)
REMARK    1  A    between atoms: C_2  and  C_3
REMARK    2  A    between atoms: C_6  and  N_7
REMARK    3  A    between atoms: N_7  and  C_8
REMARK    4  A    between atoms: C_8  and  C_9
REMARK    5  A    between atoms: C_14  and  C_15
REMARK    6  A    between atoms: C_19  and  O_20
REMARK    7  A    between atoms: O_20  and  C_21
REMARK                            x       y       z     vdW  Elec       q    Type
REMARK                         _______ _______ _______ _____ _____    ______ ____
ROOT
ATOM      1  C   UNL     1      45.532   4.919  12.158  0.00  0.00    +0.000 A 
ATOM      2  C   UNL     1      46.035   6.113  11.621  0.00  0.00    +0.000 A 
ATOM      3  C   UNL     1      46.996   6.841  12.305  0.00  0.00    +0.000 A 
ATOM      4  F   UNL     1      47.380   8.032  11.828  0.00  0.00    +0.000 F 
ATOM      5  C   UNL     1      47.510   6.390  13.515  0.00  0.00    +0.000 A 
ATOM      6  C   UNL     1      47.095   5.162  14.050  0.00  0.00    +0.000 A 
ATOM      7  C   UNL     1      46.126   4.433  13.335  0.00  0.00    +0.000 A 
ENDROOT
BRANCH   6   8
ATOM      8  C   UNL     1      47.559   4.686  15.370  0.00  0.00    +0.000 A 
ATOM      9  C   UNL     1      47.502   3.326  15.724  0.00  0.00    +0.000 A 
ATOM     10  C   UNL     1      47.842   2.899  17.009  0.00  0.00    +0.000 A 
ATOM     11  C   UNL     1      48.283   3.821  17.954  0.00  0.00    +0.000 A 
ATOM     12  C   UNL     1      48.397   5.169  17.618  0.00  0.00    +0.000 A 
ATOM     13  C   UNL     1      48.012   5.597  16.344  0.00  0.00    +0.000 A 
BRANCH  12  14
ATOM     14  O   UNL     1      48.845   5.987  18.618  0.00  0.00    +0.000 OA
BRANCH  14  15
ATOM     15  C   UNL     1      47.836   6.731  19.283  0.00  0.00    +0.000 C 
ATOM     16  F   UNL     1      47.523   7.817  18.535  0.00  0.00    +0.000 F 
ATOM     17  F   UNL     1      46.724   5.956  19.330  0.00  0.00    +0.000 F 
ENDBRANCH  14  15
ENDBRANCH  12  14
ENDBRANCH   6   8
BRANCH   1  18
ATOM     18  C   UNL     1      44.265   4.289  11.597  0.00  0.00    +0.000 C 
ATOM     19  C   UNL     1      43.439   3.373  12.480  0.00  0.00    +0.000 C 
ATOM     20  C   UNL     1      42.995   4.784  12.294  0.00  0.00    +0.000 C 
BRANCH  18  21
ATOM     21  N   UNL     1      44.196   4.217  10.143  0.00  0.00    +0.000 N 
ATOM     22  H   UNL     1      43.615   4.875   9.634  0.00  0.00    +0.000 HD
BRANCH  21  26
ATOM     23  C   UNL     1      46.743   2.546   7.398  0.00  0.00    +0.000 A 
ATOM     24  C   UNL     1      46.512   3.908   7.484  0.00  0.00    +0.000 A 
ATOM     25  N   UNL     1      45.685   4.450   8.412  0.00  0.00    +0.000 NA
ATOM     26  C   UNL     1      45.069   3.599   9.264  0.00  0.00    +0.000 A 
ATOM     27  C   UNL     1      45.308   2.230   9.168  0.00  0.00    +0.000 A 
ATOM     28  N   UNL     1      46.147   1.671   8.245  0.00  0.00    +0.000 NA
BRANCH  23  30
ATOM     29  N   UNL     1      48.377   1.640   5.591  0.00  0.00    +0.000 NA
ATOM     30  C   UNL     1      47.626   2.028   6.390  0.00  0.00    +0.000 C 
ENDBRANCH  23  30
ENDBRANCH  21  26
ENDBRANCH  18  21
ENDBRANCH   1  18
TORSDOF 7
ENDMDL
MODEL 3
REMARK VINA RESULT:    -8.021      3.090      4.408
REMARK INTER + INTRA:         -12.575
REMARK INTER:                 -11.553
REMARK INTRA:                  -1.022
REMARK UNBOUND:                -1.272
REMARK  Name = 
REMARK  7 active torsions:
REMARK  status: ('A' for Active; 'I' for Inactive)
REMARK    1  A    between atoms: C_2  and  C_3
REMARK    2  A    between atoms: C_6  and  N_7
REMARK    3  A    between atoms: N_7  and  C_8
REMARK    4  A    between atoms: C_8  and  C_9
REMARK    5  A    between atoms: C_14  and  C_15
REMARK    6  A    between atoms: C_19  and  O_20
REMARK    7  A    between atoms: O_20  and  C_21
REMARK                            x       y       z     vdW  Elec       q    Type
REMARK                         _______ _______ _______ _____ _____    ______ ____
ROOT
ATOM      1  C   UNL     1      45.049   6.079  11.811  0.00  0.00    +0.000 A 
ATOM      2  C   UNL     1      44.833   7.394  11.377  0.00  0.00    +0.000 A 
ATOM      3  C   UNL     1      45.553   8.443  11.928  0.00  0.00    +0.000 A 
ATOM      4  F   UNL     1      45.254   9.701  11.580  0.00  0.00    +0.000 F 
ATOM      5  C   UNL     1      46.528   8.214  12.892  0.00  0.00    +0.000 A 
ATOM      6  C   UNL     1      46.835   6.906  13.297  0.00  0.00    +0.000 A 
ATOM      7  C   UNL     1      46.099   5.856  12.718  0.00  0.00    +0.000 A 
ENDROOT
BRANCH   6   8
ATOM      8  C   UNL     1      47.808   6.628  14.373  0.00  0.00    +0.000 A 
ATOM      9  C   UNL     1      49.013   7.347  14.479  0.00  0.00    +0.000 A 
ATOM     10  C   UNL     1      49.974   7.007  15.433  0.00  0.00    +0.000 A 
ATOM     11  C   UNL     1      49.732   5.965  16.324  0.00  0.00    +0.000 A 
ATOM     12  C   UNL     1      48.527   5.267  16.276  0.00  0.00    +0.000 A 
ATOM     13  C   UNL     1      47.587   5.582  15.290  0.00  0.00    +0.000 A 
BRANCH  12  14
ATOM     14  O   UNL     1      48.391   4.268  17.199  0.00  0.00    +0.000 OA
BRANCH  14  15
ATOM     15  C   UNL     1      47.815   3.068  16.706  0.00  0.00    +0.000 C 
ATOM     16  F   UNL     1      48.807   2.203  16.380  0.00  0.00    +0.000 F 
ATOM     17  F   UNL     1      47.123   2.502  17.726  0.00  0.00    +0.000 F 
ENDBRANCH  14  15
ENDBRANCH  12  14
ENDBRANCH   6   8
BRANCH   1  18
ATOM     18  C   UNL     1      44.058   4.976  11.465  0.00  0.00    +0.000 C 
ATOM     19  C   UNL     1      43.630   3.999  12.545  0.00  0.00    +0.000 C 
ATOM     20  C   UNL     1      42.721   5.127  12.195  0.00  0.00    +0.000 C 
BRANCH  18  21
ATOM     21  N   UNL     1      43.967   4.641  10.050  0.00  0.00    +0.000 N 
ATOM     22  H   UNL     1      43.337   5.162   9.450  0.00  0.00    +0.000 HD
BRANCH  21  26
ATOM     23  C   UNL     1      46.597   2.683   7.587  0.00  0.00    +0.000 A 
ATOM     24  C   UNL     1      46.446   4.058   7.591  0.00  0.00    +0.000 A 
ATOM     25  N   UNL     1      45.590   4.695   8.427  0.00  0.00    +0.000 NA
ATOM     26  C   UNL     1      44.861   3.927   9.269  0.00  0.00    +0.000 A 
ATOM     27  C   UNL     1      45.021   2.543   9.258  0.00  0.00    +0.000 A 
ATOM     28  N   UNL     1      45.888   1.889   8.428  0.00  0.00    +0.000 NA
BRANCH  23  30
ATOM     29  N   UNL     1      48.261   1.517   5.966  0.00  0.00    +0.000 NA
ATOM     30  C   UNL     1      47.517   2.061   6.674  0.00  0.00    +0.000 C 
ENDBRANCH  23  30
ENDBRANCH  21  26
ENDBRANCH  18  21
ENDBRANCH   1  18
TORSDOF 7
ENDMDL
MODEL 4
REMARK VINA RESULT:    -7.279      1.813      2.352
REMARK INTER + INTRA:         -11.529
REMARK INTER:                 -10.732
REMARK INTRA:                  -0.797
REMARK UNBOUND:                -1.272
REMARK  Name = 
REMARK  7 active torsions:
REMARK  status: ('A' for Active; 'I' for Inactive)
REMARK    1  A    between atoms: C_2  and  C_3
REMARK    2  A    between atoms: C_6  and  N_7
REMARK    3  A    between atoms: N_7  and  C_8
REMARK    4  A    between atoms: C_8  and  C_9
REMARK    5  A    between atoms: C_14  and  C_15
REMARK    6  A    between atoms: C_19  and  O_20
REMARK    7  A    between atoms: O_20  and  C_21
REMARK                            x       y       z     vdW  Elec       q    Type
REMARK                         _______ _______ _______ _____ _____    ______ ____
ROOT
ATOM      1  C   UNL     1      44.859   6.603  11.375  0.00  0.00    +0.000 A 
ATOM      2  C   UNL     1      44.134   7.803  11.388  0.00  0.00    +0.000 A 
ATOM      3  C   UNL     1      44.746   8.990  11.758  0.00  0.00    +0.000 A 
ATOM      4  F   UNL     1      44.010  10.103  11.870  0.00  0.00    +0.000 F 
ATOM      5  C   UNL     1      46.096   9.027  12.087  0.00  0.00    +0.000 A 
ATOM      6  C   UNL     1      46.880   7.867  12.011  0.00  0.00    +0.000 A 
ATOM      7  C   UNL     1      46.241   6.674  11.624  0.00  0.00    +0.000 A 
ENDROOT
BRANCH   6   8
ATOM      8  C   UNL     1      48.297   7.850  12.427  0.00  0.00    +0.000 A 
ATOM      9  C   UNL     1      48.669   7.613  13.763  0.00  0.00    +0.000 A 
ATOM     10  C   UNL     1      50.002   7.704  14.168  0.00  0.00    +0.000 A 
ATOM     11  C   UNL     1      50.994   7.997  13.237  0.00  0.00    +0.000 A 
ATOM     12  C   UNL     1      50.662   8.188  11.897  0.00  0.00    +0.000 A 
ATOM     13  C   UNL     1      49.321   8.140  11.505  0.00  0.00    +0.000 A 
BRANCH  12  14
ATOM     14  O   UNL     1      51.713   8.464  11.067  0.00  0.00    +0.000 OA
BRANCH  14  15
ATOM     15  C   UNL     1      52.155   7.375  10.273  0.00  0.00    +0.000 C 
ATOM     16  F   UNL     1      52.423   7.820   9.021  0.00  0.00    +0.000 F 
ATOM     17  F   UNL     1      53.331   6.945  10.793  0.00  0.00    +0.000 F 
ENDBRANCH  14  15
ENDBRANCH  12  14
ENDBRANCH   6   8
BRANCH   1  18
ATOM     18  C   UNL     1      44.140   5.263  11.296  0.00  0.00    +0.000 C 
ATOM     19  C   UNL     1      44.087   4.377  12.527  0.00  0.00    +0.000 C 
ATOM     20  C   UNL     1      42.894   5.203  12.183  0.00  0.00    +0.000 C 
BRANCH  18  21
ATOM     21  N   UNL     1      43.983   4.719   9.953  0.00  0.00    +0.000 N 
ATOM     22  H   UNL     1      43.257   5.082   9.346  0.00  0.00    +0.000 HD
BRANCH  21  26
ATOM     23  C   UNL     1      46.654   2.719   7.570  0.00  0.00    +0.000 A 
ATOM     24  C   UNL     1      46.494   4.093   7.538  0.00  0.00    +0.000 A 
ATOM     25  N   UNL     1      45.624   4.745   8.348  0.00  0.00    +0.000 NA
ATOM     26  C   UNL     1      44.891   3.993   9.201  0.00  0.00    +0.000 A 
ATOM     27  C   UNL     1      45.060   2.610   9.226  0.00  0.00    +0.000 A 
ATOM     28  N   UNL     1      45.941   1.942   8.422  0.00  0.00    +0.000 NA
BRANCH  23  30
ATOM     29  N   UNL     1      48.342   1.524   5.996  0.00  0.00    +0.000 NA
ATOM     30  C   UNL     1      47.589   2.081   6.684  0.00  0.00    +0.000 C 
ENDBRANCH  23  30
ENDBRANCH  21  26
ENDBRANCH  18  21
ENDBRANCH   1  18
TORSDOF 7
ENDMDL
MODEL 5
REMARK VINA RESULT:    -7.248      2.828      3.723
REMARK INTER + INTRA:         -11.485
REMARK INTER:                 -10.538
REMARK INTRA:                  -0.948
REMARK UNBOUND:                -1.272
REMARK  Name = 
REMARK  7 active torsions:
REMARK  status: ('A' for Active; 'I' for Inactive)
REMARK    1  A    between atoms: C_2  and  C_3
REMARK    2  A    between atoms: C_6  and  N_7
REMARK    3  A    between atoms: N_7  and  C_8
REMARK    4  A    between atoms: C_8  and  C_9
REMARK    5  A    between atoms: C_14  and  C_15
REMARK    6  A    between atoms: C_19  and  O_20
REMARK    7  A    between atoms: O_20  and  C_21
REMARK                            x       y       z     vdW  Elec       q    Type
REMARK                         _______ _______ _______ _____ _____    ______ ____
ROOT
ATOM      1  C   UNL     1      44.875   6.326  11.673  0.00  0.00    +0.000 A 
ATOM      2  C   UNL     1      44.246   7.528  11.318  0.00  0.00    +0.000 A 
ATOM      3  C   UNL     1      44.824   8.745  11.644  0.00  0.00    +0.000 A 
ATOM      4  F   UNL     1      44.154   9.878  11.394  0.00  0.00    +0.000 F 
ATOM      5  C   UNL     1      46.051   8.805  12.294  0.00  0.00    +0.000 A 
ATOM      6  C   UNL     1      46.754   7.630  12.597  0.00  0.00    +0.000 A 
ATOM      7  C   UNL     1      46.155   6.405  12.248  0.00  0.00    +0.000 A 
ENDROOT
BRANCH   6   8
ATOM      8  C   UNL     1      48.021   7.649  13.355  0.00  0.00    +0.000 A 
ATOM      9  C   UNL     1      49.077   8.510  13.002  0.00  0.00    +0.000 A 
ATOM     10  C   UNL     1      50.308   8.447  13.657  0.00  0.00    +0.000 A 
ATOM     11  C   UNL     1      50.497   7.547  14.701  0.00  0.00    +0.000 A 
ATOM     12  C   UNL     1      49.454   6.715  15.105  0.00  0.00    +0.000 A 
ATOM     13  C   UNL     1      48.237   6.750  14.418  0.00  0.00    +0.000 A 
BRANCH  12  14
ATOM     14  O   UNL     1      49.744   5.874  16.143  0.00  0.00    +0.000 OA
BRANCH  14  15
ATOM     15  C   UNL     1      50.975   6.130  16.800  0.00  0.00    +0.000 C 
ATOM     16  F   UNL     1      50.725   6.740  17.985  0.00  0.00    +0.000 F 
ATOM     17  F   UNL     1      51.538   4.931  17.090  0.00  0.00    +0.000 F 
ENDBRANCH  14  15
ENDBRANCH  12  14
ENDBRANCH   6   8
BRANCH   1  18
ATOM     18  C   UNL     1      44.114   5.008  11.621  0.00  0.00    +0.000 C 
ATOM     19  C   UNL     1      44.117   4.102  12.838  0.00  0.00    +0.000 C 
ATOM     20  C   UNL     1      42.929   4.966  12.589  0.00  0.00    +0.000 C 
BRANCH  18  21
ATOM     21  N   UNL     1      43.851   4.493  10.284  0.00  0.00    +0.000 N 
ATOM     22  H   UNL     1      43.003   4.764   9.798  0.00  0.00    +0.000 HD
BRANCH  21  26
ATOM     23  C   UNL     1      46.512   2.680   7.744  0.00  0.00    +0.000 A 
ATOM     24  C   UNL     1      45.712   1.977   8.628  0.00  0.00    +0.000 A 
ATOM     25  N   UNL     1      44.819   2.587   9.446  0.00  0.00    +0.000 NA
ATOM     26  C   UNL     1      44.740   3.936   9.379  0.00  0.00    +0.000 A 
ATOM     27  C   UNL     1      45.550   4.634   8.486  0.00  0.00    +0.000 A 
ATOM     28  N   UNL     1      46.447   4.031   7.649  0.00  0.00    +0.000 NA
BRANCH  23  30
ATOM     29  N   UNL     1      48.176   1.433   6.184  0.00  0.00    +0.000 NA
ATOM     30  C   UNL     1      47.445   1.980   6.904  0.00  0.00    +0.000 C 
ENDBRANCH  23  30
ENDBRANCH  21  26
ENDBRANCH  18  21
ENDBRANCH   1  18
TORSDOF 7
ENDMDL
MODEL 6
REMARK VINA RESULT:    -7.162      4.681      7.768
REMARK INTER + INTRA:         -11.364
REMARK INTER:                 -10.427
REMARK INTRA:                  -0.937
REMARK UNBOUND:                -1.272
REMARK  Name = 
REMARK  7 active torsions:
REMARK  status: ('A' for Active; 'I' for Inactive)
REMARK    1  A    between atoms: C_2  and  C_3
REMARK    2  A    between atoms: C_6  and  N_7
REMARK    3  A    between atoms: N_7  and  C_8
REMARK    4  A    between atoms: C_8  and  C_9
REMARK    5  A    between atoms: C_14  and  C_15
REMARK    6  A    between atoms: C_19  and  O_20
REMARK    7  A    between atoms: O_20  and  C_21
REMARK                            x       y       z     vdW  Elec       q    Type
REMARK                         _______ _______ _______ _____ _____    ______ ____
ROOT
ATOM      1  C   UNL     1      47.276   7.757  12.519  0.00  0.00    +0.000 A 
ATOM      2  C   UNL     1      46.314   8.768  12.654  0.00  0.00    +0.000 A 
ATOM      3  C   UNL     1      45.072   8.640  12.053  0.00  0.00    +0.000 A 
ATOM      4  F   UNL     1      44.210   9.664  12.103  0.00  0.00    +0.000 F 
ATOM      5  C   UNL     1      44.737   7.498  11.336  0.00  0.00    +0.000 A 
ATOM      6  C   UNL     1      45.638   6.427  11.242  0.00  0.00    +0.000 A 
ATOM      7  C   UNL     1      46.890   6.573  11.868  0.00  0.00    +0.000 A 
ENDROOT
BRANCH   6   8
ATOM      8  C   UNL     1      45.350   5.231  10.425  0.00  0.00    +0.000 A 
ATOM      9  C   UNL     1      44.734   4.093  10.979  0.00  0.00    +0.000 A 
ATOM     10  C   UNL     1      44.561   2.929  10.228  0.00  0.00    +0.000 A 
ATOM     11  C   UNL     1      44.968   2.892   8.897  0.00  0.00    +0.000 A 
ATOM     12  C   UNL     1      45.536   4.019   8.307  0.00  0.00    +0.000 A 
ATOM     13  C   UNL     1      45.748   5.168   9.076  0.00  0.00    +0.000 A 
BRANCH  12  14
ATOM     14  O   UNL     1      45.894   3.877   6.995  0.00  0.00    +0.000 OA
BRANCH  14  15
ATOM     15  C   UNL     1      46.679   2.731   6.706  0.00  0.00    +0.000 C 
ATOM     16  F   UNL     1      46.768   2.584   5.361  0.00  0.00    +0.000 F 
ATOM     17  F   UNL     1      47.935   2.975   7.156  0.00  0.00    +0.000 F 
ENDBRANCH  14  15
ENDBRANCH  12  14
ENDBRANCH   6   8
BRANCH   1  18
ATOM     18  C   UNL     1      48.731   8.017  12.884  0.00  0.00    +0.000 C 
ATOM     19  C   UNL     1      49.829   7.396  12.041  0.00  0.00    +0.000 C 
ATOM     20  C   UNL     1      49.476   8.827  11.820  0.00  0.00    +0.000 C 
BRANCH  18  21
ATOM     21  N   UNL     1      48.964   8.427  14.263  0.00  0.00    +0.000 N 
ATOM     22  H   UNL     1      48.900   9.408  14.513  0.00  0.00    +0.000 HD
BRANCH  21  26
ATOM     23  C   UNL     1      48.755   6.000  17.561  0.00  0.00    +0.000 A 
ATOM     24  C   UNL     1      48.704   5.519  16.264  0.00  0.00    +0.000 A 
ATOM     25  N   UNL     1      48.798   6.330  15.182  0.00  0.00    +0.000 NA
ATOM     26  C   UNL     1      48.934   7.656  15.413  0.00  0.00    +0.000 A 
ATOM     27  C   UNL     1      48.984   8.130  16.722  0.00  0.00    +0.000 A 
ATOM     28  N   UNL     1      48.901   7.322  17.821  0.00  0.00    +0.000 NA
BRANCH  23  30
ATOM     29  N   UNL     1      48.509   4.351  19.555  0.00  0.00    +0.000 NA
ATOM     30  C   UNL     1      48.645   5.093  18.670  0.00  0.00    +0.000 C 
ENDBRANCH  23  30
ENDBRANCH  21  26
ENDBRANCH  18  21
ENDBRANCH   1  18
TORSDOF 7
ENDMDL
MODEL 7
REMARK VINA RESULT:    -6.894      4.817      7.604
REMARK INTER + INTRA:         -10.987
REMARK INTER:                  -9.858
REMARK INTRA:                  -1.129
REMARK UNBOUND:                -1.272
REMARK  Name = 
REMARK  7 active torsions:
REMARK  status: ('A' for Active; 'I' for Inactive)
REMARK    1  A    between atoms: C_2  and  C_3
REMARK    2  A    between atoms: C_6  and  N_7
REMARK    3  A    between atoms: N_7  and  C_8
REMARK    4  A    between atoms: C_8  and  C_9
REMARK    5  A    between atoms: C_14  and  C_15
REMARK    6  A    between atoms: C_19  and  O_20
REMARK    7  A    between atoms: O_20  and  C_21
REMARK                            x       y       z     vdW  Elec       q    Type
REMARK                         _______ _______ _______ _____ _____    ______ ____
ROOT
ATOM      1  C   UNL     1      48.341   7.813  14.139  0.00  0.00    +0.000 A 
ATOM      2  C   UNL     1      49.328   8.038  13.169  0.00  0.00    +0.000 A 
ATOM      3  C   UNL     1      49.135   7.622  11.860  0.00  0.00    +0.000 A 
ATOM      4  F   UNL     1      50.133   7.748  10.977  0.00  0.00    +0.000 F 
ATOM      5  C   UNL     1      47.949   7.010  11.471  0.00  0.00    +0.000 A 
ATOM      6  C   UNL     1      46.903   6.836  12.389  0.00  0.00    +0.000 A 
ATOM      7  C   UNL     1      47.116   7.274  13.710  0.00  0.00    +0.000 A 
ENDROOT
BRANCH   6   8
ATOM      8  C   UNL     1      45.661   6.120  12.034  0.00  0.00    +0.000 A 
ATOM      9  C   UNL     1      44.647   5.890  12.983  0.00  0.00    +0.000 A 
ATOM     10  C   UNL     1      43.525   5.121  12.668  0.00  0.00    +0.000 A 
ATOM     11  C   UNL     1      43.377   4.598  11.387  0.00  0.00    +0.000 A 
ATOM     12  C   UNL     1      44.340   4.851  10.411  0.00  0.00    +0.000 A 
ATOM     13  C   UNL     1      45.483   5.583  10.744  0.00  0.00    +0.000 A 
BRANCH  12  14
ATOM     14  O   UNL     1      44.093   4.296   9.186  0.00  0.00    +0.000 OA
BRANCH  14  15
ATOM     15  C   UNL     1      45.190   3.608   8.606  0.00  0.00    +0.000 C 
ATOM     16  F   UNL     1      45.357   2.424   9.245  0.00  0.00    +0.000 F 
ATOM     17  F   UNL     1      44.854   3.316   7.325  0.00  0.00    +0.000 F 
ENDBRANCH  14  15
ENDBRANCH  12  14
ENDBRANCH   6   8
BRANCH   1  18
ATOM     18  C   UNL     1      48.662   7.959  15.620  0.00  0.00    +0.000 C 
ATOM     19  C   UNL     1      49.824   8.839  16.043  0.00  0.00    +0.000 C 
ATOM     20  C   UNL     1      48.439   9.381  16.140  0.00  0.00    +0.000 C 
BRANCH  18  21
ATOM     21  N   UNL     1      48.159   6.892  16.475  0.00  0.00    +0.000 N 
ATOM     22  H   UNL     1      47.194   6.908  16.784  0.00  0.00    +0.000 HD
BRANCH  21  26
ATOM     23  C   UNL     1      49.923   3.239  17.078  0.00  0.00    +0.000 A 
ATOM     24  C   UNL     1      50.531   4.436  17.413  0.00  0.00    +0.000 A 
ATOM     25  N   UNL     1      49.927   5.636  17.230  0.00  0.00    +0.000 NA
ATOM     26  C   UNL     1      48.688   5.629  16.686  0.00  0.00    +0.000 A 
ATOM     27  C   UNL     1      48.086   4.419  16.353  0.00  0.00    +0.000 A 
ATOM     28  N   UNL     1      48.678   3.202  16.541  0.00  0.00    +0.000 NA
BRANCH  23  30
ATOM     29  N   UNL     1      51.212   1.010  17.437  0.00  0.00    +0.000 NA
ATOM     30  C   UNL     1      50.614   1.996  17.290  0.00  0.00    +0.000 C 
ENDBRANCH  23  30
ENDBRANCH  21  26
ENDBRANCH  18  21
ENDBRANCH   1  18
TORSDOF 7
ENDMDL
MODEL 8
REMARK VINA RESULT:    -6.724      2.140      2.380
REMARK INTER + INTRA:         -10.748
REMARK INTER:                  -9.794
REMARK INTRA:                  -0.954
REMARK UNBOUND:                -1.272
REMARK  Name = 
REMARK  7 active torsions:
REMARK  status: ('A' for Active; 'I' for Inactive)
REMARK    1  A    between atoms: C_2  and  C_3
REMARK    2  A    between atoms: C_6  and  N_7
REMARK    3  A    between atoms: N_7  and  C_8
REMARK    4  A    between atoms: C_8  and  C_9
REMARK    5  A    between atoms: C_14  and  C_15
REMARK    6  A    between atoms: C_19  and  O_20
REMARK    7  A    between atoms: O_20  and  C_21
REMARK                            x       y       z     vdW  Elec       q    Type
REMARK                         _______ _______ _______ _____ _____    ______ ____
ROOT
ATOM      1  C   UNL     1      45.104   5.766  12.410  0.00  0.00    +0.000 A 
ATOM      2  C   UNL     1      45.415   4.722  13.293  0.00  0.00    +0.000 A 
ATOM      3  C   UNL     1      46.601   4.739  14.010  0.00  0.00    +0.000 A 
ATOM      4  F   UNL     1      46.929   3.681  14.763  0.00  0.00    +0.000 F 
ATOM      5  C   UNL     1      47.489   5.802  13.901  0.00  0.00    +0.000 A 
ATOM      6  C   UNL     1      47.183   6.905  13.090  0.00  0.00    +0.000 A 
ATOM      7  C   UNL     1      45.969   6.873  12.378  0.00  0.00    +0.000 A 
ENDROOT
BRANCH   6   8
ATOM      8  C   UNL     1      48.134   8.017  12.887  0.00  0.00    +0.000 A 
ATOM      9  C   UNL     1      48.636   8.332  11.611  0.00  0.00    +0.000 A 
ATOM     10  C   UNL     1      49.614   9.313  11.443  0.00  0.00    +0.000 A 
ATOM     11  C   UNL     1      50.084  10.024  12.543  0.00  0.00    +0.000 A 
ATOM     12  C   UNL     1      49.571   9.768  13.813  0.00  0.00    +0.000 A 
ATOM     13  C   UNL     1      48.624   8.753  13.983  0.00  0.00    +0.000 A 
BRANCH  12  14
ATOM     14  O   UNL     1      50.098  10.526  14.822  0.00  0.00    +0.000 OA
BRANCH  14  15
ATOM     15  C   UNL     1      51.091   9.881  15.604  0.00  0.00    +0.000 C 
ATOM     16  F   UNL     1      50.526   9.425  16.749  0.00  0.00    +0.000 F 
ATOM     17  F   UNL     1      51.506   8.791  14.913  0.00  0.00    +0.000 F 
ENDBRANCH  14  15
ENDBRANCH  12  14
ENDBRANCH   6   8
BRANCH   1  18
ATOM     18  C   UNL     1      43.988   5.608  11.386  0.00  0.00    +0.000 C 
ATOM     19  C   UNL     1      42.620   5.141  11.847  0.00  0.00    +0.000 C 
ATOM     20  C   UNL     1      42.839   6.595  11.601  0.00  0.00    +0.000 C 
BRANCH  18  21
ATOM     21  N   UNL     1      44.427   5.446  10.006  0.00  0.00    +0.000 N 
ATOM     22  H   UNL     1      44.589   6.266   9.431  0.00  0.00    +0.000 HD
BRANCH  21  26
ATOM     23  C   UNL     1      46.138   2.282   8.037  0.00  0.00    +0.000 A 
ATOM     24  C   UNL     1      46.319   3.599   7.652  0.00  0.00    +0.000 A 
ATOM     25  N   UNL     1      45.767   4.638   8.325  0.00  0.00    +0.000 NA
ATOM     26  C   UNL     1      45.006   4.341   9.404  0.00  0.00    +0.000 A 
ATOM     27  C   UNL     1      44.830   3.012   9.783  0.00  0.00    +0.000 A 
ATOM     28  N   UNL     1      45.390   1.957   9.120  0.00  0.00    +0.000 NA
BRANCH  23  30
ATOM     29  N   UNL     1      47.190   0.340   6.666  0.00  0.00    +0.000 NA
ATOM     30  C   UNL     1      46.745   1.221   7.281  0.00  0.00    +0.000 C 
ENDBRANCH  23  30
ENDBRANCH  21  26
ENDBRANCH  18  21
ENDBRANCH   1  18
TORSDOF 7
ENDMDL
MODEL 9
REMARK VINA RESULT:    -6.397      4.952      7.970
REMARK INTER + INTRA:         -10.287
REMARK INTER:                  -9.026
REMARK INTRA:                  -1.261
REMARK UNBOUND:                -1.272
REMARK  Name = 
REMARK  7 active torsions:
REMARK  status: ('A' for Active; 'I' for Inactive)
REMARK    1  A    between atoms: C_2  and  C_3
REMARK    2  A    between atoms: C_6  and  N_7
REMARK    3  A    between atoms: N_7  and  C_8
REMARK    4  A    between atoms: C_8  and  C_9
REMARK    5  A    between atoms: C_14  and  C_15
REMARK    6  A    between atoms: C_19  and  O_20
REMARK    7  A    between atoms: O_20  and  C_21
REMARK                            x       y       z     vdW  Elec       q    Type
REMARK                         _______ _______ _______ _____ _____    ______ ____
ROOT
ATOM      1  C   UNL     1      48.951   8.188  15.128  0.00  0.00    +0.000 A 
ATOM      2  C   UNL     1      50.140   8.565  14.489  0.00  0.00    +0.000 A 
ATOM      3  C   UNL     1      50.378   8.197  13.174  0.00  0.00    +0.000 A 
ATOM      4  F   UNL     1      51.565   8.473  12.619  0.00  0.00    +0.000 F 
ATOM      5  C   UNL     1      49.433   7.481  12.448  0.00  0.00    +0.000 A 
ATOM      6  C   UNL     1      48.196   7.151  13.022  0.00  0.00    +0.000 A 
ATOM      7  C   UNL     1      47.971   7.543  14.355  0.00  0.00    +0.000 A 
ENDROOT
BRANCH   6   8
ATOM      8  C   UNL     1      47.199   6.325  12.311  0.00  0.00    +0.000 A 
ATOM      9  C   UNL     1      46.747   6.664  11.022  0.00  0.00    +0.000 A 
ATOM     10  C   UNL     1      45.729   5.939  10.401  0.00  0.00    +0.000 A 
ATOM     11  C   UNL     1      45.167   4.839  11.042  0.00  0.00    +0.000 A 
ATOM     12  C   UNL     1      45.627   4.449  12.298  0.00  0.00    +0.000 A 
ATOM     13  C   UNL     1      46.616   5.205  12.935  0.00  0.00    +0.000 A 
BRANCH  12  14
ATOM     14  O   UNL     1      45.011   3.353  12.835  0.00  0.00    +0.000 OA
BRANCH  14  15
ATOM     15  C   UNL     1      43.628   3.237  12.543  0.00  0.00    +0.000 C 
ATOM     16  F   UNL     1      43.270   1.931  12.610  0.00  0.00    +0.000 F 
ATOM     17  F   UNL     1      42.950   3.878  13.527  0.00  0.00    +0.000 F 
ENDBRANCH  14  15
ENDBRANCH  12  14
ENDBRANCH   6   8
BRANCH   1  18
ATOM     18  C   UNL     1      48.817   8.293  16.641  0.00  0.00    +0.000 C 
ATOM     19  C   UNL     1      49.638   9.329  17.388  0.00  0.00    +0.000 C 
ATOM     20  C   UNL     1      48.206   9.622  17.094  0.00  0.00    +0.000 C 
BRANCH  18  21
ATOM     21  N   UNL     1      48.298   7.105  17.306  0.00  0.00    +0.000 N 
ATOM     22  H   UNL     1      47.330   7.080  17.608  0.00  0.00    +0.000 HD
BRANCH  21  26
ATOM     23  C   UNL     1      50.022   3.384  17.314  0.00  0.00    +0.000 A 
ATOM     24  C   UNL     1      50.623   4.497  17.875  0.00  0.00    +0.000 A 
ATOM     25  N   UNL     1      50.032   5.717  17.887  0.00  0.00    +0.000 NA
ATOM     26  C   UNL     1      48.813   5.819  17.309  0.00  0.00    +0.000 A 
ATOM     27  C   UNL     1      48.217   4.693  16.746  0.00  0.00    +0.000 A 
ATOM     28  N   UNL     1      48.797   3.456  16.737  0.00  0.00    +0.000 NA
BRANCH  23  30
ATOM     29  N   UNL     1      51.216   1.075  17.300  0.00  0.00    +0.000 NA
ATOM     30  C   UNL     1      50.699   2.116  17.327  0.00  0.00    +0.000 C 
ENDBRANCH  23  30
ENDBRANCH  21  26
ENDBRANCH  18  21
ENDBRANCH   1  18
TORSDOF 7
ENDMDL
