MODEL 1
REMARK VINA RESULT:    -7.945      0.000      0.000
REMARK INTER + INTRA:         -11.853
REMARK INTER:                 -10.964
REMARK INTRA:                  -0.889
REMARK UNBOUND:                -0.889
REMARK  Name = 
REMARK  7 active torsions:
REMARK  status: ('A' for Active; 'I' for Inactive)
REMARK    1  A    between atoms: N_1  and  C_2
REMARK    2  A    between atoms: C_2  and  N_3
REMARK    3  A    between atoms: C_2  and  C_16
REMARK    4  A    between atoms: C_4  and  C_6
REMARK    5  A    between atoms: C_19  and  C_20
REMARK    6  A    between atoms: C_20  and  N_21
REMARK    7  A    between atoms: C_22  and  C_24
REMARK                            x       y       z     vdW  Elec       q    Type
REMARK                         _______ _______ _______ _____ _____    ______ ____
ROOT
ATOM      1  C   UNL     1      46.760   7.932  13.024  0.00  0.00    +0.000 C 
ENDROOT
BRANCH   1   2
ATOM      2  C   UNL     1      46.086   6.798  12.273  0.00  0.00    +0.000 A 
ATOM      3  C   UNL     1      46.419   6.533  10.934  0.00  0.00    +0.000 A 
ATOM      4  C   UNL     1      45.737   5.548  10.208  0.00  0.00    +0.000 A 
ATOM      5  C   UNL     1      44.699   4.815  10.797  0.00  0.00    +0.000 A 
ATOM      6  C   UNL     1      44.395   5.043  12.145  0.00  0.00    +0.000 A 
ATOM      7  C   UNL     1      45.079   6.021  12.871  0.00  0.00    +0.000 A 
BRANCH   5   8
ATOM      8  C   UNL     1      43.908   3.811  10.003  0.00  0.00    +0.000 C 
BRANCH   8   9
ATOM      9  N   UNL     1      44.407   3.675   8.655  0.00  0.00    +0.000 N 
ATOM     10  C   UNL     1      45.248   2.643   8.319  0.00  0.00    +0.000 C 
ATOM     11  O   UNL     1      45.630   1.812   9.141  0.00  0.00    +0.000 OA
ATOM     12  H   UNL     1      44.192   4.405   7.984  0.00  0.00    +0.000 HD
BRANCH  10  13
ATOM     13  C   UNL     1      45.776   2.618   6.888  0.00  0.00    +0.000 C 
ATOM     14  C   UNL     1      46.587   1.375   6.611  0.00  0.00    +0.000 C 
ATOM     15  C   UNL     1      47.983   1.772   7.045  0.00  0.00    +0.000 C 
ATOM     16  O   UNL     1      48.062   3.205   6.966  0.00  0.00    +0.000 OA
ATOM     17  C   UNL     1      46.772   3.715   6.579  0.00  0.00    +0.000 C 
ENDBRANCH  10  13
ENDBRANCH   8   9
ENDBRANCH   5   8
ENDBRANCH   1   2
BRANCH   1  18
ATOM     18  N   UNL     1      47.261   7.500  14.298  0.00  0.00    +0.000 N 
ATOM     19  C   UNL     1      48.341   6.656  14.407  0.00  0.00    +0.000 C 
ATOM     20  O   UNL     1      49.023   6.338  13.436  0.00  0.00    +0.000 OA
ATOM     21  H   UNL     1      46.562   7.446  15.034  0.00  0.00    +0.000 HD
BRANCH  19  22
ATOM     22  C   UNL     1      48.723   6.242  15.760  0.00  0.00    +0.000 A 
ATOM     23  C   UNL     1      49.637   7.005  16.475  0.00  0.00    +0.000 A 
ATOM     24  S   UNL     1      49.966   6.397  18.034  0.00  0.00    +0.000 S 
ATOM     25  C   UNL     1      48.933   5.067  17.791  0.00  0.00    +0.000 A 
ATOM     26  N   UNL     1      48.786   4.111  18.746  0.00  0.00    +0.000 NA
ATOM     27  C   UNL     1      47.996   3.144  18.415  0.00  0.00    +0.000 A 
ATOM     28  N   UNL     1      47.327   3.056  17.221  0.00  0.00    +0.000 N 
ATOM     29  C   UNL     1      47.416   4.018  16.241  0.00  0.00    +0.000 A 
ATOM     30  O   UNL     1      46.763   3.952  15.203  0.00  0.00    +0.000 OA
ATOM     31  C   UNL     1      48.318   5.107  16.553  0.00  0.00    +0.000 A 
ATOM     32  H   UNL     1      46.709   2.280  17.034  0.00  0.00    +0.000 HD
ENDBRANCH  19  22
ENDBRANCH   1  18
BRANCH   1  33
ATOM     33  N   UNL     1      45.802   8.988  13.290  0.00  0.00    +0.000 NA
ATOM     34  H   UNL     1      46.285   9.665  13.886  0.00  0.00    +0.000 HD
ATOM     35  H   UNL     1      45.072   8.600  13.878  0.00  0.00    +0.000 HD
ENDBRANCH   1  33
TORSDOF 7
ENDMDL
MODEL 2
REMARK VINA RESULT:    -7.901      4.259      9.237
REMARK INTER + INTRA:         -11.793
REMARK INTER:                 -10.560
REMARK INTRA:                  -1.232
REMARK UNBOUND:                -0.889
REMARK  Name = 
REMARK  7 active torsions:
REMARK  status: ('A' for Active; 'I' for Inactive)
REMARK    1  A    between atoms: N_1  and  C_2
REMARK    2  A    between atoms: C_2  and  N_3
REMARK    3  A    between atoms: C_2  and  C_16
REMARK    4  A    between atoms: C_4  and  C_6
REMARK    5  A    between atoms: C_19  and  C_20
REMARK    6  A    between atoms: C_20  and  N_21
REMARK    7  A    between atoms: C_22  and  C_24
REMARK                            x       y       z     vdW  Elec       q    Type
REMARK                         _______ _______ _______ _____ _____    ______ ____
ROOT
ATOM      1  C   UNL     1      47.429   3.367  16.541  0.00  0.00    +0.000 C 
ENDROOT
BRANCH   1   2
ATOM      2  C   UNL     1      48.802   3.836  16.988  0.00  0.00    +0.000 A 
ATOM      3  C   UNL     1      49.132   5.201  16.964  0.00  0.00    +0.000 A 
ATOM      4  C   UNL     1      50.425   5.631  17.288  0.00  0.00    +0.000 A 
ATOM      5  C   UNL     1      51.420   4.707  17.631  0.00  0.00    +0.000 A 
ATOM      6  C   UNL     1      51.084   3.350  17.702  0.00  0.00    +0.000 A 
ATOM      7  C   UNL     1      49.793   2.922  17.385  0.00  0.00    +0.000 A 
BRANCH   5   8
ATOM      8  C   UNL     1      52.832   5.152  17.905  0.00  0.00    +0.000 C 
BRANCH   8   9
ATOM      9  N   UNL     1      53.670   4.057  18.332  0.00  0.00    +0.000 N 
ATOM     10  C   UNL     1      54.795   3.714  17.622  0.00  0.00    +0.000 C 
ATOM     11  O   UNL     1      55.124   4.299  16.592  0.00  0.00    +0.000 OA
ATOM     12  H   UNL     1      53.364   3.492  19.118  0.00  0.00    +0.000 HD
BRANCH  10  13
ATOM     13  C   UNL     1      55.580   2.502  18.113  0.00  0.00    +0.000 C 
ATOM     14  C   UNL     1      55.433   1.324  17.180  0.00  0.00    +0.000 C 
ATOM     15  C   UNL     1      54.185   0.635  17.692  0.00  0.00    +0.000 C 
ATOM     16  O   UNL     1      54.035   0.998  19.075  0.00  0.00    +0.000 OA
ATOM     17  C   UNL     1      55.079   1.930  19.420  0.00  0.00    +0.000 C 
ENDBRANCH  10  13
ENDBRANCH   8   9
ENDBRANCH   5   8
ENDBRANCH   1   2
BRANCH   1  18
ATOM     18  N   UNL     1      46.805   4.315  15.662  0.00  0.00    +0.000 N 
ATOM     19  C   UNL     1      46.802   4.148  14.297  0.00  0.00    +0.000 C 
ATOM     20  O   UNL     1      47.205   3.118  13.763  0.00  0.00    +0.000 OA
ATOM     21  H   UNL     1      46.792   5.270  16.006  0.00  0.00    +0.000 HD
BRANCH  19  22
ATOM     22  C   UNL     1      46.182   5.212  13.502  0.00  0.00    +0.000 A 
ATOM     23  C   UNL     1      46.860   6.409  13.317  0.00  0.00    +0.000 A 
ATOM     24  S   UNL     1      46.011   7.537  12.360  0.00  0.00    +0.000 S 
ATOM     25  C   UNL     1      44.687   6.481  12.196  0.00  0.00    +0.000 A 
ATOM     26  N   UNL     1      43.574   6.855  11.513  0.00  0.00    +0.000 NA
ATOM     27  C   UNL     1      42.636   5.967  11.495  0.00  0.00    +0.000 A 
ATOM     28  N   UNL     1      42.718   4.732  12.087  0.00  0.00    +0.000 N 
ATOM     29  C   UNL     1      43.838   4.297  12.756  0.00  0.00    +0.000 A 
ATOM     30  O   UNL     1      43.916   3.166  13.228  0.00  0.00    +0.000 OA
ATOM     31  C   UNL     1      44.906   5.272  12.832  0.00  0.00    +0.000 A 
ATOM     32  H   UNL     1      41.952   4.077  12.018  0.00  0.00    +0.000 HD
ENDBRANCH  19  22
ENDBRANCH   1  18
BRANCH   1  33
ATOM     33  N   UNL     1      46.555   3.228  17.691  0.00  0.00    +0.000 NA
ATOM     34  H   UNL     1      46.880   3.913  18.379  0.00  0.00    +0.000 HD
ATOM     35  H   UNL     1      46.746   2.326  18.114  0.00  0.00    +0.000 HD
ENDBRANCH   1  33
TORSDOF 7
ENDMDL
MODEL 3
REMARK VINA RESULT:    -7.744      2.020      3.637
REMARK INTER + INTRA:         -11.575
REMARK INTER:                 -10.503
REMARK INTRA:                  -1.072
REMARK UNBOUND:                -0.889
REMARK  Name = 
REMARK  7 active torsions:
REMARK  status: ('A' for Active; 'I' for Inactive)
REMARK    1  A    between atoms: N_1  and  C_2
REMARK    2  A    between atoms: C_2  and  N_3
REMARK    3  A    between atoms: C_2  and  C_16
REMARK    4  A    between atoms: C_4  and  C_6
REMARK    5  A    between atoms: C_19  and  C_20
REMARK    6  A    between atoms: C_20  and  N_21
REMARK    7  A    between atoms: C_22  and  C_24
REMARK                            x       y       z     vdW  Elec       q    Type
REMARK                         _______ _______ _______ _____ _____    ______ ____
ROOT
ATOM      1  C   UNL     1      46.651   4.371  14.399  0.00  0.00    +0.000 C 
ENDROOT
BRANCH   1   2
ATOM      2  C   UNL     1      45.911   4.454  13.077  0.00  0.00    +0.000 A 
ATOM      3  C   UNL     1      45.303   3.314  12.527  0.00  0.00    +0.000 A 
ATOM      4  C   UNL     1      44.697   3.363  11.265  0.00  0.00    +0.000 A 
ATOM      5  C   UNL     1      44.695   4.548  10.518  0.00  0.00    +0.000 A 
ATOM      6  C   UNL     1      45.259   5.700  11.082  0.00  0.00    +0.000 A 
ATOM      7  C   UNL     1      45.858   5.652  12.343  0.00  0.00    +0.000 A 
BRANCH   5   8
ATOM      8  C   UNL     1      44.117   4.592   9.130  0.00  0.00    +0.000 C 
BRANCH   8   9
ATOM      9  N   UNL     1      44.522   3.453   8.340  0.00  0.00    +0.000 N 
ATOM     10  C   UNL     1      45.668   3.493   7.586  0.00  0.00    +0.000 C 
ATOM     11  O   UNL     1      46.382   4.493   7.529  0.00  0.00    +0.000 OA
ATOM     12  H   UNL     1      43.897   2.655   8.287  0.00  0.00    +0.000 HD
BRANCH  10  13
ATOM     13  C   UNL     1      45.980   2.267   6.733  0.00  0.00    +0.000 C 
ATOM     14  C   UNL     1      47.000   1.370   7.393  0.00  0.00    +0.000 C 
ATOM     15  C   UNL     1      48.319   1.947   6.922  0.00  0.00    +0.000 C 
ATOM     16  O   UNL     1      48.064   2.641   5.690  0.00  0.00    +0.000 OA
ATOM     17  C   UNL     1      46.651   2.586   5.416  0.00  0.00    +0.000 C 
ENDBRANCH  10  13
ENDBRANCH   8   9
ENDBRANCH   5   8
ENDBRANCH   1   2
BRANCH   1  18
ATOM     18  N   UNL     1      47.458   5.535  14.630  0.00  0.00    +0.000 N 
ATOM     19  C   UNL     1      48.269   5.651  15.735  0.00  0.00    +0.000 C 
ATOM     20  O   UNL     1      48.457   4.715  16.509  0.00  0.00    +0.000 OA
ATOM     21  H   UNL     1      47.081   6.397  14.247  0.00  0.00    +0.000 HD
BRANCH  19  22
ATOM     22  C   UNL     1      49.002   6.911  15.889  0.00  0.00    +0.000 A 
ATOM     23  C   UNL     1      49.133   7.474  17.151  0.00  0.00    +0.000 A 
ATOM     24  S   UNL     1      50.020   8.930  17.164  0.00  0.00    +0.000 S 
ATOM     25  C   UNL     1      50.224   8.881  15.475  0.00  0.00    +0.000 A 
ATOM     26  N   UNL     1      50.875   9.878  14.820  0.00  0.00    +0.000 NA
ATOM     27  C   UNL     1      50.927   9.727  13.538  0.00  0.00    +0.000 A 
ATOM     28  N   UNL     1      50.401   8.660  12.854  0.00  0.00    +0.000 N 
ATOM     29  C   UNL     1      49.767   7.612  13.479  0.00  0.00    +0.000 A 
ATOM     30  O   UNL     1      49.355   6.637  12.857  0.00  0.00    +0.000 OA
ATOM     31  C   UNL     1      49.654   7.752  14.916  0.00  0.00    +0.000 A 
ATOM     32  H   UNL     1      50.494   8.597  11.851  0.00  0.00    +0.000 HD
ENDBRANCH  19  22
ENDBRANCH   1  18
BRANCH   1  33
ATOM     33  N   UNL     1      47.552   3.234  14.391  0.00  0.00    +0.000 NA
ATOM     34  H   UNL     1      47.570   2.893  13.427  0.00  0.00    +0.000 HD
ATOM     35  H   UNL     1      47.111   2.489  14.921  0.00  0.00    +0.000 HD
ENDBRANCH   1  33
TORSDOF 7
ENDMDL
MODEL 4
REMARK VINA RESULT:    -7.405      2.274      3.719
REMARK INTER + INTRA:         -11.108
REMARK INTER:                  -9.704
REMARK INTRA:                  -1.403
REMARK UNBOUND:                -0.889
REMARK  Name = 
REMARK  7 active torsions:
REMARK  status: ('A' for Active; 'I' for Inactive)
REMARK    1  A    between atoms: N_1  and  C_2
REMARK    2  A    between atoms: C_2  and  N_3
REMARK    3  A    between atoms: C_2  and  C_16
REMARK    4  A    between atoms: C_4  and  C_6
REMARK    5  A    between atoms: C_19  and  C_20
REMARK    6  A    between atoms: C_20  and  N_21
REMARK    7  A    between atoms: C_22  and  C_24
REMARK                            x       y       z     vdW  Elec       q    Type
REMARK                         _______ _______ _______ _____ _____    ______ ____
ROOT
ATOM      1  C   UNL     1      47.151   4.004  15.695  0.00  0.00    +0.000 C 
ENDROOT
BRANCH   1   2
ATOM      2  C   UNL     1      46.764   4.493  14.312  0.00  0.00    +0.000 A 
ATOM      3  C   UNL     1      47.056   5.808  13.913  0.00  0.00    +0.000 A 
ATOM      4  C   UNL     1      46.622   6.293  12.672  0.00  0.00    +0.000 A 
ATOM      5  C   UNL     1      45.876   5.482  11.808  0.00  0.00    +0.000 A 
ATOM      6  C   UNL     1      45.623   4.156  12.181  0.00  0.00    +0.000 A 
ATOM      7  C   UNL     1      46.060   3.670  13.416  0.00  0.00    +0.000 A 
BRANCH   5   8
ATOM      8  C   UNL     1      45.338   6.018  10.509  0.00  0.00    +0.000 C 
BRANCH   8   9
ATOM      9  N   UNL     1      44.896   4.961   9.630  0.00  0.00    +0.000 N 
ATOM     10  C   UNL     1      45.650   4.587   8.546  0.00  0.00    +0.000 C 
ATOM     11  O   UNL     1      46.711   5.141   8.262  0.00  0.00    +0.000 OA
ATOM     12  H   UNL     1      43.976   4.561   9.782  0.00  0.00    +0.000 HD
BRANCH  10  13
ATOM     13  C   UNL     1      45.070   3.508   7.638  0.00  0.00    +0.000 C 
ATOM     14  C   UNL     1      44.727   2.254   8.407  0.00  0.00    +0.000 C 
ATOM     15  C   UNL     1      46.025   1.474   8.389  0.00  0.00    +0.000 C 
ATOM     16  O   UNL     1      46.774   1.921   7.246  0.00  0.00    +0.000 OA
ATOM     17  C   UNL     1      46.042   2.983   6.604  0.00  0.00    +0.000 C 
ENDBRANCH  10  13
ENDBRANCH   8   9
ENDBRANCH   5   8
ENDBRANCH   1   2
BRANCH   1  18
ATOM     18  N   UNL     1      47.761   5.044  16.474  0.00  0.00    +0.000 N 
ATOM     19  C   UNL     1      48.109   4.857  17.792  0.00  0.00    +0.000 C 
ATOM     20  O   UNL     1      48.048   3.756  18.334  0.00  0.00    +0.000 OA
ATOM     21  H   UNL     1      47.507   5.987  16.198  0.00  0.00    +0.000 HD
BRANCH  19  22
ATOM     22  C   UNL     1      48.674   6.011  18.497  0.00  0.00    +0.000 A 
ATOM     23  C   UNL     1      48.214   6.325  19.769  0.00  0.00    +0.000 A 
ATOM     24  S   UNL     1      48.977   7.685  20.457  0.00  0.00    +0.000 S 
ATOM     25  C   UNL     1      49.919   7.929  19.061  0.00  0.00    +0.000 A 
ATOM     26  N   UNL     1      50.778   8.978  18.971  0.00  0.00    +0.000 NA
ATOM     27  C   UNL     1      51.404   9.058  17.844  0.00  0.00    +0.000 A 
ATOM     28  N   UNL     1      51.258   8.175  16.804  0.00  0.00    +0.000 N 
ATOM     29  C   UNL     1      50.428   7.079  16.865  0.00  0.00    +0.000 A 
ATOM     30  O   UNL     1      50.356   6.266  15.948  0.00  0.00    +0.000 OA
ATOM     31  C   UNL     1      49.679   6.965  18.099  0.00  0.00    +0.000 A 
ATOM     32  H   UNL     1      51.794   8.287  15.955  0.00  0.00    +0.000 HD
ENDBRANCH  19  22
ENDBRANCH   1  18
BRANCH   1  33
ATOM     33  N   UNL     1      48.127   2.936  15.588  0.00  0.00    +0.000 NA
ATOM     34  H   UNL     1      48.711   3.166  14.780  0.00  0.00    +0.000 HD
ATOM     35  H   UNL     1      47.631   2.093  15.317  0.00  0.00    +0.000 HD
ENDBRANCH   1  33
TORSDOF 7
ENDMDL
MODEL 5
REMARK VINA RESULT:    -7.321      3.398      5.576
REMARK INTER + INTRA:         -10.991
REMARK INTER:                  -9.775
REMARK INTRA:                  -1.216
REMARK UNBOUND:                -0.889
REMARK  Name = 
REMARK  7 active torsions:
REMARK  status: ('A' for Active; 'I' for Inactive)
REMARK    1  A    between atoms: N_1  and  C_2
REMARK    2  A    between atoms: C_2  and  N_3
REMARK    3  A    between atoms: C_2  and  C_16
REMARK    4  A    between atoms: C_4  and  C_6
REMARK    5  A    between atoms: C_19  and  C_20
REMARK    6  A    between atoms: C_20  and  N_21
REMARK    7  A    between atoms: C_22  and  C_24
REMARK                            x       y       z     vdW  Elec       q    Type
REMARK                         _______ _______ _______ _____ _____    ______ ____
ROOT
ATOM      1  C   UNL     1      48.019   4.141  17.560  0.00  0.00    +0.000 C 
ENDROOT
BRANCH   1   2
ATOM      2  C   UNL     1      47.821   4.687  16.157  0.00  0.00    +0.000 A 
ATOM      3  C   UNL     1      48.469   5.866  15.754  0.00  0.00    +0.000 A 
ATOM      4  C   UNL     1      48.221   6.424  14.493  0.00  0.00    +0.000 A 
ATOM      5  C   UNL     1      47.312   5.825  13.612  0.00  0.00    +0.000 A 
ATOM      6  C   UNL     1      46.700   4.624  13.991  0.00  0.00    +0.000 A 
ATOM      7  C   UNL     1      46.952   4.064  15.246  0.00  0.00    +0.000 A 
BRANCH   5   8
ATOM      8  C   UNL     1      46.979   6.458  12.288  0.00  0.00    +0.000 C 
BRANCH   8   9
ATOM      9  N   UNL     1      45.919   5.756  11.605  0.00  0.00    +0.000 N 
ATOM     10  C   UNL     1      44.700   6.353  11.400  0.00  0.00    +0.000 C 
ATOM     11  O   UNL     1      44.448   7.486  11.804  0.00  0.00    +0.000 OA
ATOM     12  H   UNL     1      46.067   4.783  11.355  0.00  0.00    +0.000 HD
BRANCH  10  13
ATOM     13  C   UNL     1      43.621   5.510  10.728  0.00  0.00    +0.000 C 
ATOM     14  C   UNL     1      42.652   4.934  11.733  0.00  0.00    +0.000 C 
ATOM     15  C   UNL     1      43.314   3.635  12.143  0.00  0.00    +0.000 C 
ATOM     16  O   UNL     1      44.181   3.241  11.066  0.00  0.00    +0.000 OA
ATOM     17  C   UNL     1      44.145   4.262  10.051  0.00  0.00    +0.000 C 
ENDBRANCH  10  13
ENDBRANCH   8   9
ENDBRANCH   5   8
ENDBRANCH   1   2
BRANCH   1  18
ATOM     18  N   UNL     1      49.374   3.722  17.781  0.00  0.00    +0.000 N 
ATOM     19  C   UNL     1      49.921   2.650  17.117  0.00  0.00    +0.000 C 
ATOM     20  O   UNL     1      49.335   2.079  16.200  0.00  0.00    +0.000 OA
ATOM     21  H   UNL     1      49.732   3.916  18.711  0.00  0.00    +0.000 HD
BRANCH  19  22
ATOM     22  C   UNL     1      51.296   2.285  17.470  0.00  0.00    +0.000 A 
ATOM     23  C   UNL     1      51.633   0.945  17.606  0.00  0.00    +0.000 A 
ATOM     24  S   UNL     1      53.270   0.687  18.006  0.00  0.00    +0.000 S 
ATOM     25  C   UNL     1      53.576   2.360  18.055  0.00  0.00    +0.000 A 
ATOM     26  N   UNL     1      54.805   2.837  18.388  0.00  0.00    +0.000 NA
ATOM     27  C   UNL     1      54.885   4.126  18.417  0.00  0.00    +0.000 A 
ATOM     28  N   UNL     1      53.852   4.981  18.126  0.00  0.00    +0.000 N 
ATOM     29  C   UNL     1      52.604   4.543  17.749  0.00  0.00    +0.000 A 
ATOM     30  O   UNL     1      51.708   5.322  17.435  0.00  0.00    +0.000 OA
ATOM     31  C   UNL     1      52.454   3.103  17.735  0.00  0.00    +0.000 A 
ATOM     32  H   UNL     1      53.990   5.981  18.150  0.00  0.00    +0.000 HD
ENDBRANCH  19  22
ENDBRANCH   1  18
BRANCH   1  33
ATOM     33  N   UNL     1      47.184   2.972  17.758  0.00  0.00    +0.000 NA
ATOM     34  H   UNL     1      47.570   2.242  17.153  0.00  0.00    +0.000 HD
ATOM     35  H   UNL     1      46.270   3.176  17.366  0.00  0.00    +0.000 HD
ENDBRANCH   1  33
TORSDOF 7
ENDMDL
MODEL 6
REMARK VINA RESULT:    -7.270      4.342      9.235
REMARK INTER + INTRA:         -10.922
REMARK INTER:                  -9.484
REMARK INTRA:                  -1.438
REMARK UNBOUND:                -0.889
REMARK  Name = 
REMARK  7 active torsions:
REMARK  status: ('A' for Active; 'I' for Inactive)
REMARK    1  A    between atoms: N_1  and  C_2
REMARK    2  A    between atoms: C_2  and  N_3
REMARK    3  A    between atoms: C_2  and  C_16
REMARK    4  A    between atoms: C_4  and  C_6
REMARK    5  A    between atoms: C_19  and  C_20
REMARK    6  A    between atoms: C_20  and  N_21
REMARK    7  A    between atoms: C_22  and  C_24
REMARK                            x       y       z     vdW  Elec       q    Type
REMARK                         _______ _______ _______ _____ _____    ______ ____
ROOT
ATOM      1  C   UNL     1      47.590   3.173  16.572  0.00  0.00    +0.000 C 
ENDROOT
BRANCH   1   2
ATOM      2  C   UNL     1      48.989   3.490  17.068  0.00  0.00    +0.000 A 
ATOM      3  C   UNL     1      49.358   4.812  17.364  0.00  0.00    +0.000 A 
ATOM      4  C   UNL     1      50.672   5.123  17.735  0.00  0.00    +0.000 A 
ATOM      5  C   UNL     1      51.650   4.123  17.807  0.00  0.00    +0.000 A 
ATOM      6  C   UNL     1      51.276   2.797  17.558  0.00  0.00    +0.000 A 
ATOM      7  C   UNL     1      49.964   2.486  17.194  0.00  0.00    +0.000 A 
BRANCH   5   8
ATOM      8  C   UNL     1      53.082   4.458  18.128  0.00  0.00    +0.000 C 
BRANCH   8   9
ATOM      9  N   UNL     1      53.860   3.278  18.420  0.00  0.00    +0.000 N 
ATOM     10  C   UNL     1      54.914   2.915  17.618  0.00  0.00    +0.000 C 
ATOM     11  O   UNL     1      55.227   3.555  16.615  0.00  0.00    +0.000 OA
ATOM     12  H   UNL     1      53.559   2.676  19.179  0.00  0.00    +0.000 HD
BRANCH  10  13
ATOM     13  C   UNL     1      55.636   1.618  17.967  0.00  0.00    +0.000 C 
ATOM     14  C   UNL     1      55.330   0.521  16.974  0.00  0.00    +0.000 C 
ATOM     15  C   UNL     1      54.072  -0.108  17.535  0.00  0.00    +0.000 C 
ATOM     16  O   UNL     1      54.051   0.167  18.946  0.00  0.00    +0.000 OA
ATOM     17  C   UNL     1      55.186   0.993  19.269  0.00  0.00    +0.000 C 
ENDBRANCH  10  13
ENDBRANCH   8   9
ENDBRANCH   5   8
ENDBRANCH   1   2
BRANCH   1  18
ATOM     18  N   UNL     1      47.060   4.235  15.763  0.00  0.00    +0.000 N 
ATOM     19  C   UNL     1      46.964   4.129  14.396  0.00  0.00    +0.000 C 
ATOM     20  O   UNL     1      47.192   3.078  13.803  0.00  0.00    +0.000 OA
ATOM     21  H   UNL     1      47.198   5.167  16.142  0.00  0.00    +0.000 HD
BRANCH  19  22
ATOM     22  C   UNL     1      46.459   5.302  13.676  0.00  0.00    +0.000 A 
ATOM     23  C   UNL     1      45.191   5.262  13.112  0.00  0.00    +0.000 A 
ATOM     24  S   UNL     1      44.747   6.706  12.321  0.00  0.00    +0.000 S 
ATOM     25  C   UNL     1      46.253   7.420  12.666  0.00  0.00    +0.000 A 
ATOM     26  N   UNL     1      46.552   8.670  12.224  0.00  0.00    +0.000 NA
ATOM     27  C   UNL     1      47.740   9.073  12.532  0.00  0.00    +0.000 A 
ATOM     28  N   UNL     1      48.651   8.344  13.255  0.00  0.00    +0.000 N 
ATOM     29  C   UNL     1      48.377   7.091  13.753  0.00  0.00    +0.000 A 
ATOM     30  O   UNL     1      49.182   6.477  14.448  0.00  0.00    +0.000 OA
ATOM     31  C   UNL     1      47.068   6.581  13.405  0.00  0.00    +0.000 A 
ATOM     32  H   UNL     1      49.558   8.728  13.476  0.00  0.00    +0.000 HD
ENDBRANCH  19  22
ENDBRANCH   1  18
BRANCH   1  33
ATOM     33  N   UNL     1      46.688   3.017  17.697  0.00  0.00    +0.000 NA
ATOM     34  H   UNL     1      47.195   3.364  18.516  0.00  0.00    +0.000 HD
ATOM     35  H   UNL     1      46.576   2.023  17.865  0.00  0.00    +0.000 HD
ENDBRANCH   1  33
TORSDOF 7
ENDMDL
MODEL 7
REMARK VINA RESULT:    -7.037      3.676      6.051
REMARK INTER + INTRA:         -10.600
REMARK INTER:                  -9.194
REMARK INTRA:                  -1.406
REMARK UNBOUND:                -0.889
REMARK  Name = 
REMARK  7 active torsions:
REMARK  status: ('A' for Active; 'I' for Inactive)
REMARK    1  A    between atoms: N_1  and  C_2
REMARK    2  A    between atoms: C_2  and  N_3
REMARK    3  A    between atoms: C_2  and  C_16
REMARK    4  A    between atoms: C_4  and  C_6
REMARK    5  A    between atoms: C_19  and  C_20
REMARK    6  A    between atoms: C_20  and  N_21
REMARK    7  A    between atoms: C_22  and  C_24
REMARK                            x       y       z     vdW  Elec       q    Type
REMARK                         _______ _______ _______ _____ _____    ______ ____
ROOT
ATOM      1  C   UNL     1      49.076   5.227  19.174  0.00  0.00    +0.000 C 
ENDROOT
BRANCH   1   2
ATOM      2  C   UNL     1      48.517   5.277  17.763  0.00  0.00    +0.000 A 
ATOM      3  C   UNL     1      47.709   4.235  17.280  0.00  0.00    +0.000 A 
ATOM      4  C   UNL     1      47.265   4.230  15.951  0.00  0.00    +0.000 A 
ATOM      5  C   UNL     1      47.628   5.259  15.073  0.00  0.00    +0.000 A 
ATOM      6  C   UNL     1      48.394   6.323  15.562  0.00  0.00    +0.000 A 
ATOM      7  C   UNL     1      48.833   6.331  16.889  0.00  0.00    +0.000 A 
BRANCH   5   8
ATOM      8  C   UNL     1      47.222   5.223  13.624  0.00  0.00    +0.000 C 
BRANCH   8   9
ATOM      9  N   UNL     1      45.793   5.092  13.466  0.00  0.00    +0.000 N 
ATOM     10  C   UNL     1      45.234   3.893  13.101  0.00  0.00    +0.000 C 
ATOM     11  O   UNL     1      45.914   2.894  12.871  0.00  0.00    +0.000 OA
ATOM     12  H   UNL     1      45.220   5.926  13.547  0.00  0.00    +0.000 HD
BRANCH  10  13
ATOM     13  C   UNL     1      43.723   3.868  12.894  0.00  0.00    +0.000 C 
ATOM     14  C   UNL     1      43.352   3.328  11.533  0.00  0.00    +0.000 C 
ATOM     15  C   UNL     1      43.382   4.562  10.655  0.00  0.00    +0.000 C 
ATOM     16  O   UNL     1      43.167   5.697  11.509  0.00  0.00    +0.000 OA
ATOM     17  C   UNL     1      43.081   5.237  12.872  0.00  0.00    +0.000 C 
ENDBRANCH  10  13
ENDBRANCH   8   9
ENDBRANCH   5   8
ENDBRANCH   1   2
BRANCH   1  18
ATOM     18  N   UNL     1      50.216   4.359  19.263  0.00  0.00    +0.000 N 
ATOM     19  C   UNL     1      51.485   4.791  18.957  0.00  0.00    +0.000 C 
ATOM     20  O   UNL     1      51.737   5.972  18.727  0.00  0.00    +0.000 OA
ATOM     21  H   UNL     1      50.016   3.377  19.102  0.00  0.00    +0.000 HD
BRANCH  19  22
ATOM     22  C   UNL     1      52.559   3.796  19.032  0.00  0.00    +0.000 A 
ATOM     23  C   UNL     1      53.687   4.066  19.795  0.00  0.00    +0.000 A 
ATOM     24  S   UNL     1      54.836   2.807  19.790  0.00  0.00    +0.000 S 
ATOM     25  C   UNL     1      53.885   1.874  18.731  0.00  0.00    +0.000 A 
ATOM     26  N   UNL     1      54.319   0.666  18.282  0.00  0.00    +0.000 NA
ATOM     27  C   UNL     1      53.511   0.083  17.459  0.00  0.00    +0.000 A 
ATOM     28  N   UNL     1      52.301   0.591  17.059  0.00  0.00    +0.000 N 
ATOM     29  C   UNL     1      51.806   1.791  17.516  0.00  0.00    +0.000 A 
ATOM     30  O   UNL     1      50.695   2.202  17.194  0.00  0.00    +0.000 OA
ATOM     31  C   UNL     1      52.693   2.499  18.416  0.00  0.00    +0.000 A 
ATOM     32  H   UNL     1      51.709   0.072  16.426  0.00  0.00    +0.000 HD
ENDBRANCH  19  22
ENDBRANCH   1  18
BRANCH   1  33
ATOM     33  N   UNL     1      48.078   4.698  20.083  0.00  0.00    +0.000 NA
ATOM     34  H   UNL     1      47.400   4.198  19.501  0.00  0.00    +0.000 HD
ATOM     35  H   UNL     1      47.561   5.485  20.463  0.00  0.00    +0.000 HD
ENDBRANCH   1  33
TORSDOF 7
ENDMDL
MODEL 8
REMARK VINA RESULT:    -6.973      3.167      4.733
REMARK INTER + INTRA:         -10.511
REMARK INTER:                  -9.473
REMARK INTRA:                  -1.038
REMARK UNBOUND:                -0.889
REMARK  Name = 
REMARK  7 active torsions:
REMARK  status: ('A' for Active; 'I' for Inactive)
REMARK    1  A    between atoms: N_1  and  C_2
REMARK    2  A    between atoms: C_2  and  N_3
REMARK    3  A    between atoms: C_2  and  C_16
REMARK    4  A    between atoms: C_4  and  C_6
REMARK    5  A    between atoms: C_19  and  C_20
REMARK    6  A    between atoms: C_20  and  N_21
REMARK    7  A    between atoms: C_22  and  C_24
REMARK                            x       y       z     vdW  Elec       q    Type
REMARK                         _______ _______ _______ _____ _____    ______ ____
ROOT
ATOM      1  C   UNL     1      49.226   7.142  16.429  0.00  0.00    +0.000 C 
ENDROOT
BRANCH   1   2
ATOM      2  C   UNL     1      48.610   6.959  15.054  0.00  0.00    +0.000 A 
ATOM      3  C   UNL     1      48.683   7.985  14.098  0.00  0.00    +0.000 A 
ATOM      4  C   UNL     1      48.039   7.858  12.860  0.00  0.00    +0.000 A 
ATOM      5  C   UNL     1      47.298   6.709  12.555  0.00  0.00    +0.000 A 
ATOM      6  C   UNL     1      47.261   5.664  13.486  0.00  0.00    +0.000 A 
ATOM      7  C   UNL     1      47.908   5.789  14.718  0.00  0.00    +0.000 A 
BRANCH   5   8
ATOM      8  C   UNL     1      46.538   6.596  11.260  0.00  0.00    +0.000 C 
BRANCH   8   9
ATOM      9  N   UNL     1      45.246   5.979  11.444  0.00  0.00    +0.000 N 
ATOM     10  C   UNL     1      44.819   4.980  10.604  0.00  0.00    +0.000 C 
ATOM     11  O   UNL     1      45.495   4.586   9.656  0.00  0.00    +0.000 OA
ATOM     12  H   UNL     1      44.627   6.357  12.154  0.00  0.00    +0.000 HD
BRANCH  10  13
ATOM     13  C   UNL     1      43.413   4.435  10.836  0.00  0.00    +0.000 C 
ATOM     14  C   UNL     1      42.687   5.200  11.918  0.00  0.00    +0.000 C 
ATOM     15  C   UNL     1      43.101   4.479  13.184  0.00  0.00    +0.000 C 
ATOM     16  O   UNL     1      43.472   3.142  12.811  0.00  0.00    +0.000 OA
ATOM     17  C   UNL     1      43.381   3.023  11.378  0.00  0.00    +0.000 C 
ENDBRANCH  10  13
ENDBRANCH   8   9
ENDBRANCH   5   8
ENDBRANCH   1   2
BRANCH   1  18
ATOM     18  N   UNL     1      50.166   6.101  16.733  0.00  0.00    +0.000 N 
ATOM     19  C   UNL     1      50.859   6.070  17.920  0.00  0.00    +0.000 C 
ATOM     20  O   UNL     1      50.612   6.844  18.842  0.00  0.00    +0.000 OA
ATOM     21  H   UNL     1      50.627   5.696  15.924  0.00  0.00    +0.000 HD
BRANCH  19  22
ATOM     22  C   UNL     1      51.833   4.987  18.090  0.00  0.00    +0.000 A 
ATOM     23  C   UNL     1      53.109   5.284  18.550  0.00  0.00    +0.000 A 
ATOM     24  S   UNL     1      54.116   3.918  18.704  0.00  0.00    +0.000 S 
ATOM     25  C   UNL     1      52.896   2.886  18.119  0.00  0.00    +0.000 A 
ATOM     26  N   UNL     1      53.122   1.556  17.958  0.00  0.00    +0.000 NA
ATOM     27  C   UNL     1      52.118   0.900  17.477  0.00  0.00    +0.000 A 
ATOM     28  N   UNL     1      50.904   1.452  17.158  0.00  0.00    +0.000 N 
ATOM     29  C   UNL     1      50.619   2.786  17.339  0.00  0.00    +0.000 A 
ATOM     30  O   UNL     1      49.507   3.252  17.104  0.00  0.00    +0.000 OA
ATOM     31  C   UNL     1      51.725   3.570  17.845  0.00  0.00    +0.000 A 
ATOM     32  H   UNL     1      50.154   0.876  16.802  0.00  0.00    +0.000 HD
ENDBRANCH  19  22
ENDBRANCH   1  18
BRANCH   1  33
ATOM     33  N   UNL     1      48.194   7.080  17.446  0.00  0.00    +0.000 NA
ATOM     34  H   UNL     1      48.659   7.285  18.335  0.00  0.00    +0.000 HD
ATOM     35  H   UNL     1      47.899   6.112  17.526  0.00  0.00    +0.000 HD
ENDBRANCH   1  33
TORSDOF 7
ENDMDL
MODEL 9
REMARK VINA RESULT:    -6.821      3.841      9.290
REMARK INTER + INTRA:         -10.302
REMARK INTER:                  -9.103
REMARK INTRA:                  -1.199
REMARK UNBOUND:                -0.889
REMARK  Name = 
REMARK  7 active torsions:
REMARK  status: ('A' for Active; 'I' for Inactive)
REMARK    1  A    between atoms: N_1  and  C_2
REMARK    2  A    between atoms: C_2  and  N_3
REMARK    3  A    between atoms: C_2  and  C_16
REMARK    4  A    between atoms: C_4  and  C_6
REMARK    5  A    between atoms: C_19  and  C_20
REMARK    6  A    between atoms: C_20  and  N_21
REMARK    7  A    between atoms: C_22  and  C_24
REMARK                            x       y       z     vdW  Elec       q    Type
REMARK                         _______ _______ _______ _____ _____    ______ ____
ROOT
ATOM      1  C   UNL     1      47.628   3.237  16.839  0.00  0.00    +0.000 C 
ENDROOT
BRANCH   1   2
ATOM      2  C   UNL     1      48.769   3.739  17.704  0.00  0.00    +0.000 A 
ATOM      3  C   UNL     1      48.511   4.525  18.839  0.00  0.00    +0.000 A 
ATOM      4  C   UNL     1      49.562   5.066  19.590  0.00  0.00    +0.000 A 
ATOM      5  C   UNL     1      50.894   4.846  19.218  0.00  0.00    +0.000 A 
ATOM      6  C   UNL     1      51.157   4.024  18.115  0.00  0.00    +0.000 A 
ATOM      7  C   UNL     1      50.109   3.480  17.369  0.00  0.00    +0.000 A 
BRANCH   5   8
ATOM      8  C   UNL     1      52.028   5.487  19.971  0.00  0.00    +0.000 C 
BRANCH   8   9
ATOM      9  N   UNL     1      53.150   5.780  19.111  0.00  0.00    +0.000 N 
ATOM     10  C   UNL     1      53.489   7.077  18.814  0.00  0.00    +0.000 C 
ATOM     11  O   UNL     1      52.848   8.036  19.241  0.00  0.00    +0.000 OA
ATOM     12  H   UNL     1      53.630   5.006  18.663  0.00  0.00    +0.000 HD
BRANCH  10  13
ATOM     13  C   UNL     1      54.648   7.286  17.846  0.00  0.00    +0.000 C 
ATOM     14  C   UNL     1      54.187   7.897  16.544  0.00  0.00    +0.000 C 
ATOM     15  C   UNL     1      53.802   6.689  15.715  0.00  0.00    +0.000 C 
ATOM     16  O   UNL     1      54.539   5.568  16.230  0.00  0.00    +0.000 OA
ATOM     17  C   UNL     1      55.297   6.003  17.375  0.00  0.00    +0.000 C 
ENDBRANCH  10  13
ENDBRANCH   8   9
ENDBRANCH   5   8
ENDBRANCH   1   2
BRANCH   1  18
ATOM     18  N   UNL     1      47.156   4.253  15.940  0.00  0.00    +0.000 N 
ATOM     19  C   UNL     1      47.111   4.057  14.580  0.00  0.00    +0.000 C 
ATOM     20  O   UNL     1      47.336   2.963  14.069  0.00  0.00    +0.000 OA
ATOM     21  H   UNL     1      47.302   5.205  16.261  0.00  0.00    +0.000 HD
BRANCH  19  22
ATOM     22  C   UNL     1      46.663   5.189  13.763  0.00  0.00    +0.000 A 
ATOM     23  C   UNL     1      47.460   6.322  13.673  0.00  0.00    +0.000 A 
ATOM     24  S   UNL     1      46.805   7.542  12.677  0.00  0.00    +0.000 S 
ATOM     25  C   UNL     1      45.412   6.615  12.368  0.00  0.00    +0.000 A 
ATOM     26  N   UNL     1      44.403   7.104  11.599  0.00  0.00    +0.000 NA
ATOM     27  C   UNL     1      43.395   6.307  11.475  0.00  0.00    +0.000 A 
ATOM     28  N   UNL     1      43.312   5.057  12.036  0.00  0.00    +0.000 N 
ATOM     29  C   UNL     1      44.324   4.508  12.790  0.00  0.00    +0.000 A 
ATOM     30  O   UNL     1      44.257   3.366  13.234  0.00  0.00    +0.000 OA
ATOM     31  C   UNL     1      45.463   5.379  12.986  0.00  0.00    +0.000 A 
ATOM     32  H   UNL     1      42.500   4.477  11.883  0.00  0.00    +0.000 HD
ENDBRANCH  19  22
ENDBRANCH   1  18
BRANCH   1  33
ATOM     33  N   UNL     1      46.501   2.863  17.672  0.00  0.00    +0.000 NA
ATOM     34  H   UNL     1      46.705   3.230  18.606  0.00  0.00    +0.000 HD
ATOM     35  H   UNL     1      46.522   1.854  17.781  0.00  0.00    +0.000 HD
ENDBRANCH   1  33
TORSDOF 7
ENDMDL
