MODEL 1
REMARK VINA RESULT:    -7.218      0.000      0.000
REMARK INTER + INTRA:          -9.330
REMARK INTER:                  -8.906
REMARK INTRA:                  -0.425
REMARK UNBOUND:                -0.425
REMARK  Name = 
REMARK  5 active torsions:
REMARK  status: ('A' for Active; 'I' for Inactive)
REMARK    1  A    between atoms: C_1  and  C_2
REMARK    2  A    between atoms: C_2  and  C_3
REMARK    3  A    between atoms: C_2  and  C_14
REMARK    4  A    between atoms: C_3  and  N_4
REMARK    5  A    between atoms: C_9  and  C_10
REMARK                            x       y       z     vdW  Elec       q    Type
REMARK                         _______ _______ _______ _____ _____    ______ ____
ROOT
ATOM      1  N   UNL     1      45.641   4.974  11.050  0.00  0.00    +0.000 N 
ATOM      2  C   UNL     1      45.814   6.246  11.587  0.00  0.00    +0.000 A 
ATOM      3  N   UNL     1      46.800   6.391  12.486  0.00  0.00    +0.000 NA
ATOM      4  C   UNL     1      46.926   7.592  13.089  0.00  0.00    +0.000 A 
ATOM      5  C   UNL     1      46.099   8.651  12.833  0.00  0.00    +0.000 A 
ATOM      6  C   UNL     1      45.139   8.406  11.887  0.00  0.00    +0.000 A 
ATOM      7  N   UNL     1      44.987   7.229  11.233  0.00  0.00    +0.000 NA
ATOM      8  H   UNL     1      46.467   4.445  11.297  0.00  0.00    +0.000 HD
ENDROOT
BRANCH   6   9
ATOM      9  C   UNL     1      44.140   9.465  11.554  0.00  0.00    +0.000 C 
ATOM     10  N   UNL     1      43.103   9.070  10.753  0.00  0.00    +0.000 N 
ATOM     11  O   UNL     1      44.227  10.610  11.983  0.00  0.00    +0.000 OA
ATOM     12  H   UNL     1      43.019   8.095  10.492  0.00  0.00    +0.000 HD
ATOM     13  H   UNL     1      42.346   9.715  10.575  0.00  0.00    +0.000 HD
ENDBRANCH   6   9
BRANCH   1  14
ATOM     14  C   UNL     1      45.279   4.983   9.651  0.00  0.00    +0.000 C 
BRANCH  14  16
ATOM     15  C   UNL     1      44.081   2.782  10.300  0.00  0.00    +0.000 C 
ATOM     16  C   UNL     1      44.712   3.645   9.246  0.00  0.00    +0.000 C 
BRANCH  16  17
ATOM     17  C   UNL     1      45.404   2.965   8.069  0.00  0.00    +0.000 C 
ATOM     18  C   UNL     1      46.160   1.679   8.448  0.00  0.00    +0.000 C 
ATOM     19  C   UNL     1      46.814   1.036   7.223  0.00  0.00    +0.000 C 
ATOM     20  C   UNL     1      47.735   2.015   6.501  0.00  0.00    +0.000 C 
ATOM     21  C   UNL     1      46.999   3.296   6.122  0.00  0.00    +0.000 C 
ATOM     22  C   UNL     1      46.342   3.944   7.338  0.00  0.00    +0.000 C 
ENDBRANCH  16  17
ENDBRANCH  14  16
ENDBRANCH   1  14
TORSDOF 4
ENDMDL
MODEL 2
REMARK VINA RESULT:    -6.986      2.681      3.807
REMARK INTER + INTRA:          -9.045
REMARK INTER:                  -9.151
REMARK INTRA:                   0.107
REMARK UNBOUND:                -0.425
REMARK  Name = 
REMARK  5 active torsions:
REMARK  status: ('A' for Active; 'I' for Inactive)
REMARK    1  A    between atoms: C_1  and  C_2
REMARK    2  A    between atoms: C_2  and  C_3
REMARK    3  A    between atoms: C_2  and  C_14
REMARK    4  A    between atoms: C_3  and  N_4
REMARK    5  A    between atoms: C_9  and  C_10
REMARK                            x       y       z     vdW  Elec       q    Type
REMARK                         _______ _______ _______ _____ _____    ______ ____
ROOT
ATOM      1  N   UNL     1      45.378   5.806  10.836  0.00  0.00    +0.000 N 
ATOM      2  C   UNL     1      46.164   5.984  11.970  0.00  0.00    +0.000 A 
ATOM      3  N   UNL     1      46.908   7.100  12.018  0.00  0.00    +0.000 NA
ATOM      4  C   UNL     1      47.749   7.247  13.064  0.00  0.00    +0.000 A 
ATOM      5  C   UNL     1      47.880   6.318  14.059  0.00  0.00    +0.000 A 
ATOM      6  C   UNL     1      47.063   5.225  13.927  0.00  0.00    +0.000 A 
ATOM      7  N   UNL     1      46.183   5.042  12.913  0.00  0.00    +0.000 NA
ATOM      8  H   UNL     1      45.363   6.697  10.357  0.00  0.00    +0.000 HD
ENDROOT
BRANCH   6   9
ATOM      9  C   UNL     1      47.147   4.113  14.919  0.00  0.00    +0.000 C 
ATOM     10  N   UNL     1      46.755   4.424  16.193  0.00  0.00    +0.000 N 
ATOM     11  O   UNL     1      47.525   2.987  14.615  0.00  0.00    +0.000 OA
ATOM     12  H   UNL     1      46.366   5.340  16.384  0.00  0.00    +0.000 HD
ATOM     13  H   UNL     1      46.697   3.689  16.883  0.00  0.00    +0.000 HD
ENDBRANCH   6   9
BRANCH   1  14
ATOM     14  C   UNL     1      44.093   5.204  11.113  0.00  0.00    +0.000 C 
BRANCH  14  16
ATOM     15  C   UNL     1      43.415   2.720  11.382  0.00  0.00    +0.000 C 
ATOM     16  C   UNL     1      44.035   3.806  10.549  0.00  0.00    +0.000 C 
BRANCH  16  17
ATOM     17  C   UNL     1      45.161   3.434   9.592  0.00  0.00    +0.000 C 
ATOM     18  C   UNL     1      45.276   4.365   8.372  0.00  0.00    +0.000 C 
ATOM     19  C   UNL     1      46.435   3.950   7.462  0.00  0.00    +0.000 C 
ATOM     20  C   UNL     1      46.310   2.493   7.024  0.00  0.00    +0.000 C 
ATOM     21  C   UNL     1      46.193   1.560   8.225  0.00  0.00    +0.000 C 
ATOM     22  C   UNL     1      45.040   1.966   9.139  0.00  0.00    +0.000 C 
ENDBRANCH  16  17
ENDBRANCH  14  16
ENDBRANCH   1  14
TORSDOF 4
ENDMDL
MODEL 3
REMARK VINA RESULT:    -6.925      3.627      4.912
REMARK INTER + INTRA:          -8.969
REMARK INTER:                  -8.690
REMARK INTRA:                  -0.279
REMARK UNBOUND:                -0.425
REMARK  Name = 
REMARK  5 active torsions:
REMARK  status: ('A' for Active; 'I' for Inactive)
REMARK    1  A    between atoms: C_1  and  C_2
REMARK    2  A    between atoms: C_2  and  C_3
REMARK    3  A    between atoms: C_2  and  C_14
REMARK    4  A    between atoms: C_3  and  N_4
REMARK    5  A    between atoms: C_9  and  C_10
REMARK                            x       y       z     vdW  Elec       q    Type
REMARK                         _______ _______ _______ _____ _____    ______ ____
ROOT
ATOM      1  N   UNL     1      46.186   5.074  12.579  0.00  0.00    +0.000 N 
ATOM      2  C   UNL     1      46.840   5.230  13.797  0.00  0.00    +0.000 A 
ATOM      3  N   UNL     1      47.588   6.334  13.942  0.00  0.00    +0.000 NA
ATOM      4  C   UNL     1      48.307   6.459  15.078  0.00  0.00    +0.000 A 
ATOM      5  C   UNL     1      48.312   5.518  16.071  0.00  0.00    +0.000 A 
ATOM      6  C   UNL     1      47.501   4.439  15.834  0.00  0.00    +0.000 A 
ATOM      7  N   UNL     1      46.740   4.278  14.725  0.00  0.00    +0.000 NA
ATOM      8  H   UNL     1      46.237   5.970  12.112  0.00  0.00    +0.000 HD
ENDROOT
BRANCH   6   9
ATOM      9  C   UNL     1      47.457   3.316  16.817  0.00  0.00    +0.000 C 
ATOM     10  N   UNL     1      48.644   2.670  17.032  0.00  0.00    +0.000 N 
ATOM     11  O   UNL     1      46.431   3.001  17.411  0.00  0.00    +0.000 OA
ATOM     12  H   UNL     1      49.487   3.017  16.590  0.00  0.00    +0.000 HD
ATOM     13  H   UNL     1      48.698   1.969  17.757  0.00  0.00    +0.000 HD
ENDBRANCH   6   9
BRANCH   1  14
ATOM     14  C   UNL     1      44.870   4.489  12.702  0.00  0.00    +0.000 C 
BRANCH  14  16
ATOM     15  C   UNL     1      42.636   5.468  11.837  0.00  0.00    +0.000 C 
ATOM     16  C   UNL     1      43.998   4.907  11.545  0.00  0.00    +0.000 C 
BRANCH  16  17
ATOM     17  C   UNL     1      44.199   4.125  10.251  0.00  0.00    +0.000 C 
ATOM     18  C   UNL     1      44.488   2.629  10.465  0.00  0.00    +0.000 C 
ATOM     19  C   UNL     1      44.661   1.898   9.131  0.00  0.00    +0.000 C 
ATOM     20  C   UNL     1      45.746   2.545   8.274  0.00  0.00    +0.000 C 
ATOM     21  C   UNL     1      45.472   4.029   8.056  0.00  0.00    +0.000 C 
ATOM     22  C   UNL     1      45.297   4.766   9.382  0.00  0.00    +0.000 C 
ENDBRANCH  16  17
ENDBRANCH  14  16
ENDBRANCH   1  14
TORSDOF 4
ENDMDL
MODEL 4
REMARK VINA RESULT:    -6.793      1.391      2.115
REMARK INTER + INTRA:          -8.806
REMARK INTER:                  -8.324
REMARK INTRA:                  -0.482
REMARK UNBOUND:                -0.425
REMARK  Name = 
REMARK  5 active torsions:
REMARK  status: ('A' for Active; 'I' for Inactive)
REMARK    1  A    between atoms: C_1  and  C_2
REMARK    2  A    between atoms: C_2  and  C_3
REMARK    3  A    between atoms: C_2  and  C_14
REMARK    4  A    between atoms: C_3  and  N_4
REMARK    5  A    between atoms: C_9  and  C_10
REMARK                            x       y       z     vdW  Elec       q    Type
REMARK                         _______ _______ _______ _____ _____    ______ ____
ROOT
ATOM      1  N   UNL     1      44.606   5.133  12.817  0.00  0.00    +0.000 N 
ATOM      2  C   UNL     1      45.516   6.183  12.884  0.00  0.00    +0.000 A 
ATOM      3  N   UNL     1      46.701   5.917  13.455  0.00  0.00    +0.000 NA
ATOM      4  C   UNL     1      47.562   6.944  13.616  0.00  0.00    +0.000 A 
ATOM      5  C   UNL     1      47.282   8.227  13.233  0.00  0.00    +0.000 A 
ATOM      6  C   UNL     1      46.056   8.388  12.643  0.00  0.00    +0.000 A 
ATOM      7  N   UNL     1      45.166   7.388  12.434  0.00  0.00    +0.000 NA
ATOM      8  H   UNL     1      45.125   4.291  13.027  0.00  0.00    +0.000 HD
ENDROOT
BRANCH   6   9
ATOM      9  C   UNL     1      45.607   9.750  12.229  0.00  0.00    +0.000 C 
ATOM     10  N   UNL     1      44.293  10.043  12.477  0.00  0.00    +0.000 N 
ATOM     11  O   UNL     1      46.366  10.565  11.716  0.00  0.00    +0.000 OA
ATOM     12  H   UNL     1      43.722   9.376  12.982  0.00  0.00    +0.000 HD
ATOM     13  H   UNL     1      43.958  10.981  12.309  0.00  0.00    +0.000 HD
ENDBRANCH   6   9
BRANCH   1  14
ATOM     14  C   UNL     1      43.828   5.120  11.598  0.00  0.00    +0.000 C 
BRANCH  14  16
ATOM     15  C   UNL     1      43.325   2.586  11.766  0.00  0.00    +0.000 C 
ATOM     16  C   UNL     1      43.854   3.747  10.973  0.00  0.00    +0.000 C 
BRANCH  16  17
ATOM     17  C   UNL     1      44.984   3.495   9.982  0.00  0.00    +0.000 C 
ATOM     18  C   UNL     1      45.149   4.604   8.928  0.00  0.00    +0.000 C 
ATOM     19  C   UNL     1      46.310   4.301   7.977  0.00  0.00    +0.000 C 
ATOM     20  C   UNL     1      46.147   2.938   7.311  0.00  0.00    +0.000 C 
ATOM     21  C   UNL     1      45.981   1.829   8.345  0.00  0.00    +0.000 C 
ATOM     22  C   UNL     1      44.825   2.123   9.299  0.00  0.00    +0.000 C 
ENDBRANCH  16  17
ENDBRANCH  14  16
ENDBRANCH   1  14
TORSDOF 4
ENDMDL
MODEL 5
REMARK VINA RESULT:    -6.475      2.750      3.804
REMARK INTER + INTRA:          -8.414
REMARK INTER:                  -8.017
REMARK INTRA:                  -0.396
REMARK UNBOUND:                -0.425
REMARK  Name = 
REMARK  5 active torsions:
REMARK  status: ('A' for Active; 'I' for Inactive)
REMARK    1  A    between atoms: C_1  and  C_2
REMARK    2  A    between atoms: C_2  and  C_3
REMARK    3  A    between atoms: C_2  and  C_14
REMARK    4  A    between atoms: C_3  and  N_4
REMARK    5  A    between atoms: C_9  and  C_10
REMARK                            x       y       z     vdW  Elec       q    Type
REMARK                         _______ _______ _______ _____ _____    ______ ____
ROOT
ATOM      1  N   UNL     1      45.280   4.944  12.944  0.00  0.00    +0.000 N 
ATOM      2  C   UNL     1      46.326   5.041  13.855  0.00  0.00    +0.000 A 
ATOM      3  N   UNL     1      46.347   4.137  14.847  0.00  0.00    +0.000 NA
ATOM      4  C   UNL     1      47.298   4.271  15.796  0.00  0.00    +0.000 A 
ATOM      5  C   UNL     1      48.225   5.277  15.794  0.00  0.00    +0.000 A 
ATOM      6  C   UNL     1      48.130   6.134  14.729  0.00  0.00    +0.000 A 
ATOM      7  N   UNL     1      47.213   6.029  13.737  0.00  0.00    +0.000 NA
ATOM      8  H   UNL     1      44.850   4.041  13.098  0.00  0.00    +0.000 HD
ENDROOT
BRANCH   6   9
ATOM      9  C   UNL     1      49.051   7.306  14.637  0.00  0.00    +0.000 C 
ATOM     10  N   UNL     1      49.948   7.276  13.604  0.00  0.00    +0.000 N 
ATOM     11  O   UNL     1      48.998   8.246  15.422  0.00  0.00    +0.000 OA
ATOM     12  H   UNL     1      49.901   6.525  12.926  0.00  0.00    +0.000 HD
ATOM     13  H   UNL     1      50.529   8.084  13.434  0.00  0.00    +0.000 HD
ENDBRANCH   6   9
BRANCH   1  14
ATOM     14  C   UNL     1      45.668   5.246  11.585  0.00  0.00    +0.000 C 
BRANCH  14  16
ATOM     15  C   UNL     1      43.109   5.261  11.195  0.00  0.00    +0.000 C 
ATOM     16  C   UNL     1      44.496   5.072  10.651  0.00  0.00    +0.000 C 
BRANCH  16  17
ATOM     17  C   UNL     1      44.700   4.075   9.516  0.00  0.00    +0.000 C 
ATOM     18  C   UNL     1      45.011   2.644   9.989  0.00  0.00    +0.000 C 
ATOM     19  C   UNL     1      45.185   1.691   8.804  0.00  0.00    +0.000 C 
ATOM     20  C   UNL     1      46.257   2.188   7.838  0.00  0.00    +0.000 C 
ATOM     21  C   UNL     1      45.962   3.607   7.362  0.00  0.00    +0.000 C 
ATOM     22  C   UNL     1      45.785   4.565   8.538  0.00  0.00    +0.000 C 
ENDBRANCH  16  17
ENDBRANCH  14  16
ENDBRANCH   1  14
TORSDOF 4
ENDMDL
MODEL 6
REMARK VINA RESULT:    -6.381      5.341      7.945
REMARK INTER + INTRA:          -8.298
REMARK INTER:                  -7.889
REMARK INTRA:                  -0.409
REMARK UNBOUND:                -0.425
REMARK  Name = 
REMARK  5 active torsions:
REMARK  status: ('A' for Active; 'I' for Inactive)
REMARK    1  A    between atoms: C_1  and  C_2
REMARK    2  A    between atoms: C_2  and  C_3
REMARK    3  A    between atoms: C_2  and  C_14
REMARK    4  A    between atoms: C_3  and  N_4
REMARK    5  A    between atoms: C_9  and  C_10
REMARK                            x       y       z     vdW  Elec       q    Type
REMARK                         _______ _______ _______ _____ _____    ______ ____
ROOT
ATOM      1  N   UNL     1      47.240   5.097  15.378  0.00  0.00    +0.000 N 
ATOM      2  C   UNL     1      46.763   5.096  14.071  0.00  0.00    +0.000 A 
ATOM      3  N   UNL     1      47.103   6.144  13.305  0.00  0.00    +0.000 NA
ATOM      4  C   UNL     1      46.574   6.211  12.065  0.00  0.00    +0.000 A 
ATOM      5  C   UNL     1      45.713   5.274  11.564  0.00  0.00    +0.000 A 
ATOM      6  C   UNL     1      45.446   4.235  12.416  0.00  0.00    +0.000 A 
ATOM      7  N   UNL     1      45.971   4.106  13.659  0.00  0.00    +0.000 NA
ATOM      8  H   UNL     1      47.954   5.811  15.420  0.00  0.00    +0.000 HD
ENDROOT
BRANCH   6   9
ATOM      9  C   UNL     1      44.480   3.172  12.009  0.00  0.00    +0.000 C 
ATOM     10  N   UNL     1      44.647   2.672  10.746  0.00  0.00    +0.000 N 
ATOM     11  O   UNL     1      43.604   2.757  12.759  0.00  0.00    +0.000 OA
ATOM     12  H   UNL     1      45.437   2.977  10.190  0.00  0.00    +0.000 HD
ATOM     13  H   UNL     1      44.087   1.884  10.451  0.00  0.00    +0.000 HD
ENDBRANCH   6   9
BRANCH   1  14
ATOM     14  C   UNL     1      47.615   3.785  15.856  0.00  0.00    +0.000 C 
BRANCH  14  16
ATOM     15  C   UNL     1      47.149   4.872  18.158  0.00  0.00    +0.000 C 
ATOM     16  C   UNL     1      47.839   3.813  17.347  0.00  0.00    +0.000 C 
BRANCH  16  17
ATOM     17  C   UNL     1      49.198   3.307  17.819  0.00  0.00    +0.000 C 
ATOM     18  C   UNL     1      50.255   4.415  17.982  0.00  0.00    +0.000 C 
ATOM     19  C   UNL     1      51.587   3.846  18.475  0.00  0.00    +0.000 C 
ATOM     20  C   UNL     1      52.097   2.738  17.557  0.00  0.00    +0.000 C 
ATOM     21  C   UNL     1      51.058   1.634  17.387  0.00  0.00    +0.000 C 
ATOM     22  C   UNL     1      49.725   2.193  16.895  0.00  0.00    +0.000 C 
ENDBRANCH  16  17
ENDBRANCH  14  16
ENDBRANCH   1  14
TORSDOF 4
ENDMDL
MODEL 7
REMARK VINA RESULT:    -6.361      5.294      7.526
REMARK INTER + INTRA:          -8.273
REMARK INTER:                  -7.842
REMARK INTRA:                  -0.431
REMARK UNBOUND:                -0.425
REMARK  Name = 
REMARK  5 active torsions:
REMARK  status: ('A' for Active; 'I' for Inactive)
REMARK    1  A    between atoms: C_1  and  C_2
REMARK    2  A    between atoms: C_2  and  C_3
REMARK    3  A    between atoms: C_2  and  C_14
REMARK    4  A    between atoms: C_3  and  N_4
REMARK    5  A    between atoms: C_9  and  C_10
REMARK                            x       y       z     vdW  Elec       q    Type
REMARK                         _______ _______ _______ _____ _____    ______ ____
ROOT
ATOM      1  N   UNL     1      47.174   5.333  15.424  0.00  0.00    +0.000 N 
ATOM      2  C   UNL     1      47.783   4.713  16.510  0.00  0.00    +0.000 A 
ATOM      3  N   UNL     1      47.480   5.194  17.726  0.00  0.00    +0.000 NA
ATOM      4  C   UNL     1      48.131   4.671  18.786  0.00  0.00    +0.000 A 
ATOM      5  C   UNL     1      49.078   3.690  18.677  0.00  0.00    +0.000 A 
ATOM      6  C   UNL     1      49.299   3.255  17.397  0.00  0.00    +0.000 A 
ATOM      7  N   UNL     1      48.655   3.726  16.302  0.00  0.00    +0.000 NA
ATOM      8  H   UNL     1      46.429   5.904  15.801  0.00  0.00    +0.000 HD
ENDROOT
BRANCH   6   9
ATOM      9  C   UNL     1      50.347   2.223  17.136  0.00  0.00    +0.000 C 
ATOM     10  N   UNL     1      51.332   2.126  18.082  0.00  0.00    +0.000 N 
ATOM     11  O   UNL     1      50.322   1.494  16.150  0.00  0.00    +0.000 OA
ATOM     12  H   UNL     1      51.268   2.684  18.925  0.00  0.00    +0.000 HD
ATOM     13  H   UNL     1      52.011   1.382  18.009  0.00  0.00    +0.000 HD
ENDBRANCH   6   9
BRANCH   1  14
ATOM     14  C   UNL     1      46.807   4.417  14.368  0.00  0.00    +0.000 C 
BRANCH  14  16
ATOM     15  C   UNL     1      47.793   6.285  12.871  0.00  0.00    +0.000 C 
ATOM     16  C   UNL     1      46.878   5.104  13.026  0.00  0.00    +0.000 C 
BRANCH  16  17
ATOM     17  C   UNL     1      45.600   5.062  12.196  0.00  0.00    +0.000 C 
ATOM     18  C   UNL     1      44.740   6.333  12.308  0.00  0.00    +0.000 C 
ATOM     19  C   UNL     1      43.485   6.235  11.438  0.00  0.00    +0.000 C 
ATOM     20  C   UNL     1      42.665   4.993  11.775  0.00  0.00    +0.000 C 
ATOM     21  C   UNL     1      43.506   3.725  11.669  0.00  0.00    +0.000 C 
ATOM     22  C   UNL     1      44.762   3.814  12.534  0.00  0.00    +0.000 C 
ENDBRANCH  16  17
ENDBRANCH  14  16
ENDBRANCH   1  14
TORSDOF 4
ENDMDL
MODEL 8
REMARK VINA RESULT:    -6.238      4.525      8.122
REMARK INTER + INTRA:          -8.121
REMARK INTER:                  -7.661
REMARK INTRA:                  -0.460
REMARK UNBOUND:                -0.425
REMARK  Name = 
REMARK  5 active torsions:
REMARK  status: ('A' for Active; 'I' for Inactive)
REMARK    1  A    between atoms: C_1  and  C_2
REMARK    2  A    between atoms: C_2  and  C_3
REMARK    3  A    between atoms: C_2  and  C_14
REMARK    4  A    between atoms: C_3  and  N_4
REMARK    5  A    between atoms: C_9  and  C_10
REMARK                            x       y       z     vdW  Elec       q    Type
REMARK                         _______ _______ _______ _____ _____    ______ ____
ROOT
ATOM      1  N   UNL     1      46.868   5.120  14.836  0.00  0.00    +0.000 N 
ATOM      2  C   UNL     1      46.352   5.124  13.544  0.00  0.00    +0.000 A 
ATOM      3  N   UNL     1      46.625   6.199  12.789  0.00  0.00    +0.000 NA
ATOM      4  C   UNL     1      46.056   6.267  11.567  0.00  0.00    +0.000 A 
ATOM      5  C   UNL     1      45.218   5.304  11.074  0.00  0.00    +0.000 A 
ATOM      6  C   UNL     1      45.020   4.240  11.914  0.00  0.00    +0.000 A 
ATOM      7  N   UNL     1      45.588   4.110  13.137  0.00  0.00    +0.000 NA
ATOM      8  H   UNL     1      47.555   5.863  14.871  0.00  0.00    +0.000 HD
ENDROOT
BRANCH   6   9
ATOM      9  C   UNL     1      44.085   3.146  11.515  0.00  0.00    +0.000 C 
ATOM     10  N   UNL     1      43.694   2.305  12.521  0.00  0.00    +0.000 N 
ATOM     11  O   UNL     1      43.675   3.017  10.367  0.00  0.00    +0.000 OA
ATOM     12  H   UNL     1      43.984   2.498  13.473  0.00  0.00    +0.000 HD
ATOM     13  H   UNL     1      42.987   1.608  12.333  0.00  0.00    +0.000 HD
ENDBRANCH   6   9
BRANCH   1  14
ATOM     14  C   UNL     1      47.311   3.816  15.276  0.00  0.00    +0.000 C 
BRANCH  14  16
ATOM     15  C   UNL     1      47.323   2.831  17.670  0.00  0.00    +0.000 C 
ATOM     16  C   UNL     1      47.794   3.880  16.704  0.00  0.00    +0.000 C 
BRANCH  16  17
ATOM     17  C   UNL     1      48.091   5.277  17.238  0.00  0.00    +0.000 C 
ATOM     18  C   UNL     1      49.593   5.597  17.346  0.00  0.00    +0.000 C 
ATOM     19  C   UNL     1      49.824   7.017  17.868  0.00  0.00    +0.000 C 
ATOM     20  C   UNL     1      49.122   7.244  19.205  0.00  0.00    +0.000 C 
ATOM     21  C   UNL     1      47.632   6.928  19.111  0.00  0.00    +0.000 C 
ATOM     22  C   UNL     1      47.392   5.513  18.590  0.00  0.00    +0.000 C 
ENDBRANCH  16  17
ENDBRANCH  14  16
ENDBRANCH   1  14
TORSDOF 4
ENDMDL
MODEL 9
REMARK VINA RESULT:    -5.996      3.251      6.692
REMARK INTER + INTRA:          -7.822
REMARK INTER:                  -7.420
REMARK INTRA:                  -0.402
REMARK UNBOUND:                -0.425
REMARK  Name = 
REMARK  5 active torsions:
REMARK  status: ('A' for Active; 'I' for Inactive)
REMARK    1  A    between atoms: C_1  and  C_2
REMARK    2  A    between atoms: C_2  and  C_3
REMARK    3  A    between atoms: C_2  and  C_14
REMARK    4  A    between atoms: C_3  and  N_4
REMARK    5  A    between atoms: C_9  and  C_10
REMARK                            x       y       z     vdW  Elec       q    Type
REMARK                         _______ _______ _______ _____ _____    ______ ____
ROOT
ATOM      1  N   UNL     1      46.299   5.472  12.902  0.00  0.00    +0.000 N 
ATOM      2  C   UNL     1      45.309   4.641  12.389  0.00  0.00    +0.000 A 
ATOM      3  N   UNL     1      44.363   4.230  13.248  0.00  0.00    +0.000 NA
ATOM      4  C   UNL     1      43.446   3.349  12.795  0.00  0.00    +0.000 A 
ATOM      5  C   UNL     1      43.444   2.858  11.518  0.00  0.00    +0.000 A 
ATOM      6  C   UNL     1      44.437   3.355  10.716  0.00  0.00    +0.000 A 
ATOM      7  N   UNL     1      45.364   4.260  11.113  0.00  0.00    +0.000 NA
ATOM      8  H   UNL     1      45.970   5.784  13.806  0.00  0.00    +0.000 HD
ENDROOT
BRANCH   6   9
ATOM      9  C   UNL     1      44.576   2.859   9.315  0.00  0.00    +0.000 C 
ATOM     10  N   UNL     1      44.257   3.757   8.333  0.00  0.00    +0.000 N 
ATOM     11  O   UNL     1      44.969   1.727   9.054  0.00  0.00    +0.000 OA
ATOM     12  H   UNL     1      44.022   4.710   8.588  0.00  0.00    +0.000 HD
ATOM     13  H   UNL     1      44.425   3.512   7.368  0.00  0.00    +0.000 HD
ENDBRANCH   6   9
BRANCH   1  14
ATOM     14  C   UNL     1      46.721   6.504  11.982  0.00  0.00    +0.000 C 
BRANCH  14  16
ATOM     15  C   UNL     1      45.571   8.658  12.840  0.00  0.00    +0.000 C 
ATOM     16  C   UNL     1      46.816   7.833  12.690  0.00  0.00    +0.000 C 
BRANCH  16  17
ATOM     17  C   UNL     1      48.154   8.554  12.561  0.00  0.00    +0.000 C 
ATOM     18  C   UNL     1      48.046   9.969  11.966  0.00  0.00    +0.000 C 
ATOM     19  C   UNL     1      49.416  10.644  11.882  0.00  0.00    +0.000 C 
ATOM     20  C   UNL     1      50.411   9.797  11.093  0.00  0.00    +0.000 C 
ATOM     21  C   UNL     1      50.526   8.391  11.672  0.00  0.00    +0.000 C 
ATOM     22  C   UNL     1      49.163   7.709  11.761  0.00  0.00    +0.000 C 
ENDBRANCH  16  17
ENDBRANCH  14  16
ENDBRANCH   1  14
TORSDOF 4
ENDMDL
