MODEL 1
REMARK VINA RESULT:    -8.229      0.000      0.000
REMARK INTER + INTRA:         -10.700
REMARK INTER:                 -10.394
REMARK INTRA:                  -0.306
REMARK UNBOUND:                -0.306
REMARK  Name = 
REMARK  5 active torsions:
REMARK  status: ('A' for Active; 'I' for Inactive)
REMARK    1  A    between atoms: N_1  and  C_2
REMARK    2  A    between atoms: C_2  and  C_3
REMARK    3  A    between atoms: C_3  and  C_4
REMARK    4  A    between atoms: C_7  and  C_8
REMARK    5  A    between atoms: C_8  and  C_9
REMARK                            x       y       z     vdW  Elec       q    Type
REMARK                         _______ _______ _______ _____ _____    ______ ____
ROOT
ATOM      1  C   UNL     1      45.847   3.140   7.842  0.00  0.00    +0.000 A 
ATOM      2  C   UNL     1      45.605   1.889   8.422  0.00  0.00    +0.000 A 
ATOM      3  C   UNL     1      44.771   1.769   9.539  0.00  0.00    +0.000 A 
ATOM      4  C   UNL     1      44.157   2.899  10.100  0.00  0.00    +0.000 A 
ATOM      5  C   UNL     1      44.371   4.145   9.489  0.00  0.00    +0.000 A 
ATOM      6  C   UNL     1      45.204   4.264   8.373  0.00  0.00    +0.000 A 
ENDROOT
BRANCH   1   7
ATOM      7  C   UNL     1      46.809   3.282   6.685  0.00  0.00    +0.000 C 
BRANCH   7   8
ATOM      8  C   UNL     1      48.014   2.347   6.796  0.00  0.00    +0.000 C 
BRANCH   8   9
ATOM      9  N   UNL     1      48.456   1.905   5.472  0.00  0.00    +0.000 NA
ATOM     10  H   UNL     1      48.086   0.975   5.283  0.00  0.00    +0.000 HD
ATOM     11  H   UNL     1      49.473   1.813   5.464  0.00  0.00    +0.000 HD
ENDBRANCH   8   9
ENDBRANCH   7   8
ENDBRANCH   1   7
BRANCH   4  12
ATOM     12  C   UNL     1      43.381   2.805  11.402  0.00  0.00    +0.000 C 
BRANCH  12  13
ATOM     13  C   UNL     1      43.551   4.159  12.020  0.00  0.00    +0.000 A 
ATOM     14  N   UNL     1      42.573   5.078  11.941  0.00  0.00    +0.000 NA
ATOM     15  N   UNL     1      43.191   6.219  12.291  0.00  0.00    +0.000 N 
ATOM     16  C   UNL     1      44.516   6.069  12.614  0.00  0.00    +0.000 A 
ATOM     17  C   UNL     1      45.522   7.001  12.870  0.00  0.00    +0.000 A 
ATOM     18  C   UNL     1      46.784   6.493  13.193  0.00  0.00    +0.000 A 
ATOM     19  C   UNL     1      47.007   5.120  13.304  0.00  0.00    +0.000 A 
ATOM     20  C   UNL     1      45.988   4.207  13.004  0.00  0.00    +0.000 A 
ATOM     21  C   UNL     1      44.734   4.699  12.601  0.00  0.00    +0.000 A 
ATOM     22  H   UNL     1      42.655   7.080  12.269  0.00  0.00    +0.000 HD
ENDBRANCH  12  13
ENDBRANCH   4  12
TORSDOF 5
ENDMDL
MODEL 2
REMARK VINA RESULT:    -8.036      1.675      2.163
REMARK INTER + INTRA:         -10.455
REMARK INTER:                  -9.884
REMARK INTRA:                  -0.571
REMARK UNBOUND:                -0.306
REMARK  Name = 
REMARK  5 active torsions:
REMARK  status: ('A' for Active; 'I' for Inactive)
REMARK    1  A    between atoms: N_1  and  C_2
REMARK    2  A    between atoms: C_2  and  C_3
REMARK    3  A    between atoms: C_3  and  C_4
REMARK    4  A    between atoms: C_7  and  C_8
REMARK    5  A    between atoms: C_8  and  C_9
REMARK                            x       y       z     vdW  Elec       q    Type
REMARK                         _______ _______ _______ _____ _____    ______ ____
ROOT
ATOM      1  C   UNL     1      45.809   3.058   7.851  0.00  0.00    +0.000 A 
ATOM      2  C   UNL     1      45.279   2.112   8.737  0.00  0.00    +0.000 A 
ATOM      3  C   UNL     1      44.724   2.510   9.959  0.00  0.00    +0.000 A 
ATOM      4  C   UNL     1      44.688   3.864  10.322  0.00  0.00    +0.000 A 
ATOM      5  C   UNL     1      45.184   4.812   9.412  0.00  0.00    +0.000 A 
ATOM      6  C   UNL     1      45.736   4.414   8.191  0.00  0.00    +0.000 A 
ENDROOT
BRANCH   1   7
ATOM      7  C   UNL     1      46.477   2.625   6.567  0.00  0.00    +0.000 C 
BRANCH   7   8
ATOM      8  C   UNL     1      47.736   1.788   6.806  0.00  0.00    +0.000 C 
BRANCH   8   9
ATOM      9  N   UNL     1      48.603   1.801   5.626  0.00  0.00    +0.000 NA
ATOM     10  H   UNL     1      48.908   2.754   5.439  0.00  0.00    +0.000 HD
ATOM     11  H   UNL     1      48.070   1.508   4.806  0.00  0.00    +0.000 HD
ENDBRANCH   8   9
ENDBRANCH   7   8
ENDBRANCH   1   7
BRANCH   4  12
ATOM     12  C   UNL     1      44.237   4.293  11.707  0.00  0.00    +0.000 C 
BRANCH  12  13
ATOM     13  C   UNL     1      45.502   4.300  12.510  0.00  0.00    +0.000 A 
ATOM     14  N   UNL     1      45.855   3.233  13.247  0.00  0.00    +0.000 NA
ATOM     15  N   UNL     1      46.816   3.715  14.053  0.00  0.00    +0.000 N 
ATOM     16  C   UNL     1      47.112   5.040  13.849  0.00  0.00    +0.000 A 
ATOM     17  C   UNL     1      47.913   5.933  14.561  0.00  0.00    +0.000 A 
ATOM     18  C   UNL     1      48.011   7.233  14.055  0.00  0.00    +0.000 A 
ATOM     19  C   UNL     1      47.377   7.598  12.866  0.00  0.00    +0.000 A 
ATOM     20  C   UNL     1      46.549   6.691  12.193  0.00  0.00    +0.000 A 
ATOM     21  C   UNL     1      46.377   5.403  12.730  0.00  0.00    +0.000 A 
ATOM     22  H   UNL     1      47.221   3.092  14.742  0.00  0.00    +0.000 HD
ENDBRANCH  12  13
ENDBRANCH   4  12
TORSDOF 5
ENDMDL
MODEL 3
REMARK VINA RESULT:    -7.724      2.087      6.004
REMARK INTER + INTRA:         -10.062
REMARK INTER:                  -9.379
REMARK INTRA:                  -0.683
REMARK UNBOUND:                -0.306
REMARK  Name = 
REMARK  5 active torsions:
REMARK  status: ('A' for Active; 'I' for Inactive)
REMARK    1  A    between atoms: N_1  and  C_2
REMARK    2  A    between atoms: C_2  and  C_3
REMARK    3  A    between atoms: C_3  and  C_4
REMARK    4  A    between atoms: C_7  and  C_8
REMARK    5  A    between atoms: C_8  and  C_9
REMARK                            x       y       z     vdW  Elec       q    Type
REMARK                         _______ _______ _______ _____ _____    ______ ____
ROOT
ATOM      1  C   UNL     1      47.224   6.128  13.208  0.00  0.00    +0.000 A 
ATOM      2  C   UNL     1      46.283   5.178  13.625  0.00  0.00    +0.000 A 
ATOM      3  C   UNL     1      45.207   4.828  12.800  0.00  0.00    +0.000 A 
ATOM      4  C   UNL     1      45.050   5.420  11.539  0.00  0.00    +0.000 A 
ATOM      5  C   UNL     1      46.020   6.341  11.109  0.00  0.00    +0.000 A 
ATOM      6  C   UNL     1      47.094   6.689  11.933  0.00  0.00    +0.000 A 
ENDROOT
BRANCH   1   7
ATOM      7  C   UNL     1      48.340   6.564  14.127  0.00  0.00    +0.000 C 
BRANCH   7   8
ATOM      8  C   UNL     1      48.547   8.080  14.134  0.00  0.00    +0.000 C 
BRANCH   8   9
ATOM      9  N   UNL     1      47.432   8.756  14.801  0.00  0.00    +0.000 NA
ATOM     10  H   UNL     1      47.142   9.560  14.247  0.00  0.00    +0.000 HD
ATOM     11  H   UNL     1      47.746   9.127  15.699  0.00  0.00    +0.000 HD
ENDBRANCH   8   9
ENDBRANCH   7   8
ENDBRANCH   1   7
BRANCH   4  12
ATOM     12  C   UNL     1      43.806   5.169  10.704  0.00  0.00    +0.000 C 
BRANCH  12  13
ATOM     13  C   UNL     1      44.064   3.839  10.066  0.00  0.00    +0.000 A 
ATOM     14  N   UNL     1      43.581   2.710  10.612  0.00  0.00    +0.000 NA
ATOM     15  N   UNL     1      44.270   1.741   9.983  0.00  0.00    +0.000 N 
ATOM     16  C   UNL     1      45.156   2.199   9.041  0.00  0.00    +0.000 A 
ATOM     17  C   UNL     1      46.145   1.549   8.302  0.00  0.00    +0.000 A 
ATOM     18  C   UNL     1      46.871   2.330   7.396  0.00  0.00    +0.000 A 
ATOM     19  C   UNL     1      46.578   3.682   7.208  0.00  0.00    +0.000 A 
ATOM     20  C   UNL     1      45.606   4.316   7.991  0.00  0.00    +0.000 A 
ATOM     21  C   UNL     1      44.922   3.564   8.961  0.00  0.00    +0.000 A 
ATOM     22  H   UNL     1      44.105   0.780  10.259  0.00  0.00    +0.000 HD
ENDBRANCH  12  13
ENDBRANCH   4  12
TORSDOF 5
ENDMDL
MODEL 4
REMARK VINA RESULT:    -7.000      2.407      6.311
REMARK INTER + INTRA:          -9.148
REMARK INTER:                  -8.734
REMARK INTRA:                  -0.414
REMARK UNBOUND:                -0.306
REMARK  Name = 
REMARK  5 active torsions:
REMARK  status: ('A' for Active; 'I' for Inactive)
REMARK    1  A    between atoms: N_1  and  C_2
REMARK    2  A    between atoms: C_2  and  C_3
REMARK    3  A    between atoms: C_3  and  C_4
REMARK    4  A    between atoms: C_7  and  C_8
REMARK    5  A    between atoms: C_8  and  C_9
REMARK                            x       y       z     vdW  Elec       q    Type
REMARK                         _______ _______ _______ _____ _____    ______ ____
ROOT
ATOM      1  C   UNL     1      46.342   4.821  13.537  0.00  0.00    +0.000 A 
ATOM      2  C   UNL     1      45.805   5.880  12.794  0.00  0.00    +0.000 A 
ATOM      3  C   UNL     1      45.102   5.637  11.609  0.00  0.00    +0.000 A 
ATOM      4  C   UNL     1      44.918   4.328  11.140  0.00  0.00    +0.000 A 
ATOM      5  C   UNL     1      45.423   3.268  11.911  0.00  0.00    +0.000 A 
ATOM      6  C   UNL     1      46.124   3.512  13.095  0.00  0.00    +0.000 A 
ENDROOT
BRANCH   1   7
ATOM      7  C   UNL     1      47.167   5.086  14.774  0.00  0.00    +0.000 C 
BRANCH   7   8
ATOM      8  C   UNL     1      47.099   3.944  15.790  0.00  0.00    +0.000 C 
BRANCH   8   9
ATOM      9  N   UNL     1      48.180   2.982  15.568  0.00  0.00    +0.000 NA
ATOM     10  H   UNL     1      47.787   2.088  15.280  0.00  0.00    +0.000 HD
ATOM     11  H   UNL     1      48.669   2.807  16.447  0.00  0.00    +0.000 HD
ENDBRANCH   8   9
ENDBRANCH   7   8
ENDBRANCH   1   7
BRANCH   4  12
ATOM     12  C   UNL     1      44.299   4.062   9.780  0.00  0.00    +0.000 C 
BRANCH  12  13
ATOM     13  C   UNL     1      45.479   3.938   8.866  0.00  0.00    +0.000 A 
ATOM     14  N   UNL     1      46.038   5.028   8.313  0.00  0.00    +0.000 NA
ATOM     15  N   UNL     1      46.810   4.521   7.337  0.00  0.00    +0.000 N 
ATOM     16  C   UNL     1      46.790   3.151   7.255  0.00  0.00    +0.000 A 
ATOM     17  C   UNL     1      47.313   2.269   6.309  0.00  0.00    +0.000 A 
ATOM     18  C   UNL     1      47.122   0.904   6.546  0.00  0.00    +0.000 A 
ATOM     19  C   UNL     1      46.485   0.452   7.703  0.00  0.00    +0.000 A 
ATOM     20  C   UNL     1      45.937   1.361   8.616  0.00  0.00    +0.000 A 
ATOM     21  C   UNL     1      46.050   2.737   8.353  0.00  0.00    +0.000 A 
ATOM     22  H   UNL     1      47.315   5.167   6.740  0.00  0.00    +0.000 HD
ENDBRANCH  12  13
ENDBRANCH   4  12
TORSDOF 5
ENDMDL
MODEL 5
REMARK VINA RESULT:    -6.063      3.343      6.748
REMARK INTER + INTRA:          -7.964
REMARK INTER:                  -7.463
REMARK INTRA:                  -0.501
REMARK UNBOUND:                -0.306
REMARK  Name = 
REMARK  5 active torsions:
REMARK  status: ('A' for Active; 'I' for Inactive)
REMARK    1  A    between atoms: N_1  and  C_2
REMARK    2  A    between atoms: C_2  and  C_3
REMARK    3  A    between atoms: C_3  and  C_4
REMARK    4  A    between atoms: C_7  and  C_8
REMARK    5  A    between atoms: C_8  and  C_9
REMARK                            x       y       z     vdW  Elec       q    Type
REMARK                         _______ _______ _______ _____ _____    ______ ____
ROOT
ATOM      1  C   UNL     1      48.055   5.157  16.010  0.00  0.00    +0.000 A 
ATOM      2  C   UNL     1      48.736   6.352  15.749  0.00  0.00    +0.000 A 
ATOM      3  C   UNL     1      48.613   6.989  14.509  0.00  0.00    +0.000 A 
ATOM      4  C   UNL     1      47.803   6.445  13.502  0.00  0.00    +0.000 A 
ATOM      5  C   UNL     1      47.090   5.268  13.783  0.00  0.00    +0.000 A 
ATOM      6  C   UNL     1      47.214   4.633  15.022  0.00  0.00    +0.000 A 
ENDROOT
BRANCH   1   7
ATOM      7  C   UNL     1      48.248   4.427  17.319  0.00  0.00    +0.000 C 
BRANCH   7   8
ATOM      8  C   UNL     1      47.915   2.937  17.223  0.00  0.00    +0.000 C 
BRANCH   8   9
ATOM      9  N   UNL     1      46.635   2.645  17.871  0.00  0.00    +0.000 NA
ATOM     10  H   UNL     1      45.979   2.284  17.181  0.00  0.00    +0.000 HD
ATOM     11  H   UNL     1      46.226   3.511  18.226  0.00  0.00    +0.000 HD
ENDBRANCH   8   9
ENDBRANCH   7   8
ENDBRANCH   1   7
BRANCH   4  12
ATOM     12  C   UNL     1      47.786   7.037  12.104  0.00  0.00    +0.000 C 
BRANCH  12  13
ATOM     13  C   UNL     1      46.330   7.243  11.818  0.00  0.00    +0.000 A 
ATOM     14  N   UNL     1      45.680   8.315  12.303  0.00  0.00    +0.000 NA
ATOM     15  N   UNL     1      44.385   7.995  12.136  0.00  0.00    +0.000 N 
ATOM     16  C   UNL     1      44.177   6.774  11.544  0.00  0.00    +0.000 A 
ATOM     17  C   UNL     1      43.017   6.025  11.342  0.00  0.00    +0.000 A 
ATOM     18  C   UNL     1      43.163   4.805  10.674  0.00  0.00    +0.000 A 
ATOM     19  C   UNL     1      44.404   4.389  10.188  0.00  0.00    +0.000 A 
ATOM     20  C   UNL     1      45.556   5.143  10.439  0.00  0.00    +0.000 A 
ATOM     21  C   UNL     1      45.440   6.333  11.177  0.00  0.00    +0.000 A 
ATOM     22  H   UNL     1      43.684   8.646  12.469  0.00  0.00    +0.000 HD
ENDBRANCH  12  13
ENDBRANCH   4  12
TORSDOF 5
ENDMDL
MODEL 6
REMARK VINA RESULT:    -5.849      3.668      5.367
REMARK INTER + INTRA:          -7.694
REMARK INTER:                  -7.116
REMARK INTRA:                  -0.578
REMARK UNBOUND:                -0.306
REMARK  Name = 
REMARK  5 active torsions:
REMARK  status: ('A' for Active; 'I' for Inactive)
REMARK    1  A    between atoms: N_1  and  C_2
REMARK    2  A    between atoms: C_2  and  C_3
REMARK    3  A    between atoms: C_3  and  C_4
REMARK    4  A    between atoms: C_7  and  C_8
REMARK    5  A    between atoms: C_8  and  C_9
REMARK                            x       y       z     vdW  Elec       q    Type
REMARK                         _______ _______ _______ _____ _____    ______ ____
ROOT
ATOM      1  C   UNL     1      44.863   3.979  11.163  0.00  0.00    +0.000 A 
ATOM      2  C   UNL     1      45.127   5.183  10.499  0.00  0.00    +0.000 A 
ATOM      3  C   UNL     1      45.801   6.224  11.149  0.00  0.00    +0.000 A 
ATOM      4  C   UNL     1      46.228   6.082  12.477  0.00  0.00    +0.000 A 
ATOM      5  C   UNL     1      45.997   4.857  13.124  0.00  0.00    +0.000 A 
ATOM      6  C   UNL     1      45.325   3.818  12.474  0.00  0.00    +0.000 A 
ENDROOT
BRANCH   1   7
ATOM      7  C   UNL     1      44.069   2.884  10.490  0.00  0.00    +0.000 C 
BRANCH   7   8
ATOM      8  C   UNL     1      44.534   2.606   9.060  0.00  0.00    +0.000 C 
BRANCH   8   9
ATOM      9  N   UNL     1      45.616   1.620   9.045  0.00  0.00    +0.000 NA
ATOM     10  H   UNL     1      45.238   0.705   8.806  0.00  0.00    +0.000 HD
ATOM     11  H   UNL     1      46.009   1.529   9.983  0.00  0.00    +0.000 HD
ENDBRANCH   8   9
ENDBRANCH   7   8
ENDBRANCH   1   7
BRANCH   4  12
ATOM     12  C   UNL     1      46.815   7.255  13.242  0.00  0.00    +0.000 C 
BRANCH  12  13
ATOM     13  C   UNL     1      48.141   7.485  12.585  0.00  0.00    +0.000 A 
ATOM     14  N   UNL     1      49.140   6.596  12.722  0.00  0.00    +0.000 NA
ATOM     15  N   UNL     1      50.221   7.275  12.300  0.00  0.00    +0.000 N 
ATOM     16  C   UNL     1      49.955   8.553  11.876  0.00  0.00    +0.000 A 
ATOM     17  C   UNL     1      50.797   9.608  11.522  0.00  0.00    +0.000 A 
ATOM     18  C   UNL     1      50.181  10.794  11.110  0.00  0.00    +0.000 A 
ATOM     19  C   UNL     1      48.792  10.893  11.011  0.00  0.00    +0.000 A 
ATOM     20  C   UNL     1      47.972   9.831  11.409  0.00  0.00    +0.000 A 
ATOM     21  C   UNL     1      48.573   8.659  11.900  0.00  0.00    +0.000 A 
ATOM     22  H   UNL     1      51.123   6.816  12.347  0.00  0.00    +0.000 HD
ENDBRANCH  12  13
ENDBRANCH   4  12
TORSDOF 5
ENDMDL
MODEL 7
REMARK VINA RESULT:    -5.769      2.687      5.929
REMARK INTER + INTRA:          -7.593
REMARK INTER:                  -7.053
REMARK INTRA:                  -0.539
REMARK UNBOUND:                -0.306
REMARK  Name = 
REMARK  5 active torsions:
REMARK  status: ('A' for Active; 'I' for Inactive)
REMARK    1  A    between atoms: N_1  and  C_2
REMARK    2  A    between atoms: C_2  and  C_3
REMARK    3  A    between atoms: C_3  and  C_4
REMARK    4  A    between atoms: C_7  and  C_8
REMARK    5  A    between atoms: C_8  and  C_9
REMARK                            x       y       z     vdW  Elec       q    Type
REMARK                         _______ _______ _______ _____ _____    ______ ____
ROOT
ATOM      1  C   UNL     1      47.797   7.431  13.240  0.00  0.00    +0.000 A 
ATOM      2  C   UNL     1      47.584   6.529  12.190  0.00  0.00    +0.000 A 
ATOM      3  C   UNL     1      46.369   6.516  11.496  0.00  0.00    +0.000 A 
ATOM      4  C   UNL     1      45.340   7.406  11.836  0.00  0.00    +0.000 A 
ATOM      5  C   UNL     1      45.575   8.336  12.862  0.00  0.00    +0.000 A 
ATOM      6  C   UNL     1      46.789   8.349  13.554  0.00  0.00    +0.000 A 
ENDROOT
BRANCH   1   7
ATOM      7  C   UNL     1      49.078   7.394  14.041  0.00  0.00    +0.000 C 
BRANCH   7   8
ATOM      8  C   UNL     1      48.860   6.959  15.491  0.00  0.00    +0.000 C 
BRANCH   8   9
ATOM      9  N   UNL     1      48.153   5.678  15.551  0.00  0.00    +0.000 NA
ATOM     10  H   UNL     1      48.373   5.210  16.429  0.00  0.00    +0.000 HD
ATOM     11  H   UNL     1      48.494   5.064  14.809  0.00  0.00    +0.000 HD
ENDBRANCH   8   9
ENDBRANCH   7   8
ENDBRANCH   1   7
BRANCH   4  12
ATOM     12  C   UNL     1      43.965   7.296  11.200  0.00  0.00    +0.000 C 
BRANCH  12  13
ATOM     13  C   UNL     1      43.601   5.854  11.380  0.00  0.00    +0.000 A 
ATOM     14  N   UNL     1      43.141   5.403  12.559  0.00  0.00    +0.000 NA
ATOM     15  N   UNL     1      43.244   4.068  12.443  0.00  0.00    +0.000 N 
ATOM     16  C   UNL     1      43.728   3.642  11.232  0.00  0.00    +0.000 A 
ATOM     17  C   UNL     1      44.122   2.382  10.779  0.00  0.00    +0.000 A 
ATOM     18  C   UNL     1      44.558   2.297   9.453  0.00  0.00    +0.000 A 
ATOM     19  C   UNL     1      44.546   3.411   8.613  0.00  0.00    +0.000 A 
ATOM     20  C   UNL     1      44.181   4.670   9.105  0.00  0.00    +0.000 A 
ATOM     21  C   UNL     1      43.815   4.789  10.457  0.00  0.00    +0.000 A 
ATOM     22  H   UNL     1      42.987   3.497  13.240  0.00  0.00    +0.000 HD
ENDBRANCH  12  13
ENDBRANCH   4  12
TORSDOF 5
ENDMDL
MODEL 8
REMARK VINA RESULT:    -5.690      5.332      8.015
REMARK INTER + INTRA:          -7.493
REMARK INTER:                  -7.367
REMARK INTRA:                  -0.126
REMARK UNBOUND:                -0.306
REMARK  Name = 
REMARK  5 active torsions:
REMARK  status: ('A' for Active; 'I' for Inactive)
REMARK    1  A    between atoms: N_1  and  C_2
REMARK    2  A    between atoms: C_2  and  C_3
REMARK    3  A    between atoms: C_3  and  C_4
REMARK    4  A    between atoms: C_7  and  C_8
REMARK    5  A    between atoms: C_8  and  C_9
REMARK                            x       y       z     vdW  Elec       q    Type
REMARK                         _______ _______ _______ _____ _____    ______ ____
ROOT
ATOM      1  C   UNL     1      50.972   2.766  17.597  0.00  0.00    +0.000 A 
ATOM      2  C   UNL     1      50.534   4.041  17.977  0.00  0.00    +0.000 A 
ATOM      3  C   UNL     1      49.260   4.495  17.619  0.00  0.00    +0.000 A 
ATOM      4  C   UNL     1      48.393   3.682  16.874  0.00  0.00    +0.000 A 
ATOM      5  C   UNL     1      48.821   2.389  16.532  0.00  0.00    +0.000 A 
ATOM      6  C   UNL     1      50.094   1.936  16.891  0.00  0.00    +0.000 A 
ENDROOT
BRANCH   1   7
ATOM      7  C   UNL     1      52.375   2.305  17.916  0.00  0.00    +0.000 C 
BRANCH   7   8
ATOM      8  C   UNL     1      52.666   0.892  17.406  0.00  0.00    +0.000 C 
BRANCH   8   9
ATOM      9  N   UNL     1      52.425  -0.102  18.454  0.00  0.00    +0.000 NA
ATOM     10  H   UNL     1      52.516   0.339  19.367  0.00  0.00    +0.000 HD
ATOM     11  H   UNL     1      53.146  -0.824  18.413  0.00  0.00    +0.000 HD
ENDBRANCH   8   9
ENDBRANCH   7   8
ENDBRANCH   1   7
BRANCH   4  12
ATOM     12  C   UNL     1      47.075   4.219  16.345  0.00  0.00    +0.000 C 
BRANCH  12  13
ATOM     13  C   UNL     1      47.450   4.885  15.057  0.00  0.00    +0.000 A 
ATOM     14  N   UNL     1      48.404   5.831  15.023  0.00  0.00    +0.000 NA
ATOM     15  N   UNL     1      48.229   6.407  13.821  0.00  0.00    +0.000 N 
ATOM     16  C   UNL     1      47.220   5.855  13.072  0.00  0.00    +0.000 A 
ATOM     17  C   UNL     1      46.631   6.252  11.871  0.00  0.00    +0.000 A 
ATOM     18  C   UNL     1      45.618   5.431  11.365  0.00  0.00    +0.000 A 
ATOM     19  C   UNL     1      45.254   4.247  12.008  0.00  0.00    +0.000 A 
ATOM     20  C   UNL     1      45.836   3.895  13.232  0.00  0.00    +0.000 A 
ATOM     21  C   UNL     1      46.801   4.748  13.795  0.00  0.00    +0.000 A 
ATOM     22  H   UNL     1      48.820   7.193  13.576  0.00  0.00    +0.000 HD
ENDBRANCH  12  13
ENDBRANCH   4  12
TORSDOF 5
ENDMDL
MODEL 9
REMARK VINA RESULT:    -5.616      3.529      5.766
REMARK INTER + INTRA:          -7.399
REMARK INTER:                  -6.838
REMARK INTRA:                  -0.561
REMARK UNBOUND:                -0.306
REMARK  Name = 
REMARK  5 active torsions:
REMARK  status: ('A' for Active; 'I' for Inactive)
REMARK    1  A    between atoms: N_1  and  C_2
REMARK    2  A    between atoms: C_2  and  C_3
REMARK    3  A    between atoms: C_3  and  C_4
REMARK    4  A    between atoms: C_7  and  C_8
REMARK    5  A    between atoms: C_8  and  C_9
REMARK                            x       y       z     vdW  Elec       q    Type
REMARK                         _______ _______ _______ _____ _____    ______ ____
ROOT
ATOM      1  C   UNL     1      44.816   5.107  11.677  0.00  0.00    +0.000 A 
ATOM      2  C   UNL     1      45.307   4.732  12.934  0.00  0.00    +0.000 A 
ATOM      3  C   UNL     1      46.485   5.294  13.438  0.00  0.00    +0.000 A 
ATOM      4  C   UNL     1      47.199   6.247  12.696  0.00  0.00    +0.000 A 
ATOM      5  C   UNL     1      46.680   6.650  11.454  0.00  0.00    +0.000 A 
ATOM      6  C   UNL     1      45.502   6.088  10.952  0.00  0.00    +0.000 A 
ENDROOT
BRANCH   1   7
ATOM      7  C   UNL     1      43.588   4.445  11.098  0.00  0.00    +0.000 C 
BRANCH   7   8
ATOM      8  C   UNL     1      43.805   2.965  10.779  0.00  0.00    +0.000 C 
BRANCH   8   9
ATOM      9  N   UNL     1      43.031   2.115  11.685  0.00  0.00    +0.000 NA
ATOM     10  H   UNL     1      42.036   2.264  11.524  0.00  0.00    +0.000 HD
ATOM     11  H   UNL     1      43.207   2.395  12.651  0.00  0.00    +0.000 HD
ENDBRANCH   8   9
ENDBRANCH   7   8
ENDBRANCH   1   7
BRANCH   4  12
ATOM     12  C   UNL     1      48.557   6.744  13.158  0.00  0.00    +0.000 C 
BRANCH  12  13
ATOM     13  C   UNL     1      48.251   7.523  14.400  0.00  0.00    +0.000 A 
ATOM     14  N   UNL     1      47.612   8.703  14.331  0.00  0.00    +0.000 NA
ATOM     15  N   UNL     1      47.812   9.237  15.549  0.00  0.00    +0.000 N 
ATOM     16  C   UNL     1      48.532   8.440  16.403  0.00  0.00    +0.000 A 
ATOM     17  C   UNL     1      49.075   8.683  17.665  0.00  0.00    +0.000 A 
ATOM     18  C   UNL     1      49.749   7.621  18.277  0.00  0.00    +0.000 A 
ATOM     19  C   UNL     1      49.825   6.366  17.671  0.00  0.00    +0.000 A 
ATOM     20  C   UNL     1      49.303   6.162  16.388  0.00  0.00    +0.000 A 
ATOM     21  C   UNL     1      48.692   7.240  15.726  0.00  0.00    +0.000 A 
ATOM     22  H   UNL     1      47.449  10.165  15.731  0.00  0.00    +0.000 HD
ENDBRANCH  12  13
ENDBRANCH   4  12
TORSDOF 5
ENDMDL
