MODEL 1
REMARK VINA RESULT:    -9.845      0.000      0.000
REMARK INTER + INTRA:         -13.497
REMARK INTER:                 -12.722
REMARK INTRA:                  -0.775
REMARK UNBOUND:                -0.775
REMARK  Name = 
REMARK  5 active torsions:
REMARK  status: ('A' for Active; 'I' for Inactive)
REMARK    1  A    between atoms: C_2  and  C_4
REMARK    2  A    between atoms: N_8  and  C_9
REMARK    3  A    between atoms: C_9  and  C_10
REMARK    4  A    between atoms: C_10  and  C_13
REMARK    5  A    between atoms: C_17  and  C_18
REMARK                            x       y       z     vdW  Elec       q    Type
REMARK                         _______ _______ _______ _____ _____    ______ ____
ROOT
ATOM      1  C   UNL     1      43.275   5.524  12.081  0.00  0.00    +0.000 C 
ATOM      2  F   UNL     1      42.468   6.512  11.588  0.00  0.00    +0.000 F 
ATOM      3  F   UNL     1      42.700   5.139  13.258  0.00  0.00    +0.000 F 
ENDROOT
BRANCH   1   4
ATOM      4  C   UNL     1      44.704   5.994  12.274  0.00  0.00    +0.000 A 
ATOM      5  C   UNL     1      45.248   6.991  11.454  0.00  0.00    +0.000 A 
ATOM      6  C   UNL     1      46.537   7.463  11.683  0.00  0.00    +0.000 A 
ATOM      7  C   UNL     1      47.285   6.962  12.749  0.00  0.00    +0.000 A 
ATOM      8  C   UNL     1      46.765   5.980  13.610  0.00  0.00    +0.000 A 
ATOM      9  C   UNL     1      45.477   5.487  13.331  0.00  0.00    +0.000 A 
BRANCH   8  10
ATOM     10  C   UNL     1      47.516   5.520  14.793  0.00  0.00    +0.000 A 
ATOM     11  C   UNL     1      48.647   6.203  15.255  0.00  0.00    +0.000 A 
ATOM     12  N   UNL     1      49.376   5.859  16.345  0.00  0.00    +0.000 NA
ATOM     13  C   UNL     1      48.953   4.774  17.029  0.00  0.00    +0.000 A 
ATOM     14  C   UNL     1      47.844   4.026  16.674  0.00  0.00    +0.000 A 
ATOM     15 CL   UNL     1      47.360   2.669  17.605  0.00  0.00    +0.000 Cl
ATOM     16  C   UNL     1      47.122   4.403  15.545  0.00  0.00    +0.000 A 
ENDBRANCH   8  10
ENDBRANCH   1   4
BRANCH   1  17
ATOM     17  C   UNL     1      43.246   4.332  11.086  0.00  0.00    +0.000 C 
BRANCH  17  22
ATOM     18  C   UNL     1      46.548   2.508   7.650  0.00  0.00    +0.000 A 
ATOM     19  C   UNL     1      45.710   1.825   8.525  0.00  0.00    +0.000 A 
ATOM     20  C   UNL     1      44.774   2.545   9.265  0.00  0.00    +0.000 A 
ATOM     21  C   UNL     1      44.689   3.928   9.125  0.00  0.00    +0.000 A 
ATOM     22  N   UNL     1      43.712   4.686   9.740  0.00  0.00    +0.000 N 
ATOM     23  N   UNL     1      45.519   4.601   8.305  0.00  0.00    +0.000 NA
ATOM     24  C   UNL     1      46.434   3.887   7.594  0.00  0.00    +0.000 A 
ATOM     25  H   UNL     1      43.910   5.673   9.585  0.00  0.00    +0.000 HD
BRANCH  18  27
ATOM     26  N   UNL     1      48.589   2.553   6.340  0.00  0.00    +0.000 N 
ATOM     27  C   UNL     1      47.530   1.816   6.794  0.00  0.00    +0.000 C 
ATOM     28  O   UNL     1      47.424   0.623   6.528  0.00  0.00    +0.000 OA
ATOM     29  H   UNL     1      49.314   2.048   5.844  0.00  0.00    +0.000 HD
ATOM     30  H   UNL     1      48.840   3.445   6.744  0.00  0.00    +0.000 HD
ENDBRANCH  18  27
ENDBRANCH  17  22
ENDBRANCH   1  17
TORSDOF 5
ENDMDL
MODEL 2
REMARK VINA RESULT:    -9.797      2.667      3.670
REMARK INTER + INTRA:         -13.436
REMARK INTER:                 -12.411
REMARK INTRA:                  -1.025
REMARK UNBOUND:                -0.775
REMARK  Name = 
REMARK  5 active torsions:
REMARK  status: ('A' for Active; 'I' for Inactive)
REMARK    1  A    between atoms: C_2  and  C_4
REMARK    2  A    between atoms: N_8  and  C_9
REMARK    3  A    between atoms: C_9  and  C_10
REMARK    4  A    between atoms: C_10  and  C_13
REMARK    5  A    between atoms: C_17  and  C_18
REMARK                            x       y       z     vdW  Elec       q    Type
REMARK                         _______ _______ _______ _____ _____    ______ ____
ROOT
ATOM      1  C   UNL     1      43.351   5.509  12.144  0.00  0.00    +0.000 C 
ATOM      2  F   UNL     1      42.870   6.650  11.563  0.00  0.00    +0.000 F 
ATOM      3  F   UNL     1      42.520   5.260  13.198  0.00  0.00    +0.000 F 
ENDROOT
BRANCH   1   4
ATOM      4  C   UNL     1      44.796   5.655  12.583  0.00  0.00    +0.000 A 
ATOM      5  C   UNL     1      45.463   4.599  13.217  0.00  0.00    +0.000 A 
ATOM      6  C   UNL     1      46.808   4.719  13.554  0.00  0.00    +0.000 A 
ATOM      7  C   UNL     1      47.506   5.885  13.238  0.00  0.00    +0.000 A 
ATOM      8  C   UNL     1      46.879   6.957  12.580  0.00  0.00    +0.000 A 
ATOM      9  C   UNL     1      45.508   6.830  12.289  0.00  0.00    +0.000 A 
BRANCH   8  10
ATOM     10  C   UNL     1      47.638   8.149  12.159  0.00  0.00    +0.000 A 
ATOM     11  C   UNL     1      47.062   9.425  12.164  0.00  0.00    +0.000 A 
ATOM     12  N   UNL     1      47.698  10.570  11.815  0.00  0.00    +0.000 NA
ATOM     13  C   UNL     1      48.992  10.447  11.447  0.00  0.00    +0.000 A 
ATOM     14  C   UNL     1      49.670   9.241  11.412  0.00  0.00    +0.000 A 
ATOM     15 CL   UNL     1      51.320   9.169  10.949  0.00  0.00    +0.000 Cl
ATOM     16  C   UNL     1      48.985   8.083  11.771  0.00  0.00    +0.000 A 
ENDBRANCH   8  10
ENDBRANCH   1   4
BRANCH   1  17
ATOM     17  C   UNL     1      43.230   4.352  11.115  0.00  0.00    +0.000 C 
BRANCH  17  22
ATOM     18  C   UNL     1      46.529   2.525   7.677  0.00  0.00    +0.000 A 
ATOM     19  C   UNL     1      45.681   1.844   8.543  0.00  0.00    +0.000 A 
ATOM     20  C   UNL     1      44.749   2.566   9.285  0.00  0.00    +0.000 A 
ATOM     21  C   UNL     1      44.679   3.951   9.158  0.00  0.00    +0.000 A 
ATOM     22  N   UNL     1      43.706   4.714   9.775  0.00  0.00    +0.000 N 
ATOM     23  N   UNL     1      45.519   4.623   8.347  0.00  0.00    +0.000 NA
ATOM     24  C   UNL     1      46.430   3.906   7.634  0.00  0.00    +0.000 A 
ATOM     25  H   UNL     1      43.915   5.700   9.629  0.00  0.00    +0.000 HD
BRANCH  18  27
ATOM     26  N   UNL     1      48.577   2.562   6.378  0.00  0.00    +0.000 N 
ATOM     27  C   UNL     1      47.508   1.831   6.820  0.00  0.00    +0.000 C 
ATOM     28  O   UNL     1      47.390   0.643   6.542  0.00  0.00    +0.000 OA
ATOM     29  H   UNL     1      49.299   2.053   5.881  0.00  0.00    +0.000 HD
ATOM     30  H   UNL     1      48.836   3.446   6.792  0.00  0.00    +0.000 HD
ENDBRANCH  18  27
ENDBRANCH  17  22
ENDBRANCH   1  17
TORSDOF 5
ENDMDL
MODEL 3
REMARK VINA RESULT:    -8.848      2.768      3.294
REMARK INTER + INTRA:         -12.209
REMARK INTER:                 -11.549
REMARK INTRA:                  -0.660
REMARK UNBOUND:                -0.775
REMARK  Name = 
REMARK  5 active torsions:
REMARK  status: ('A' for Active; 'I' for Inactive)
REMARK    1  A    between atoms: C_2  and  C_4
REMARK    2  A    between atoms: N_8  and  C_9
REMARK    3  A    between atoms: C_9  and  C_10
REMARK    4  A    between atoms: C_10  and  C_13
REMARK    5  A    between atoms: C_17  and  C_18
REMARK                            x       y       z     vdW  Elec       q    Type
REMARK                         _______ _______ _______ _____ _____    ______ ____
ROOT
ATOM      1  C   UNL     1      44.486   4.742  12.266  0.00  0.00    +0.000 C 
ATOM      2  F   UNL     1      43.907   4.613  13.499  0.00  0.00    +0.000 F 
ATOM      3  F   UNL     1      45.438   3.764  12.209  0.00  0.00    +0.000 F 
ENDROOT
BRANCH   1   4
ATOM      4  C   UNL     1      45.076   6.123  12.052  0.00  0.00    +0.000 A 
ATOM      5  C   UNL     1      44.254   7.216  11.751  0.00  0.00    +0.000 A 
ATOM      6  C   UNL     1      44.798   8.490  11.624  0.00  0.00    +0.000 A 
ATOM      7  C   UNL     1      46.165   8.689  11.822  0.00  0.00    +0.000 A 
ATOM      8  C   UNL     1      47.019   7.622  12.149  0.00  0.00    +0.000 A 
ATOM      9  C   UNL     1      46.453   6.337  12.229  0.00  0.00    +0.000 A 
BRANCH   8  10
ATOM     10  C   UNL     1      48.445   7.846  12.453  0.00  0.00    +0.000 A 
ATOM     11  C   UNL     1      48.961   7.647  13.738  0.00  0.00    +0.000 A 
ATOM     12  N   UNL     1      50.260   7.807  14.092  0.00  0.00    +0.000 NA
ATOM     13  C   UNL     1      51.106   8.181  13.108  0.00  0.00    +0.000 A 
ATOM     14  C   UNL     1      50.713   8.399  11.798  0.00  0.00    +0.000 A 
ATOM     15 CL   UNL     1      51.852   8.857  10.599  0.00  0.00    +0.000 Cl
ATOM     16  C   UNL     1      49.370   8.231  11.471  0.00  0.00    +0.000 A 
ENDBRANCH   8  10
ENDBRANCH   1   4
BRANCH   1  17
ATOM     17  C   UNL     1      43.403   4.462  11.189  0.00  0.00    +0.000 C 
BRANCH  17  22
ATOM     18  C   UNL     1      46.497   2.488   7.643  0.00  0.00    +0.000 A 
ATOM     19  C   UNL     1      45.660   1.845   8.548  0.00  0.00    +0.000 A 
ATOM     20  C   UNL     1      44.784   2.607   9.319  0.00  0.00    +0.000 A 
ATOM     21  C   UNL     1      44.759   3.993   9.180  0.00  0.00    +0.000 A 
ATOM     22  N   UNL     1      43.839   4.796   9.827  0.00  0.00    +0.000 N 
ATOM     23  N   UNL     1      45.590   4.626   8.331  0.00  0.00    +0.000 NA
ATOM     24  C   UNL     1      46.446   3.872   7.590  0.00  0.00    +0.000 A 
ATOM     25  H   UNL     1      44.077   5.772   9.664  0.00  0.00    +0.000 HD
BRANCH  18  27
ATOM     26  N   UNL     1      48.531   2.417   6.323  0.00  0.00    +0.000 N 
ATOM     27  C   UNL     1      47.416   1.752   6.756  0.00  0.00    +0.000 C 
ATOM     28  O   UNL     1      47.212   0.583   6.445  0.00  0.00    +0.000 OA
ATOM     29  H   UNL     1      49.210   1.874   5.804  0.00  0.00    +0.000 HD
ATOM     30  H   UNL     1      48.856   3.269   6.759  0.00  0.00    +0.000 HD
ENDBRANCH  18  27
ENDBRANCH  17  22
ENDBRANCH   1  17
TORSDOF 5
ENDMDL
MODEL 4
REMARK VINA RESULT:    -8.002      4.026      7.787
REMARK INTER + INTRA:         -11.116
REMARK INTER:                  -9.956
REMARK INTRA:                  -1.159
REMARK UNBOUND:                -0.775
REMARK  Name = 
REMARK  5 active torsions:
REMARK  status: ('A' for Active; 'I' for Inactive)
REMARK    1  A    between atoms: C_2  and  C_4
REMARK    2  A    between atoms: N_8  and  C_9
REMARK    3  A    between atoms: C_9  and  C_10
REMARK    4  A    between atoms: C_10  and  C_13
REMARK    5  A    between atoms: C_17  and  C_18
REMARK                            x       y       z     vdW  Elec       q    Type
REMARK                         _______ _______ _______ _____ _____    ______ ____
ROOT
ATOM      1  C   UNL     1      48.729   8.115  12.257  0.00  0.00    +0.000 C 
ATOM      2  F   UNL     1      49.122   9.201  11.525  0.00  0.00    +0.000 F 
ATOM      3  F   UNL     1      49.549   7.096  11.862  0.00  0.00    +0.000 F 
ENDROOT
BRANCH   1   4
ATOM      4  C   UNL     1      47.265   7.780  12.044  0.00  0.00    +0.000 A 
ATOM      5  C   UNL     1      46.263   8.702  12.372  0.00  0.00    +0.000 A 
ATOM      6  C   UNL     1      44.928   8.412  12.109  0.00  0.00    +0.000 A 
ATOM      7  C   UNL     1      44.583   7.208  11.494  0.00  0.00    +0.000 A 
ATOM      8  C   UNL     1      45.561   6.268  11.127  0.00  0.00    +0.000 A 
ATOM      9  C   UNL     1      46.899   6.564  11.443  0.00  0.00    +0.000 A 
BRANCH   8  10
ATOM     10  C   UNL     1      45.207   5.040  10.390  0.00  0.00    +0.000 A 
ATOM     11  C   UNL     1      44.322   4.095  10.921  0.00  0.00    +0.000 A 
ATOM     12  N   UNL     1      43.929   2.956  10.298  0.00  0.00    +0.000 NA
ATOM     13  C   UNL     1      44.438   2.743   9.066  0.00  0.00    +0.000 A 
ATOM     14  C   UNL     1      45.314   3.610   8.435  0.00  0.00    +0.000 A 
ATOM     15 CL   UNL     1      45.904   3.277   6.859  0.00  0.00    +0.000 Cl
ATOM     16  C   UNL     1      45.701   4.767   9.105  0.00  0.00    +0.000 A 
ENDBRANCH   8  10
ENDBRANCH   1   4
BRANCH   1  17
ATOM     17  C   UNL     1      48.984   8.421  13.758  0.00  0.00    +0.000 C 
BRANCH  17  22
ATOM     18  C   UNL     1      48.143   4.470  16.875  0.00  0.00    +0.000 A 
ATOM     19  C   UNL     1      47.381   4.939  15.811  0.00  0.00    +0.000 A 
ATOM     20  C   UNL     1      47.898   5.947  15.001  0.00  0.00    +0.000 A 
ATOM     21  C   UNL     1      49.160   6.473  15.263  0.00  0.00    +0.000 A 
ATOM     22  N   UNL     1      49.779   7.390  14.435  0.00  0.00    +0.000 N 
ATOM     23  N   UNL     1      49.892   6.048  16.311  0.00  0.00    +0.000 NA
ATOM     24  C   UNL     1      49.371   5.069  17.100  0.00  0.00    +0.000 A 
ATOM     25  H   UNL     1      50.638   7.711  14.877  0.00  0.00    +0.000 HD
BRANCH  18  27
ATOM     26  N   UNL     1      48.421   3.134  18.880  0.00  0.00    +0.000 N 
ATOM     27  C   UNL     1      47.690   3.371  17.748  0.00  0.00    +0.000 C 
ATOM     28  O   UNL     1      46.683   2.720  17.493  0.00  0.00    +0.000 OA
ATOM     29  H   UNL     1      48.045   2.452  19.528  0.00  0.00    +0.000 HD
ATOM     30  H   UNL     1      49.085   3.802  19.245  0.00  0.00    +0.000 HD
ENDBRANCH  18  27
ENDBRANCH  17  22
ENDBRANCH   1  17
TORSDOF 5
ENDMDL
MODEL 5
REMARK VINA RESULT:    -7.189      4.583      7.004
REMARK INTER + INTRA:         -10.065
REMARK INTER:                  -9.432
REMARK INTRA:                  -0.633
REMARK UNBOUND:                -0.775
REMARK  Name = 
REMARK  5 active torsions:
REMARK  status: ('A' for Active; 'I' for Inactive)
REMARK    1  A    between atoms: C_2  and  C_4
REMARK    2  A    between atoms: N_8  and  C_9
REMARK    3  A    between atoms: C_9  and  C_10
REMARK    4  A    between atoms: C_10  and  C_13
REMARK    5  A    between atoms: C_17  and  C_18
REMARK                            x       y       z     vdW  Elec       q    Type
REMARK                         _______ _______ _______ _____ _____    ______ ____
ROOT
ATOM      1  C   UNL     1      48.182   2.839  16.853  0.00  0.00    +0.000 C 
ATOM      2  F   UNL     1      47.210   2.464  17.739  0.00  0.00    +0.000 F 
ATOM      3  F   UNL     1      48.514   1.701  16.175  0.00  0.00    +0.000 F 
ENDROOT
BRANCH   1   4
ATOM      4  C   UNL     1      49.383   3.456  17.547  0.00  0.00    +0.000 A 
ATOM      5  C   UNL     1      49.248   4.624  18.308  0.00  0.00    +0.000 A 
ATOM      6  C   UNL     1      50.342   5.143  18.995  0.00  0.00    +0.000 A 
ATOM      7  C   UNL     1      51.571   4.486  18.950  0.00  0.00    +0.000 A 
ATOM      8  C   UNL     1      51.740   3.298  18.219  0.00  0.00    +0.000 A 
ATOM      9  C   UNL     1      50.632   2.817  17.496  0.00  0.00    +0.000 A 
BRANCH   8  10
ATOM     10  C   UNL     1      53.011   2.551  18.249  0.00  0.00    +0.000 A 
ATOM     11  C   UNL     1      54.083   2.959  19.051  0.00  0.00    +0.000 A 
ATOM     12  N   UNL     1      55.272   2.316  19.152  0.00  0.00    +0.000 NA
ATOM     13  C   UNL     1      55.407   1.190  18.419  0.00  0.00    +0.000 A 
ATOM     14  C   UNL     1      54.414   0.684  17.598  0.00  0.00    +0.000 A 
ATOM     15 CL   UNL     1      54.656  -0.764  16.710  0.00  0.00    +0.000 Cl
ATOM     16  C   UNL     1      53.207   1.373  17.512  0.00  0.00    +0.000 A 
ENDBRANCH   8  10
ENDBRANCH   1   4
BRANCH   1  17
ATOM     17  C   UNL     1      47.568   3.863  15.861  0.00  0.00    +0.000 C 
BRANCH  17  22
ATOM     18  C   UNL     1      44.570   4.775  11.833  0.00  0.00    +0.000 A 
ATOM     19  C   UNL     1      45.140   5.666  12.735  0.00  0.00    +0.000 A 
ATOM     20  C   UNL     1      46.059   5.190  13.669  0.00  0.00    +0.000 A 
ATOM     21  C   UNL     1      46.392   3.838  13.691  0.00  0.00    +0.000 A 
ATOM     22  N   UNL     1      47.376   3.320  14.511  0.00  0.00    +0.000 N 
ATOM     23  N   UNL     1      45.819   2.962  12.843  0.00  0.00    +0.000 NA
ATOM     24  C   UNL     1      44.917   3.438  11.942  0.00  0.00    +0.000 A 
ATOM     25  H   UNL     1      47.371   2.305  14.437  0.00  0.00    +0.000 HD
BRANCH  18  27
ATOM     26  N   UNL     1      43.884   4.786   9.507  0.00  0.00    +0.000 N 
ATOM     27  C   UNL     1      43.629   5.206  10.783  0.00  0.00    +0.000 C 
ATOM     28  O   UNL     1      42.640   5.883  11.045  0.00  0.00    +0.000 OA
ATOM     29  H   UNL     1      43.178   4.995   8.811  0.00  0.00    +0.000 HD
ATOM     30  H   UNL     1      44.525   4.032   9.304  0.00  0.00    +0.000 HD
ENDBRANCH  18  27
ENDBRANCH  17  22
ENDBRANCH   1  17
TORSDOF 5
ENDMDL
MODEL 6
REMARK VINA RESULT:    -7.034      4.030      6.542
REMARK INTER + INTRA:          -9.865
REMARK INTER:                  -9.181
REMARK INTRA:                  -0.684
REMARK UNBOUND:                -0.775
REMARK  Name = 
REMARK  5 active torsions:
REMARK  status: ('A' for Active; 'I' for Inactive)
REMARK    1  A    between atoms: C_2  and  C_4
REMARK    2  A    between atoms: N_8  and  C_9
REMARK    3  A    between atoms: C_9  and  C_10
REMARK    4  A    between atoms: C_10  and  C_13
REMARK    5  A    between atoms: C_17  and  C_18
REMARK                            x       y       z     vdW  Elec       q    Type
REMARK                         _______ _______ _______ _____ _____    ______ ____
ROOT
ATOM      1  C   UNL     1      48.188   2.892  16.862  0.00  0.00    +0.000 C 
ATOM      2  F   UNL     1      47.222   2.431  17.713  0.00  0.00    +0.000 F 
ATOM      3  F   UNL     1      48.622   1.793  16.177  0.00  0.00    +0.000 F 
ENDROOT
BRANCH   1   4
ATOM      4  C   UNL     1      49.320   3.583  17.600  0.00  0.00    +0.000 A 
ATOM      5  C   UNL     1      50.618   3.057  17.578  0.00  0.00    +0.000 A 
ATOM      6  C   UNL     1      51.661   3.735  18.201  0.00  0.00    +0.000 A 
ATOM      7  C   UNL     1      51.423   4.958  18.830  0.00  0.00    +0.000 A 
ATOM      8  C   UNL     1      50.139   5.531  18.852  0.00  0.00    +0.000 A 
ATOM      9  C   UNL     1      49.093   4.805  18.254  0.00  0.00    +0.000 A 
BRANCH   8  10
ATOM     10  C   UNL     1      49.905   6.866  19.431  0.00  0.00    +0.000 A 
ATOM     11  C   UNL     1      50.943   7.610  20.005  0.00  0.00    +0.000 A 
ATOM     12  N   UNL     1      50.814   8.850  20.536  0.00  0.00    +0.000 NA
ATOM     13  C   UNL     1      49.580   9.396  20.487  0.00  0.00    +0.000 A 
ATOM     14  C   UNL     1      48.480   8.762  19.936  0.00  0.00    +0.000 A 
ATOM     15 CL   UNL     1      46.946   9.529  19.897  0.00  0.00    +0.000 Cl
ATOM     16  C   UNL     1      48.646   7.485  19.406  0.00  0.00    +0.000 A 
ENDBRANCH   8  10
ENDBRANCH   1   4
BRANCH   1  17
ATOM     17  C   UNL     1      47.528   3.885  15.867  0.00  0.00    +0.000 C 
BRANCH  17  22
ATOM     18  C   UNL     1      44.578   4.743  11.793  0.00  0.00    +0.000 A 
ATOM     19  C   UNL     1      45.130   5.646  12.695  0.00  0.00    +0.000 A 
ATOM     20  C   UNL     1      46.040   5.183  13.645  0.00  0.00    +0.000 A 
ATOM     21  C   UNL     1      46.381   3.834  13.682  0.00  0.00    +0.000 A 
ATOM     22  N   UNL     1      47.359   3.330  14.519  0.00  0.00    +0.000 N 
ATOM     23  N   UNL     1      45.826   2.947  12.834  0.00  0.00    +0.000 NA
ATOM     24  C   UNL     1      44.933   3.410  11.918  0.00  0.00    +0.000 A 
ATOM     25  H   UNL     1      47.361   2.314  14.453  0.00  0.00    +0.000 HD
BRANCH  18  27
ATOM     26  N   UNL     1      43.915   4.719   9.460  0.00  0.00    +0.000 N 
ATOM     27  C   UNL     1      43.648   5.160  10.727  0.00  0.00    +0.000 C 
ATOM     28  O   UNL     1      42.657   5.841  10.969  0.00  0.00    +0.000 OA
ATOM     29  H   UNL     1      43.216   4.918   8.754  0.00  0.00    +0.000 HD
ATOM     30  H   UNL     1      44.557   3.961   9.275  0.00  0.00    +0.000 HD
ENDBRANCH  18  27
ENDBRANCH  17  22
ENDBRANCH   1  17
TORSDOF 5
ENDMDL
