MODEL 1
REMARK VINA RESULT:    -7.482      0.000      0.000
REMARK INTER + INTRA:          -9.853
REMARK INTER:                  -9.232
REMARK INTRA:                  -0.621
REMARK UNBOUND:                -0.621
REMARK  Name = 
REMARK  4 active torsions:
REMARK  status: ('A' for Active; 'I' for Inactive)
REMARK    1  A    between atoms: C_4  and  C_5
REMARK    2  A    between atoms: C_5  and  N_6
REMARK    3  A    between atoms: N_6  and  C_7
REMARK    4  A    between atoms: C_14  and  C_15
REMARK                            x       y       z     vdW  Elec       q    Type
REMARK                         _______ _______ _______ _____ _____    ______ ____
ROOT
ATOM      1 CL   UNL     1      47.136   3.510  14.495  0.00  0.00    +0.000 Cl
ATOM      2  C   UNL     1      46.294   4.438  13.314  0.00  0.00    +0.000 A 
ATOM      3  C   UNL     1      45.442   3.808  12.423  0.00  0.00    +0.000 A 
ATOM      4  C   UNL     1      44.771   4.593  11.497  0.00  0.00    +0.000 A 
ATOM      5  N   UNL     1      44.947   5.941  11.433  0.00  0.00    +0.000 NA
ATOM      6  C   UNL     1      45.789   6.547  12.310  0.00  0.00    +0.000 A 
ATOM      7  C   UNL     1      46.476   5.814  13.270  0.00  0.00    +0.000 A 
ENDROOT
BRANCH   6   8
ATOM      8  C   UNL     1      45.952   8.002  12.158  0.00  0.00    +0.000 A 
ATOM      9  C   UNL     1      47.169   8.662  12.395  0.00  0.00    +0.000 A 
ATOM     10  C   UNL     1      47.291  10.033  12.169  0.00  0.00    +0.000 A 
ATOM     11  C   UNL     1      46.183  10.726  11.719  0.00  0.00    +0.000 A 
ATOM     12  N   UNL     1      44.984  10.150  11.503  0.00  0.00    +0.000 NA
ATOM     13  C   UNL     1      44.897   8.812  11.733  0.00  0.00    +0.000 A 
ENDBRANCH   6   8
BRANCH   4  14
ATOM     14  C   UNL     1      43.807   3.958  10.508  0.00  0.00    +0.000 C 
BRANCH  14  15
ATOM     15  N   UNL     1      44.198   4.239   9.127  0.00  0.00    +0.000 N 
ATOM     16  H   UNL     1      44.388   5.223   8.954  0.00  0.00    +0.000 HD
BRANCH  15  17
ATOM     17  C   UNL     1      45.090   3.384   8.474  0.00  0.00    +0.000 A 
ATOM     18  C   UNL     1      46.014   3.808   7.516  0.00  0.00    +0.000 A 
ATOM     19  C   UNL     1      46.936   2.914   6.967  0.00  0.00    +0.000 A 
ATOM     20  C   UNL     1      46.926   1.603   7.406  0.00  0.00    +0.000 A 
ATOM     21  N   UNL     1      46.081   1.145   8.349  0.00  0.00    +0.000 NA
ATOM     22  C   UNL     1      45.209   2.047   8.868  0.00  0.00    +0.000 A 
ENDBRANCH  15  17
ENDBRANCH  14  15
ENDBRANCH   4  14
TORSDOF 4
ENDMDL
MODEL 2
REMARK VINA RESULT:    -7.329      2.466      3.984
REMARK INTER + INTRA:          -9.665
REMARK INTER:                  -9.064
REMARK INTRA:                  -0.601
REMARK UNBOUND:                -0.621
REMARK  Name = 
REMARK  4 active torsions:
REMARK  status: ('A' for Active; 'I' for Inactive)
REMARK    1  A    between atoms: C_4  and  C_5
REMARK    2  A    between atoms: C_5  and  N_6
REMARK    3  A    between atoms: N_6  and  C_7
REMARK    4  A    between atoms: C_14  and  C_15
REMARK                            x       y       z     vdW  Elec       q    Type
REMARK                         _______ _______ _______ _____ _____    ______ ____
ROOT
ATOM      1 CL   UNL     1      44.799   8.548  11.431  0.00  0.00    +0.000 Cl
ATOM      2  C   UNL     1      45.074   6.897  11.838  0.00  0.00    +0.000 A 
ATOM      3  C   UNL     1      44.460   5.896  11.105  0.00  0.00    +0.000 A 
ATOM      4  C   UNL     1      44.718   4.579  11.456  0.00  0.00    +0.000 A 
ATOM      5  N   UNL     1      45.529   4.258  12.500  0.00  0.00    +0.000 NA
ATOM      6  C   UNL     1      46.122   5.249  13.215  0.00  0.00    +0.000 A 
ATOM      7  C   UNL     1      45.913   6.586  12.900  0.00  0.00    +0.000 A 
ENDROOT
BRANCH   6   8
ATOM      8  C   UNL     1      46.958   4.824  14.349  0.00  0.00    +0.000 A 
ATOM      9  C   UNL     1      47.606   5.733  15.203  0.00  0.00    +0.000 A 
ATOM     10  C   UNL     1      48.331   5.282  16.306  0.00  0.00    +0.000 A 
ATOM     11  C   UNL     1      48.405   3.920  16.530  0.00  0.00    +0.000 A 
ATOM     12  N   UNL     1      47.829   3.003  15.729  0.00  0.00    +0.000 NA
ATOM     13  C   UNL     1      47.130   3.474  14.661  0.00  0.00    +0.000 A 
ENDBRANCH   6   8
BRANCH   4  14
ATOM     14  C   UNL     1      44.089   3.439  10.673  0.00  0.00    +0.000 C 
BRANCH  14  15
ATOM     15  N   UNL     1      44.180   3.668   9.232  0.00  0.00    +0.000 N 
ATOM     16  H   UNL     1      44.062   4.643   8.970  0.00  0.00    +0.000 HD
BRANCH  15  17
ATOM     17  C   UNL     1      45.169   3.015   8.490  0.00  0.00    +0.000 A 
ATOM     18  C   UNL     1      46.036   3.665   7.608  0.00  0.00    +0.000 A 
ATOM     19  C   UNL     1      47.059   2.965   6.965  0.00  0.00    +0.000 A 
ATOM     20  C   UNL     1      47.207   1.617   7.235  0.00  0.00    +0.000 A 
ATOM     21  N   UNL     1      46.423   0.945   8.099  0.00  0.00    +0.000 NA
ATOM     22  C   UNL     1      45.449   1.663   8.713  0.00  0.00    +0.000 A 
ENDBRANCH  15  17
ENDBRANCH  14  15
ENDBRANCH   4  14
TORSDOF 4
ENDMDL
MODEL 3
REMARK VINA RESULT:    -6.942      2.865      4.339
REMARK INTER + INTRA:          -9.186
REMARK INTER:                  -8.628
REMARK INTRA:                  -0.558
REMARK UNBOUND:                -0.621
REMARK  Name = 
REMARK  4 active torsions:
REMARK  status: ('A' for Active; 'I' for Inactive)
REMARK    1  A    between atoms: C_4  and  C_5
REMARK    2  A    between atoms: C_5  and  N_6
REMARK    3  A    between atoms: N_6  and  C_7
REMARK    4  A    between atoms: C_14  and  C_15
REMARK                            x       y       z     vdW  Elec       q    Type
REMARK                         _______ _______ _______ _____ _____    ______ ____
ROOT
ATOM      1 CL   UNL     1      48.669   7.979  11.380  0.00  0.00    +0.000 Cl
ATOM      2  C   UNL     1      47.680   6.806  12.161  0.00  0.00    +0.000 A 
ATOM      3  C   UNL     1      46.558   6.313  11.517  0.00  0.00    +0.000 A 
ATOM      4  C   UNL     1      45.795   5.360  12.175  0.00  0.00    +0.000 A 
ATOM      5  N   UNL     1      46.108   4.923  13.425  0.00  0.00    +0.000 NA
ATOM      6  C   UNL     1      47.209   5.418  14.048  0.00  0.00    +0.000 A 
ATOM      7  C   UNL     1      48.020   6.363  13.433  0.00  0.00    +0.000 A 
ENDROOT
BRANCH   6   8
ATOM      8  C   UNL     1      47.464   4.923  15.411  0.00  0.00    +0.000 A 
ATOM      9  C   UNL     1      48.333   5.567  16.307  0.00  0.00    +0.000 A 
ATOM     10  C   UNL     1      48.488   5.098  17.612  0.00  0.00    +0.000 A 
ATOM     11  C   UNL     1      47.775   3.978  17.995  0.00  0.00    +0.000 A 
ATOM     12  N   UNL     1      46.950   3.304  17.170  0.00  0.00    +0.000 NA
ATOM     13  C   UNL     1      46.822   3.786  15.904  0.00  0.00    +0.000 A 
ENDBRANCH   6   8
BRANCH   4  14
ATOM     14  C   UNL     1      44.565   4.767  11.507  0.00  0.00    +0.000 C 
BRANCH  14  15
ATOM     15  N   UNL     1      44.584   4.987  10.062  0.00  0.00    +0.000 N 
ATOM     16  H   UNL     1      44.845   5.934   9.801  0.00  0.00    +0.000 HD
BRANCH  15  17
ATOM     17  C   UNL     1      45.138   4.015   9.223  0.00  0.00    +0.000 A 
ATOM     18  C   UNL     1      45.932   4.307   8.112  0.00  0.00    +0.000 A 
ATOM     19  C   UNL     1      46.525   3.284   7.368  0.00  0.00    +0.000 A 
ATOM     20  C   UNL     1      46.325   1.976   7.768  0.00  0.00    +0.000 A 
ATOM     21  N   UNL     1      45.597   1.636   8.848  0.00  0.00    +0.000 NA
ATOM     22  C   UNL     1      45.047   2.658   9.552  0.00  0.00    +0.000 A 
ENDBRANCH  15  17
ENDBRANCH  14  15
ENDBRANCH   4  14
TORSDOF 4
ENDMDL
MODEL 4
REMARK VINA RESULT:    -6.601      1.982      6.761
REMARK INTER + INTRA:          -8.766
REMARK INTER:                  -8.263
REMARK INTRA:                  -0.503
REMARK UNBOUND:                -0.621
REMARK  Name = 
REMARK  4 active torsions:
REMARK  status: ('A' for Active; 'I' for Inactive)
REMARK    1  A    between atoms: C_4  and  C_5
REMARK    2  A    between atoms: C_5  and  N_6
REMARK    3  A    between atoms: N_6  and  C_7
REMARK    4  A    between atoms: C_14  and  C_15
REMARK                            x       y       z     vdW  Elec       q    Type
REMARK                         _______ _______ _______ _____ _____    ______ ____
ROOT
ATOM      1 CL   UNL     1      43.025   1.989  11.760  0.00  0.00    +0.000 Cl
ATOM      2  C   UNL     1      44.030   3.015  10.809  0.00  0.00    +0.000 A 
ATOM      3  C   UNL     1      44.158   4.352  11.143  0.00  0.00    +0.000 A 
ATOM      4  C   UNL     1      44.988   5.142  10.360  0.00  0.00    +0.000 A 
ATOM      5  N   UNL     1      45.647   4.644   9.278  0.00  0.00    +0.000 NA
ATOM      6  C   UNL     1      45.507   3.331   8.959  0.00  0.00    +0.000 A 
ATOM      7  C   UNL     1      44.703   2.488   9.715  0.00  0.00    +0.000 A 
ENDROOT
BRANCH   6   8
ATOM      8  C   UNL     1      46.224   2.874   7.757  0.00  0.00    +0.000 A 
ATOM      9  C   UNL     1      46.413   3.685   6.626  0.00  0.00    +0.000 A 
ATOM     10  C   UNL     1      47.159   3.231   5.539  0.00  0.00    +0.000 A 
ATOM     11  C   UNL     1      47.696   1.958   5.598  0.00  0.00    +0.000 A 
ATOM     12  N   UNL     1      47.523   1.127   6.643  0.00  0.00    +0.000 NA
ATOM     13  C   UNL     1      46.790   1.599   7.687  0.00  0.00    +0.000 A 
ENDBRANCH   6   8
BRANCH   4  14
ATOM     14  C   UNL     1      45.185   6.612  10.692  0.00  0.00    +0.000 C 
BRANCH  14  15
ATOM     15  N   UNL     1      45.101   6.849  12.132  0.00  0.00    +0.000 N 
ATOM     16  H   UNL     1      44.341   6.344  12.580  0.00  0.00    +0.000 HD
BRANCH  15  17
ATOM     17  C   UNL     1      46.270   6.875  12.897  0.00  0.00    +0.000 A 
ATOM     18  C   UNL     1      46.910   8.049  13.303  0.00  0.00    +0.000 A 
ATOM     19  C   UNL     1      48.027   8.003  14.140  0.00  0.00    +0.000 A 
ATOM     20  C   UNL     1      48.474   6.769  14.576  0.00  0.00    +0.000 A 
ATOM     21  N   UNL     1      47.879   5.607  14.245  0.00  0.00    +0.000 NA
ATOM     22  C   UNL     1      46.790   5.695  13.440  0.00  0.00    +0.000 A 
ENDBRANCH  15  17
ENDBRANCH  14  15
ENDBRANCH   4  14
TORSDOF 4
ENDMDL
MODEL 5
REMARK VINA RESULT:    -6.574      2.692      3.542
REMARK INTER + INTRA:          -8.732
REMARK INTER:                  -8.163
REMARK INTRA:                  -0.569
REMARK UNBOUND:                -0.621
REMARK  Name = 
REMARK  4 active torsions:
REMARK  status: ('A' for Active; 'I' for Inactive)
REMARK    1  A    between atoms: C_4  and  C_5
REMARK    2  A    between atoms: C_5  and  N_6
REMARK    3  A    between atoms: N_6  and  C_7
REMARK    4  A    between atoms: C_14  and  C_15
REMARK                            x       y       z     vdW  Elec       q    Type
REMARK                         _______ _______ _______ _____ _____    ______ ____
ROOT
ATOM      1 CL   UNL     1      43.910   9.175  11.012  0.00  0.00    +0.000 Cl
ATOM      2  C   UNL     1      44.742   7.795  11.620  0.00  0.00    +0.000 A 
ATOM      3  C   UNL     1      44.231   6.528  11.393  0.00  0.00    +0.000 A 
ATOM      4  C   UNL     1      44.939   5.443  11.887  0.00  0.00    +0.000 A 
ATOM      5  N   UNL     1      46.090   5.595  12.596  0.00  0.00    +0.000 NA
ATOM      6  C   UNL     1      46.578   6.844  12.817  0.00  0.00    +0.000 A 
ATOM      7  C   UNL     1      45.921   7.968  12.333  0.00  0.00    +0.000 A 
ENDROOT
BRANCH   6   8
ATOM      8  C   UNL     1      47.808   6.930  13.620  0.00  0.00    +0.000 A 
ATOM      9  C   UNL     1      48.807   7.890  13.387  0.00  0.00    +0.000 A 
ATOM     10  C   UNL     1      49.922   7.975  14.220  0.00  0.00    +0.000 A 
ATOM     11  C   UNL     1      50.026   7.083  15.271  0.00  0.00    +0.000 A 
ATOM     12  N   UNL     1      49.115   6.124  15.524  0.00  0.00    +0.000 NA
ATOM     13  C   UNL     1      48.039   6.067  14.693  0.00  0.00    +0.000 A 
ENDBRANCH   6   8
BRANCH   4  14
ATOM     14  C   UNL     1      44.437   4.028  11.649  0.00  0.00    +0.000 C 
BRANCH  14  15
ATOM     15  N   UNL     1      44.030   3.833  10.258  0.00  0.00    +0.000 N 
ATOM     16  H   UNL     1      43.411   4.562   9.914  0.00  0.00    +0.000 HD
BRANCH  15  17
ATOM     17  C   UNL     1      44.975   3.423   9.313  0.00  0.00    +0.000 A 
ATOM     18  C   UNL     1      45.305   2.088   9.070  0.00  0.00    +0.000 A 
ATOM     19  C   UNL     1      46.194   1.744   8.049  0.00  0.00    +0.000 A 
ATOM     20  C   UNL     1      46.727   2.755   7.271  0.00  0.00    +0.000 A 
ATOM     21  N   UNL     1      46.421   4.056   7.437  0.00  0.00    +0.000 NA
ATOM     22  C   UNL     1      45.544   4.348   8.431  0.00  0.00    +0.000 A 
ENDBRANCH  15  17
ENDBRANCH  14  15
ENDBRANCH   4  14
TORSDOF 4
ENDMDL
MODEL 6
REMARK VINA RESULT:    -6.456      3.591      7.187
REMARK INTER + INTRA:          -8.587
REMARK INTER:                  -8.172
REMARK INTRA:                  -0.416
REMARK UNBOUND:                -0.621
REMARK  Name = 
REMARK  4 active torsions:
REMARK  status: ('A' for Active; 'I' for Inactive)
REMARK    1  A    between atoms: C_4  and  C_5
REMARK    2  A    between atoms: C_5  and  N_6
REMARK    3  A    between atoms: N_6  and  C_7
REMARK    4  A    between atoms: C_14  and  C_15
REMARK                            x       y       z     vdW  Elec       q    Type
REMARK                         _______ _______ _______ _____ _____    ______ ____
ROOT
ATOM      1 CL   UNL     1      44.835   9.853  12.166  0.00  0.00    +0.000 Cl
ATOM      2  C   UNL     1      45.447   8.245  12.240  0.00  0.00    +0.000 A 
ATOM      3  C   UNL     1      46.360   7.901  13.223  0.00  0.00    +0.000 A 
ATOM      4  C   UNL     1      46.818   6.592  13.257  0.00  0.00    +0.000 A 
ATOM      5  N   UNL     1      46.413   5.663  12.348  0.00  0.00    +0.000 NA
ATOM      6  C   UNL     1      45.521   6.015  11.386  0.00  0.00    +0.000 A 
ATOM      7  C   UNL     1      45.016   7.307  11.312  0.00  0.00    +0.000 A 
ENDROOT
BRANCH   6   8
ATOM      8  C   UNL     1      45.158   4.966  10.419  0.00  0.00    +0.000 A 
ATOM      9  C   UNL     1      45.643   4.941   9.101  0.00  0.00    +0.000 A 
ATOM     10  C   UNL     1      45.325   3.887   8.245  0.00  0.00    +0.000 A 
ATOM     11  C   UNL     1      44.511   2.877   8.721  0.00  0.00    +0.000 A 
ATOM     12  N   UNL     1      43.994   2.864   9.965  0.00  0.00    +0.000 NA
ATOM     13  C   UNL     1      44.323   3.906  10.776  0.00  0.00    +0.000 A 
ENDBRANCH   6   8
BRANCH   4  14
ATOM     14  C   UNL     1      47.803   6.152  14.326  0.00  0.00    +0.000 C 
BRANCH  14  15
ATOM     15  N   UNL     1      47.242   5.096  15.166  0.00  0.00    +0.000 N 
ATOM     16  H   UNL     1      46.905   4.296  14.637  0.00  0.00    +0.000 HD
BRANCH  15  17
ATOM     17  C   UNL     1      47.893   4.735  16.350  0.00  0.00    +0.000 A 
ATOM     18  C   UNL     1      47.743   3.494  16.974  0.00  0.00    +0.000 A 
ATOM     19  C   UNL     1      48.491   3.169  18.108  0.00  0.00    +0.000 A 
ATOM     20  C   UNL     1      49.398   4.095  18.589  0.00  0.00    +0.000 A 
ATOM     21  N   UNL     1      49.609   5.293  18.011  0.00  0.00    +0.000 NA
ATOM     22  C   UNL     1      48.872   5.567  16.904  0.00  0.00    +0.000 A 
ENDBRANCH  15  17
ENDBRANCH  14  15
ENDBRANCH   4  14
TORSDOF 4
ENDMDL
MODEL 7
REMARK VINA RESULT:    -6.058      4.008      7.002
REMARK INTER + INTRA:          -8.096
REMARK INTER:                  -7.471
REMARK INTRA:                  -0.625
REMARK UNBOUND:                -0.621
REMARK  Name = 
REMARK  4 active torsions:
REMARK  status: ('A' for Active; 'I' for Inactive)
REMARK    1  A    between atoms: C_4  and  C_5
REMARK    2  A    between atoms: C_5  and  N_6
REMARK    3  A    between atoms: N_6  and  C_7
REMARK    4  A    between atoms: C_14  and  C_15
REMARK                            x       y       z     vdW  Elec       q    Type
REMARK                         _______ _______ _______ _____ _____    ______ ____
ROOT
ATOM      1 CL   UNL     1      49.545   8.664  11.368  0.00  0.00    +0.000 Cl
ATOM      2  C   UNL     1      48.644   7.609  12.388  0.00  0.00    +0.000 A 
ATOM      3  C   UNL     1      48.969   7.506  13.730  0.00  0.00    +0.000 A 
ATOM      4  C   UNL     1      48.210   6.656  14.521  0.00  0.00    +0.000 A 
ATOM      5  N   UNL     1      47.187   5.918  14.010  0.00  0.00    +0.000 NA
ATOM      6  C   UNL     1      46.882   6.024  12.690  0.00  0.00    +0.000 A 
ATOM      7  C   UNL     1      47.596   6.871  11.853  0.00  0.00    +0.000 A 
ENDROOT
BRANCH   6   8
ATOM      8  C   UNL     1      45.785   5.171  12.205  0.00  0.00    +0.000 A 
ATOM      9  C   UNL     1      45.212   5.315  10.930  0.00  0.00    +0.000 A 
ATOM     10  C   UNL     1      44.222   4.437  10.490  0.00  0.00    +0.000 A 
ATOM     11  C   UNL     1      43.811   3.430  11.344  0.00  0.00    +0.000 A 
ATOM     12  N   UNL     1      44.304   3.263  12.586  0.00  0.00    +0.000 NA
ATOM     13  C   UNL     1      45.268   4.136  12.986  0.00  0.00    +0.000 A 
ENDBRANCH   6   8
BRANCH   4  14
ATOM     14  C   UNL     1      48.507   6.519  16.005  0.00  0.00    +0.000 C 
BRANCH  14  15
ATOM     15  N   UNL     1      48.000   5.256  16.536  0.00  0.00    +0.000 N 
ATOM     16  H   UNL     1      47.095   4.992  16.156  0.00  0.00    +0.000 HD
BRANCH  15  17
ATOM     17  C   UNL     1      48.869   4.171  16.686  0.00  0.00    +0.000 A 
ATOM     18  C   UNL     1      50.037   4.209  17.451  0.00  0.00    +0.000 A 
ATOM     19  C   UNL     1      50.814   3.062  17.629  0.00  0.00    +0.000 A 
ATOM     20  C   UNL     1      50.391   1.882  17.046  0.00  0.00    +0.000 A 
ATOM     21  N   UNL     1      49.259   1.777  16.325  0.00  0.00    +0.000 NA
ATOM     22  C   UNL     1      48.525   2.911  16.186  0.00  0.00    +0.000 A 
ENDBRANCH  15  17
ENDBRANCH  14  15
ENDBRANCH   4  14
TORSDOF 4
ENDMDL
MODEL 8
REMARK VINA RESULT:    -5.856      5.659      7.835
REMARK INTER + INTRA:          -7.846
REMARK INTER:                  -7.454
REMARK INTRA:                  -0.392
REMARK UNBOUND:                -0.621
REMARK  Name = 
REMARK  4 active torsions:
REMARK  status: ('A' for Active; 'I' for Inactive)
REMARK    1  A    between atoms: C_4  and  C_5
REMARK    2  A    between atoms: C_5  and  N_6
REMARK    3  A    between atoms: N_6  and  C_7
REMARK    4  A    between atoms: C_14  and  C_15
REMARK                            x       y       z     vdW  Elec       q    Type
REMARK                         _______ _______ _______ _____ _____    ______ ____
ROOT
ATOM      1 CL   UNL     1      47.440   5.906  20.088  0.00  0.00    +0.000 Cl
ATOM      2  C   UNL     1      48.041   5.001  18.751  0.00  0.00    +0.000 A 
ATOM      3  C   UNL     1      47.287   4.902  17.594  0.00  0.00    +0.000 A 
ATOM      4  C   UNL     1      47.812   4.176  16.535  0.00  0.00    +0.000 A 
ATOM      5  N   UNL     1      49.019   3.553  16.616  0.00  0.00    +0.000 NA
ATOM      6  C   UNL     1      49.746   3.654  17.760  0.00  0.00    +0.000 A 
ATOM      7  C   UNL     1      49.279   4.380  18.847  0.00  0.00    +0.000 A 
ENDROOT
BRANCH   6   8
ATOM      8  C   UNL     1      51.025   2.925  17.784  0.00  0.00    +0.000 A 
ATOM      9  C   UNL     1      51.145   1.580  17.394  0.00  0.00    +0.000 A 
ATOM     10  C   UNL     1      52.391   0.954  17.369  0.00  0.00    +0.000 A 
ATOM     11  C   UNL     1      53.501   1.686  17.749  0.00  0.00    +0.000 A 
ATOM     12  N   UNL     1      53.441   2.967  18.160  0.00  0.00    +0.000 NA
ATOM     13  C   UNL     1      52.211   3.549  18.174  0.00  0.00    +0.000 A 
ENDBRANCH   6   8
BRANCH   4  14
ATOM     14  C   UNL     1      47.039   4.052  15.232  0.00  0.00    +0.000 C 
BRANCH  14  15
ATOM     15  N   UNL     1      46.910   5.345  14.563  0.00  0.00    +0.000 N 
ATOM     16  H   UNL     1      47.761   5.900  14.590  0.00  0.00    +0.000 HD
BRANCH  15  17
ATOM     17  C   UNL     1      46.240   5.425  13.338  0.00  0.00    +0.000 A 
ATOM     18  C   UNL     1      46.670   6.212  12.267  0.00  0.00    +0.000 A 
ATOM     19  C   UNL     1      46.002   6.178  11.041  0.00  0.00    +0.000 A 
ATOM     20  C   UNL     1      44.916   5.333  10.905  0.00  0.00    +0.000 A 
ATOM     21  N   UNL     1      44.476   4.529  11.891  0.00  0.00    +0.000 NA
ATOM     22  C   UNL     1      45.159   4.581  13.063  0.00  0.00    +0.000 A 
ENDBRANCH  15  17
ENDBRANCH  14  15
ENDBRANCH   4  14
TORSDOF 4
ENDMDL
MODEL 9
REMARK VINA RESULT:    -5.585      4.500      8.024
REMARK INTER + INTRA:          -7.513
REMARK INTER:                  -7.060
REMARK INTRA:                  -0.453
REMARK UNBOUND:                -0.621
REMARK  Name = 
REMARK  4 active torsions:
REMARK  status: ('A' for Active; 'I' for Inactive)
REMARK    1  A    between atoms: C_4  and  C_5
REMARK    2  A    between atoms: C_5  and  N_6
REMARK    3  A    between atoms: N_6  and  C_7
REMARK    4  A    between atoms: C_14  and  C_15
REMARK                            x       y       z     vdW  Elec       q    Type
REMARK                         _______ _______ _______ _____ _____    ______ ____
ROOT
ATOM      1 CL   UNL     1      48.915   9.049  11.416  0.00  0.00    +0.000 Cl
ATOM      2  C   UNL     1      48.266   7.798  12.406  0.00  0.00    +0.000 A 
ATOM      3  C   UNL     1      48.818   7.551  13.652  0.00  0.00    +0.000 A 
ATOM      4  C   UNL     1      48.258   6.544  14.424  0.00  0.00    +0.000 A 
ATOM      5  N   UNL     1      47.212   5.794  13.982  0.00  0.00    +0.000 NA
ATOM      6  C   UNL     1      46.683   6.043  12.756  0.00  0.00    +0.000 A 
ATOM      7  C   UNL     1      47.192   7.049  11.944  0.00  0.00    +0.000 A 
ENDROOT
BRANCH   6   8
ATOM      8  C   UNL     1      45.577   5.168  12.334  0.00  0.00    +0.000 A 
ATOM      9  C   UNL     1      45.210   4.996  10.989  0.00  0.00    +0.000 A 
ATOM     10  C   UNL     1      44.199   4.103  10.634  0.00  0.00    +0.000 A 
ATOM     11  C   UNL     1      43.561   3.401  11.640  0.00  0.00    +0.000 A 
ATOM     12  N   UNL     1      43.851   3.548  12.947  0.00  0.00    +0.000 NA
ATOM     13  C   UNL     1      44.841   4.427  13.260  0.00  0.00    +0.000 A 
ENDBRANCH   6   8
BRANCH   4  14
ATOM     14  C   UNL     1      48.807   6.244  15.809  0.00  0.00    +0.000 C 
BRANCH  14  15
ATOM     15  N   UNL     1      47.813   5.571  16.643  0.00  0.00    +0.000 N 
ATOM     16  H   UNL     1      47.497   4.685  16.258  0.00  0.00    +0.000 HD
BRANCH  15  17
ATOM     17  C   UNL     1      47.985   5.537  18.030  0.00  0.00    +0.000 A 
ATOM     18  C   UNL     1      47.451   6.487  18.904  0.00  0.00    +0.000 A 
ATOM     19  C   UNL     1      47.587   6.344  20.286  0.00  0.00    +0.000 A 
ATOM     20  C   UNL     1      48.246   5.230  20.773  0.00  0.00    +0.000 A 
ATOM     21  N   UNL     1      48.753   4.266  19.981  0.00  0.00    +0.000 NA
ATOM     22  C   UNL     1      48.589   4.435  18.644  0.00  0.00    +0.000 A 
ENDBRANCH  15  17
ENDBRANCH  14  15
ENDBRANCH   4  14
TORSDOF 4
ENDMDL
