MODEL 1
REMARK VINA RESULT:    -7.139      0.000      0.000
REMARK INTER + INTRA:         -10.750
REMARK INTER:                  -9.643
REMARK INTRA:                  -1.107
REMARK UNBOUND:                -1.107
REMARK  Name = 
REMARK  7 active torsions:
REMARK  status: ('A' for Active; 'I' for Inactive)
REMARK    1  A    between atoms: C_1  and  C_2
REMARK    2  A    between atoms: C_2  and  N_3
REMARK    3  A    between atoms: C_2  and  C_16
REMARK    4  A    between atoms: C_4  and  C_6
REMARK    5  A    between atoms: C_19  and  C_20
REMARK    6  A    between atoms: C_20  and  N_21
REMARK    7  A    between atoms: C_22  and  C_24
REMARK                            x       y       z     vdW  Elec       q    Type
REMARK                         _______ _______ _______ _____ _____    ______ ____
ROOT
ATOM      1  C   UNL     1      49.458   7.885  13.394  0.00  0.00    +0.000 C 
ATOM      2  C   UNL     1      48.085   7.684  14.052  0.00  0.00    +0.000 C 
ENDROOT
BRANCH   2   3
ATOM      3  C   UNL     1      47.235   6.616  13.381  0.00  0.00    +0.000 A 
ATOM      4  C   UNL     1      47.007   5.374  13.993  0.00  0.00    +0.000 A 
ATOM      5  C   UNL     1      46.171   4.417  13.396  0.00  0.00    +0.000 A 
ATOM      6  C   UNL     1      45.544   4.672  12.166  0.00  0.00    +0.000 A 
ATOM      7  C   UNL     1      45.809   5.896  11.536  0.00  0.00    +0.000 A 
ATOM      8  C   UNL     1      46.652   6.843  12.128  0.00  0.00    +0.000 A 
BRANCH   6   9
ATOM      9  C   UNL     1      44.623   3.676  11.504  0.00  0.00    +0.000 C 
BRANCH   9  10
ATOM     10  N   UNL     1      45.246   2.875  10.475  0.00  0.00    +0.000 N 
ATOM     11  C   UNL     1      45.155   3.200   9.134  0.00  0.00    +0.000 C 
ATOM     12  O   UNL     1      44.519   4.184   8.745  0.00  0.00    +0.000 OA
ATOM     13  H   UNL     1      45.782   2.042  10.697  0.00  0.00    +0.000 HD
BRANCH  11  14
ATOM     14  C   UNL     1      45.893   2.290   8.261  0.00  0.00    +0.000 A 
ATOM     15  N   UNL     1      46.007   0.991   8.492  0.00  0.00    +0.000 NA
ATOM     16  C   UNL     1      46.777   0.420   7.494  0.00  0.00    +0.000 A 
ATOM     17  C   UNL     1      47.292   1.296   6.564  0.00  0.00    +0.000 A 
ATOM     18  S   UNL     1      46.722   2.880   6.879  0.00  0.00    +0.000 S 
ENDBRANCH  11  14
ENDBRANCH   9  10
ENDBRANCH   6   9
ENDBRANCH   2   3
BRANCH   2  19
ATOM     19  N   UNL     1      48.258   7.345  15.451  0.00  0.00    +0.000 N 
ATOM     20  C   UNL     1      48.479   8.269  16.427  0.00  0.00    +0.000 C 
ATOM     21  O   UNL     1      48.496   9.486  16.209  0.00  0.00    +0.000 OA
ATOM     22  H   UNL     1      48.290   6.359  15.678  0.00  0.00    +0.000 HD
BRANCH  20  23
ATOM     23  C   UNL     1      48.613   7.740  17.784  0.00  0.00    +0.000 A 
ATOM     24  C   UNL     1      47.870   8.282  18.822  0.00  0.00    +0.000 A 
ATOM     25  S   UNL     1      48.179   7.551  20.331  0.00  0.00    +0.000 S 
ATOM     26  C   UNL     1      49.336   6.506  19.651  0.00  0.00    +0.000 A 
ATOM     27  N   UNL     1      50.025   5.626  20.427  0.00  0.00    +0.000 NA
ATOM     28  C   UNL     1      50.902   4.925  19.789  0.00  0.00    +0.000 A 
ATOM     29  N   UNL     1      51.146   5.014  18.443  0.00  0.00    +0.000 N 
ATOM     30  C   UNL     1      50.437   5.848  17.607  0.00  0.00    +0.000 A 
ATOM     31  O   UNL     1      50.609   5.827  16.397  0.00  0.00    +0.000 OA
ATOM     32  C   UNL     1      49.465   6.688  18.287  0.00  0.00    +0.000 A 
ATOM     33  H   UNL     1      51.821   4.410  17.998  0.00  0.00    +0.000 HD
ENDBRANCH  20  23
ENDBRANCH   2  19
TORSDOF 6
ENDMDL
MODEL 2
REMARK VINA RESULT:    -6.990      2.356      3.285
REMARK INTER + INTRA:         -10.549
REMARK INTER:                  -9.350
REMARK INTRA:                  -1.199
REMARK UNBOUND:                -1.107
REMARK  Name = 
REMARK  7 active torsions:
REMARK  status: ('A' for Active; 'I' for Inactive)
REMARK    1  A    between atoms: C_1  and  C_2
REMARK    2  A    between atoms: C_2  and  N_3
REMARK    3  A    between atoms: C_2  and  C_16
REMARK    4  A    between atoms: C_4  and  C_6
REMARK    5  A    between atoms: C_19  and  C_20
REMARK    6  A    between atoms: C_20  and  N_21
REMARK    7  A    between atoms: C_22  and  C_24
REMARK                            x       y       z     vdW  Elec       q    Type
REMARK                         _______ _______ _______ _____ _____    ______ ____
ROOT
ATOM      1  C   UNL     1      47.267   3.965  16.401  0.00  0.00    +0.000 C 
ATOM      2  C   UNL     1      47.787   4.873  15.276  0.00  0.00    +0.000 C 
ENDROOT
BRANCH   2   3
ATOM      3  C   UNL     1      46.922   4.853  14.025  0.00  0.00    +0.000 A 
ATOM      4  C   UNL     1      46.758   5.999  13.233  0.00  0.00    +0.000 A 
ATOM      5  C   UNL     1      46.008   5.957  12.047  0.00  0.00    +0.000 A 
ATOM      6  C   UNL     1      45.395   4.768  11.622  0.00  0.00    +0.000 A 
ATOM      7  C   UNL     1      45.524   3.635  12.438  0.00  0.00    +0.000 A 
ATOM      8  C   UNL     1      46.262   3.684  13.625  0.00  0.00    +0.000 A 
BRANCH   6   9
ATOM      9  C   UNL     1      44.598   4.678  10.342  0.00  0.00    +0.000 C 
BRANCH   9  10
ATOM     10  N   UNL     1      45.366   4.282   9.184  0.00  0.00    +0.000 N 
ATOM     11  C   UNL     1      45.416   2.972   8.748  0.00  0.00    +0.000 C 
ATOM     12  O   UNL     1      44.821   2.066   9.339  0.00  0.00    +0.000 OA
ATOM     13  H   UNL     1      45.896   4.955   8.638  0.00  0.00    +0.000 HD
BRANCH  11  14
ATOM     14  C   UNL     1      46.209   2.790   7.533  0.00  0.00    +0.000 A 
ATOM     15  N   UNL     1      46.249   3.677   6.550  0.00  0.00    +0.000 NA
ATOM     16  C   UNL     1      47.072   3.201   5.545  0.00  0.00    +0.000 A 
ATOM     17  C   UNL     1      47.587   1.939   5.744  0.00  0.00    +0.000 A 
ATOM     18  S   UNL     1      47.112   1.354   7.282  0.00  0.00    +0.000 S 
ENDBRANCH  11  14
ENDBRANCH   9  10
ENDBRANCH   6   9
ENDBRANCH   2   3
BRANCH   2  19
ATOM     19  N   UNL     1      47.895   6.236  15.758  0.00  0.00    +0.000 N 
ATOM     20  C   UNL     1      49.080   6.835  16.057  0.00  0.00    +0.000 C 
ATOM     21  O   UNL     1      50.174   6.282  15.891  0.00  0.00    +0.000 OA
ATOM     22  H   UNL     1      47.027   6.721  15.946  0.00  0.00    +0.000 HD
BRANCH  20  23
ATOM     23  C   UNL     1      48.994   8.222  16.514  0.00  0.00    +0.000 A 
ATOM     24  C   UNL     1      49.556   9.242  15.761  0.00  0.00    +0.000 A 
ATOM     25  S   UNL     1      49.374  10.784  16.465  0.00  0.00    +0.000 S 
ATOM     26  C   UNL     1      48.563  10.135  17.812  0.00  0.00    +0.000 A 
ATOM     27  N   UNL     1      48.158  10.933  18.836  0.00  0.00    +0.000 NA
ATOM     28  C   UNL     1      47.594  10.304  19.813  0.00  0.00    +0.000 A 
ATOM     29  N   UNL     1      47.387   8.949  19.856  0.00  0.00    +0.000 N 
ATOM     30  C   UNL     1      47.728   8.107  18.821  0.00  0.00    +0.000 A 
ATOM     31  O   UNL     1      47.437   6.921  18.848  0.00  0.00    +0.000 OA
ATOM     32  C   UNL     1      48.405   8.765  17.715  0.00  0.00    +0.000 A 
ATOM     33  H   UNL     1      46.907   8.524  20.634  0.00  0.00    +0.000 HD
ENDBRANCH  20  23
ENDBRANCH   2  19
TORSDOF 6
ENDMDL
MODEL 3
REMARK VINA RESULT:    -6.956      1.979      3.336
REMARK INTER + INTRA:         -10.504
REMARK INTER:                  -9.348
REMARK INTRA:                  -1.156
REMARK UNBOUND:                -1.107
REMARK  Name = 
REMARK  7 active torsions:
REMARK  status: ('A' for Active; 'I' for Inactive)
REMARK    1  A    between atoms: C_1  and  C_2
REMARK    2  A    between atoms: C_2  and  N_3
REMARK    3  A    between atoms: C_2  and  C_16
REMARK    4  A    between atoms: C_4  and  C_6
REMARK    5  A    between atoms: C_19  and  C_20
REMARK    6  A    between atoms: C_20  and  N_21
REMARK    7  A    between atoms: C_22  and  C_24
REMARK                            x       y       z     vdW  Elec       q    Type
REMARK                         _______ _______ _______ _____ _____    ______ ____
ROOT
ATOM      1  C   UNL     1      47.392   3.473  16.536  0.00  0.00    +0.000 C 
ATOM      2  C   UNL     1      47.882   4.780  15.895  0.00  0.00    +0.000 C 
ENDROOT
BRANCH   2   3
ATOM      3  C   UNL     1      47.192   5.113  14.580  0.00  0.00    +0.000 A 
ATOM      4  C   UNL     1      47.435   6.324  13.916  0.00  0.00    +0.000 A 
ATOM      5  C   UNL     1      46.842   6.598  12.673  0.00  0.00    +0.000 A 
ATOM      6  C   UNL     1      45.985   5.670  12.061  0.00  0.00    +0.000 A 
ATOM      7  C   UNL     1      45.710   4.479  12.748  0.00  0.00    +0.000 A 
ATOM      8  C   UNL     1      46.293   4.215  13.992  0.00  0.00    +0.000 A 
BRANCH   6   9
ATOM      9  C   UNL     1      45.345   5.920  10.716  0.00  0.00    +0.000 C 
BRANCH   9  10
ATOM     10  N   UNL     1      45.890   5.129   9.637  0.00  0.00    +0.000 N 
ATOM     11  C   UNL     1      45.244   4.009   9.147  0.00  0.00    +0.000 C 
ATOM     12  O   UNL     1      44.174   3.616   9.622  0.00  0.00    +0.000 OA
ATOM     13  H   UNL     1      46.769   5.369   9.189  0.00  0.00    +0.000 HD
BRANCH  11  14
ATOM     14  C   UNL     1      45.936   3.379   8.025  0.00  0.00    +0.000 A 
ATOM     15  N   UNL     1      46.333   4.042   6.949  0.00  0.00    +0.000 NA
ATOM     16  C   UNL     1      46.937   3.159   6.072  0.00  0.00    +0.000 A 
ATOM     17  C   UNL     1      46.930   1.837   6.457  0.00  0.00    +0.000 A 
ATOM     18  S   UNL     1      46.233   1.689   8.014  0.00  0.00    +0.000 S 
ENDBRANCH  11  14
ENDBRANCH   9  10
ENDBRANCH   6   9
ENDBRANCH   2   3
BRANCH   2  19
ATOM     19  N   UNL     1      47.695   5.879  16.821  0.00  0.00    +0.000 N 
ATOM     20  C   UNL     1      48.602   6.215  17.781  0.00  0.00    +0.000 C 
ATOM     21  O   UNL     1      49.690   5.641  17.909  0.00  0.00    +0.000 OA
ATOM     22  H   UNL     1      46.805   6.358  16.783  0.00  0.00    +0.000 HD
BRANCH  20  23
ATOM     23  C   UNL     1      48.249   7.365  18.613  0.00  0.00    +0.000 A 
ATOM     24  C   UNL     1      47.994   7.196  19.966  0.00  0.00    +0.000 A 
ATOM     25  S   UNL     1      47.578   8.644  20.763  0.00  0.00    +0.000 S 
ATOM     26  C   UNL     1      47.697   9.538  19.321  0.00  0.00    +0.000 A 
ATOM     27  N   UNL     1      47.419  10.870  19.299  0.00  0.00    +0.000 NA
ATOM     28  C   UNL     1      47.508  11.415  18.131  0.00  0.00    +0.000 A 
ATOM     29  N   UNL     1      47.859  10.752  16.983  0.00  0.00    +0.000 N 
ATOM     30  C   UNL     1      48.202   9.418  16.964  0.00  0.00    +0.000 A 
ATOM     31  O   UNL     1      48.610   8.884  15.944  0.00  0.00    +0.000 OA
ATOM     32  C   UNL     1      48.078   8.752  18.250  0.00  0.00    +0.000 A 
ATOM     33  H   UNL     1      47.945  11.245  16.107  0.00  0.00    +0.000 HD
ENDBRANCH  20  23
ENDBRANCH   2  19
TORSDOF 6
ENDMDL
MODEL 4
REMARK VINA RESULT:    -6.867      2.419      3.184
REMARK INTER + INTRA:         -10.383
REMARK INTER:                  -9.174
REMARK INTRA:                  -1.209
REMARK UNBOUND:                -1.107
REMARK  Name = 
REMARK  7 active torsions:
REMARK  status: ('A' for Active; 'I' for Inactive)
REMARK    1  A    between atoms: C_1  and  C_2
REMARK    2  A    between atoms: C_2  and  N_3
REMARK    3  A    between atoms: C_2  and  C_16
REMARK    4  A    between atoms: C_4  and  C_6
REMARK    5  A    between atoms: C_19  and  C_20
REMARK    6  A    between atoms: C_20  and  N_21
REMARK    7  A    between atoms: C_22  and  C_24
REMARK                            x       y       z     vdW  Elec       q    Type
REMARK                         _______ _______ _______ _____ _____    ______ ____
ROOT
ATOM      1  C   UNL     1      46.870   9.561  12.536  0.00  0.00    +0.000 C 
ATOM      2  C   UNL     1      46.759   8.376  13.506  0.00  0.00    +0.000 C 
ENDROOT
BRANCH   2   3
ATOM      3  C   UNL     1      46.116   7.141  12.892  0.00  0.00    +0.000 A 
ATOM      4  C   UNL     1      46.516   5.848  13.265  0.00  0.00    +0.000 A 
ATOM      5  C   UNL     1      45.876   4.715  12.740  0.00  0.00    +0.000 A 
ATOM      6  C   UNL     1      44.822   4.840  11.821  0.00  0.00    +0.000 A 
ATOM      7  C   UNL     1      44.455   6.131  11.417  0.00  0.00    +0.000 A 
ATOM      8  C   UNL     1      45.102   7.259  11.933  0.00  0.00    +0.000 A 
BRANCH   6   9
ATOM      9  C   UNL     1      44.097   3.645  11.251  0.00  0.00    +0.000 C 
BRANCH   9  10
ATOM     10  N   UNL     1      44.875   2.858  10.322  0.00  0.00    +0.000 N 
ATOM     11  C   UNL     1      44.955   3.174   8.979  0.00  0.00    +0.000 C 
ATOM     12  O   UNL     1      44.348   4.136   8.499  0.00  0.00    +0.000 OA
ATOM     13  H   UNL     1      45.402   2.043  10.622  0.00  0.00    +0.000 HD
BRANCH  11  14
ATOM     14  C   UNL     1      45.831   2.282   8.220  0.00  0.00    +0.000 A 
ATOM     15  N   UNL     1      45.905   0.977   8.436  0.00  0.00    +0.000 NA
ATOM     16  C   UNL     1      46.831   0.428   7.568  0.00  0.00    +0.000 A 
ATOM     17  C   UNL     1      47.495   1.323   6.759  0.00  0.00    +0.000 A 
ATOM     18  S   UNL     1      46.879   2.901   7.012  0.00  0.00    +0.000 S 
ENDBRANCH  11  14
ENDBRANCH   9  10
ENDBRANCH   6   9
ENDBRANCH   2   3
BRANCH   2  19
ATOM     19  N   UNL     1      48.074   8.028  14.006  0.00  0.00    +0.000 N 
ATOM     20  C   UNL     1      48.578   8.495  15.182  0.00  0.00    +0.000 C 
ATOM     21  O   UNL     1      47.931   9.215  15.952  0.00  0.00    +0.000 OA
ATOM     22  H   UNL     1      48.659   7.471  13.397  0.00  0.00    +0.000 HD
BRANCH  20  23
ATOM     23  C   UNL     1      49.918   8.022  15.531  0.00  0.00    +0.000 A 
ATOM     24  C   UNL     1      50.143   7.402  16.751  0.00  0.00    +0.000 A 
ATOM     25  S   UNL     1      51.768   6.943  16.988  0.00  0.00    +0.000 S 
ATOM     26  C   UNL     1      52.227   7.583  15.480  0.00  0.00    +0.000 A 
ATOM     27  N   UNL     1      53.525   7.552  15.073  0.00  0.00    +0.000 NA
ATOM     28  C   UNL     1      53.739   8.111  13.928  0.00  0.00    +0.000 A 
ATOM     29  N   UNL     1      52.772   8.689  13.147  0.00  0.00    +0.000 N 
ATOM     30  C   UNL     1      51.438   8.696  13.489  0.00  0.00    +0.000 A 
ATOM     31  O   UNL     1      50.590   9.127  12.722  0.00  0.00    +0.000 OA
ATOM     32  C   UNL     1      51.153   8.113  14.790  0.00  0.00    +0.000 A 
ATOM     33  H   UNL     1      53.000   9.077  12.244  0.00  0.00    +0.000 HD
ENDBRANCH  20  23
ENDBRANCH   2  19
TORSDOF 6
ENDMDL
MODEL 5
REMARK VINA RESULT:    -6.517      2.677      3.620
REMARK INTER + INTRA:          -9.910
REMARK INTER:                  -9.552
REMARK INTRA:                  -0.359
REMARK UNBOUND:                -1.107
REMARK  Name = 
REMARK  7 active torsions:
REMARK  status: ('A' for Active; 'I' for Inactive)
REMARK    1  A    between atoms: C_1  and  C_2
REMARK    2  A    between atoms: C_2  and  N_3
REMARK    3  A    between atoms: C_2  and  C_16
REMARK    4  A    between atoms: C_4  and  C_6
REMARK    5  A    between atoms: C_19  and  C_20
REMARK    6  A    between atoms: C_20  and  N_21
REMARK    7  A    between atoms: C_22  and  C_24
REMARK                            x       y       z     vdW  Elec       q    Type
REMARK                         _______ _______ _______ _____ _____    ______ ____
ROOT
ATOM      1  C   UNL     1      45.373   9.636  12.136  0.00  0.00    +0.000 C 
ATOM      2  C   UNL     1      45.705   8.546  13.165  0.00  0.00    +0.000 C 
ENDROOT
BRANCH   2   3
ATOM      3  C   UNL     1      45.292   7.148  12.731  0.00  0.00    +0.000 A 
ATOM      4  C   UNL     1      44.444   6.946  11.632  0.00  0.00    +0.000 A 
ATOM      5  C   UNL     1      44.117   5.651  11.200  0.00  0.00    +0.000 A 
ATOM      6  C   UNL     1      44.624   4.520  11.859  0.00  0.00    +0.000 A 
ATOM      7  C   UNL     1      45.435   4.725  12.983  0.00  0.00    +0.000 A 
ATOM      8  C   UNL     1      45.749   6.017  13.419  0.00  0.00    +0.000 A 
BRANCH   6   9
ATOM      9  C   UNL     1      44.311   3.112  11.411  0.00  0.00    +0.000 C 
BRANCH   9  10
ATOM     10  N   UNL     1      45.180   2.606  10.373  0.00  0.00    +0.000 N 
ATOM     11  C   UNL     1      44.981   2.904   9.038  0.00  0.00    +0.000 C 
ATOM     12  O   UNL     1      44.037   3.605   8.661  0.00  0.00    +0.000 OA
ATOM     13  H   UNL     1      45.977   2.014  10.585  0.00  0.00    +0.000 HD
BRANCH  11  14
ATOM     14  C   UNL     1      45.997   2.334   8.155  0.00  0.00    +0.000 A 
ATOM     15  N   UNL     1      46.348   1.057   8.179  0.00  0.00    +0.000 NA
ATOM     16  C   UNL     1      47.339   0.843   7.237  0.00  0.00    +0.000 A 
ATOM     17  C   UNL     1      47.773   1.964   6.564  0.00  0.00    +0.000 A 
ATOM     18  S   UNL     1      46.851   3.325   7.046  0.00  0.00    +0.000 S 
ENDBRANCH  11  14
ENDBRANCH   9  10
ENDBRANCH   6   9
ENDBRANCH   2   3
BRANCH   2  19
ATOM     19  N   UNL     1      47.128   8.556  13.446  0.00  0.00    +0.000 N 
ATOM     20  C   UNL     1      48.074   8.178  12.543  0.00  0.00    +0.000 C 
ATOM     21  O   UNL     1      47.802   7.844  11.384  0.00  0.00    +0.000 OA
ATOM     22  H   UNL     1      47.402   8.786  14.393  0.00  0.00    +0.000 HD
BRANCH  20  23
ATOM     23  C   UNL     1      49.461   8.270  13.001  0.00  0.00    +0.000 A 
ATOM     24  C   UNL     1      50.410   8.918  12.225  0.00  0.00    +0.000 A 
ATOM     25  S   UNL     1      51.972   8.902  12.910  0.00  0.00    +0.000 S 
ATOM     26  C   UNL     1      51.434   8.004  14.252  0.00  0.00    +0.000 A 
ATOM     27  N   UNL     1      52.302   7.611  15.224  0.00  0.00    +0.000 NA
ATOM     28  C   UNL     1      51.767   6.901  16.161  0.00  0.00    +0.000 A 
ATOM     29  N   UNL     1      50.442   6.555  16.222  0.00  0.00    +0.000 N 
ATOM     30  C   UNL     1      49.515   6.975  15.294  0.00  0.00    +0.000 A 
ATOM     31  O   UNL     1      48.326   6.736  15.434  0.00  0.00    +0.000 OA
ATOM     32  C   UNL     1      50.077   7.745  14.196  0.00  0.00    +0.000 A 
ATOM     33  H   UNL     1      50.081   6.027  17.002  0.00  0.00    +0.000 HD
ENDBRANCH  20  23
ENDBRANCH   2  19
TORSDOF 6
ENDMDL
MODEL 6
REMARK VINA RESULT:    -6.412      6.015      8.453
REMARK INTER + INTRA:          -9.769
REMARK INTER:                  -8.602
REMARK INTRA:                  -1.167
REMARK UNBOUND:                -1.107
REMARK  Name = 
REMARK  7 active torsions:
REMARK  status: ('A' for Active; 'I' for Inactive)
REMARK    1  A    between atoms: C_1  and  C_2
REMARK    2  A    between atoms: C_2  and  N_3
REMARK    3  A    between atoms: C_2  and  C_16
REMARK    4  A    between atoms: C_4  and  C_6
REMARK    5  A    between atoms: C_19  and  C_20
REMARK    6  A    between atoms: C_20  and  N_21
REMARK    7  A    between atoms: C_22  and  C_24
REMARK                            x       y       z     vdW  Elec       q    Type
REMARK                         _______ _______ _______ _____ _____    ______ ____
ROOT
ATOM      1  C   UNL     1      54.040   3.688  17.447  0.00  0.00    +0.000 C 
ATOM      2  C   UNL     1      53.053   2.786  18.202  0.00  0.00    +0.000 C 
ENDROOT
BRANCH   2   3
ATOM      3  C   UNL     1      51.599   3.013  17.814  0.00  0.00    +0.000 A 
ATOM      4  C   UNL     1      50.812   1.974  17.294  0.00  0.00    +0.000 A 
ATOM      5  C   UNL     1      49.455   2.174  16.997  0.00  0.00    +0.000 A 
ATOM      6  C   UNL     1      48.846   3.422  17.205  0.00  0.00    +0.000 A 
ATOM      7  C   UNL     1      49.645   4.470  17.683  0.00  0.00    +0.000 A 
ATOM      8  C   UNL     1      51.001   4.270  17.967  0.00  0.00    +0.000 A 
BRANCH   6   9
ATOM      9  C   UNL     1      47.385   3.670  16.916  0.00  0.00    +0.000 C 
BRANCH   9  10
ATOM     10  N   UNL     1      47.135   4.652  15.886  0.00  0.00    +0.000 N 
ATOM     11  C   UNL     1      47.079   4.314  14.547  0.00  0.00    +0.000 C 
ATOM     12  O   UNL     1      47.259   3.156  14.160  0.00  0.00    +0.000 OA
ATOM     13  H   UNL     1      46.984   5.632  16.107  0.00  0.00    +0.000 HD
BRANCH  11  14
ATOM     14  C   UNL     1      46.769   5.443  13.672  0.00  0.00    +0.000 A 
ATOM     15  N   UNL     1      45.537   5.761  13.304  0.00  0.00    +0.000 NA
ATOM     16  C   UNL     1      45.586   6.862  12.467  0.00  0.00    +0.000 A 
ATOM     17  C   UNL     1      46.848   7.320  12.157  0.00  0.00    +0.000 A 
ATOM     18  S   UNL     1      48.021   6.412  13.012  0.00  0.00    +0.000 S 
ENDBRANCH  11  14
ENDBRANCH   9  10
ENDBRANCH   6   9
ENDBRANCH   2   3
BRANCH   2  19
ATOM     19  N   UNL     1      53.393   1.394  17.979  0.00  0.00    +0.000 N 
ATOM     20  C   UNL     1      54.201   0.677  18.807  0.00  0.00    +0.000 C 
ATOM     21  O   UNL     1      54.672   1.139  19.854  0.00  0.00    +0.000 OA
ATOM     22  H   UNL     1      53.063   0.979  17.118  0.00  0.00    +0.000 HD
BRANCH  20  23
ATOM     23  C   UNL     1      54.418  -0.719  18.430  0.00  0.00    +0.000 A 
ATOM     24  C   UNL     1      54.215  -1.732  19.355  0.00  0.00    +0.000 A 
ATOM     25  S   UNL     1      54.541  -3.289  18.739  0.00  0.00    +0.000 S 
ATOM     26  C   UNL     1      54.991  -2.656  17.225  0.00  0.00    +0.000 A 
ATOM     27  N   UNL     1      55.426  -3.472  16.228  0.00  0.00    +0.000 NA
ATOM     28  C   UNL     1      55.775  -2.856  15.147  0.00  0.00    +0.000 A 
ATOM     29  N   UNL     1      55.719  -1.498  14.969  0.00  0.00    +0.000 N 
ATOM     30  C   UNL     1      55.234  -0.636  15.927  0.00  0.00    +0.000 A 
ATOM     31  O   UNL     1      55.101   0.557  15.697  0.00  0.00    +0.000 OA
ATOM     32  C   UNL     1      54.866  -1.280  17.178  0.00  0.00    +0.000 A 
ATOM     33  H   UNL     1      55.973  -1.082  14.086  0.00  0.00    +0.000 HD
ENDBRANCH  20  23
ENDBRANCH   2  19
TORSDOF 6
ENDMDL
MODEL 7
REMARK VINA RESULT:    -6.411      5.136      6.766
REMARK INTER + INTRA:          -9.768
REMARK INTER:                  -8.787
REMARK INTRA:                  -0.980
REMARK UNBOUND:                -1.107
REMARK  Name = 
REMARK  7 active torsions:
REMARK  status: ('A' for Active; 'I' for Inactive)
REMARK    1  A    between atoms: C_1  and  C_2
REMARK    2  A    between atoms: C_2  and  N_3
REMARK    3  A    between atoms: C_2  and  C_16
REMARK    4  A    between atoms: C_4  and  C_6
REMARK    5  A    between atoms: C_19  and  C_20
REMARK    6  A    between atoms: C_20  and  N_21
REMARK    7  A    between atoms: C_22  and  C_24
REMARK                            x       y       z     vdW  Elec       q    Type
REMARK                         _______ _______ _______ _____ _____    ______ ____
ROOT
ATOM      1  C   UNL     1      44.718   3.683  12.823  0.00  0.00    +0.000 C 
ATOM      2  C   UNL     1      45.771   4.800  12.775  0.00  0.00    +0.000 C 
ENDROOT
BRANCH   2   3
ATOM      3  C   UNL     1      45.235   6.124  12.252  0.00  0.00    +0.000 A 
ATOM      4  C   UNL     1      44.002   6.200  11.586  0.00  0.00    +0.000 A 
ATOM      5  C   UNL     1      43.486   7.434  11.161  0.00  0.00    +0.000 A 
ATOM      6  C   UNL     1      44.191   8.628  11.383  0.00  0.00    +0.000 A 
ATOM      7  C   UNL     1      45.442   8.543  12.010  0.00  0.00    +0.000 A 
ATOM      8  C   UNL     1      45.959   7.310  12.422  0.00  0.00    +0.000 A 
BRANCH   6   9
ATOM      9  C   UNL     1      43.659   9.976  10.959  0.00  0.00    +0.000 C 
BRANCH   9  10
ATOM     10  N   UNL     1      42.220  10.044  10.845  0.00  0.00    +0.000 N 
ATOM     11  C   UNL     1      41.453  10.837  11.677  0.00  0.00    +0.000 C 
ATOM     12  O   UNL     1      41.958  11.516  12.576  0.00  0.00    +0.000 OA
ATOM     13  H   UNL     1      41.714   9.514  10.141  0.00  0.00    +0.000 HD
BRANCH  11  14
ATOM     14  C   UNL     1      40.025  10.801  11.366  0.00  0.00    +0.000 A 
ATOM     15  N   UNL     1      39.547  10.458  10.179  0.00  0.00    +0.000 NA
ATOM     16  C   UNL     1      38.166  10.541  10.207  0.00  0.00    +0.000 A 
ATOM     17  C   UNL     1      37.621  11.009  11.383  0.00  0.00    +0.000 A 
ATOM     18  S   UNL     1      38.860  11.266  12.536  0.00  0.00    +0.000 S 
ENDBRANCH  11  14
ENDBRANCH   9  10
ENDBRANCH   6   9
ENDBRANCH   2   3
BRANCH   2  19
ATOM     19  N   UNL     1      46.330   5.002  14.098  0.00  0.00    +0.000 N 
ATOM     20  C   UNL     1      47.130   4.094  14.722  0.00  0.00    +0.000 C 
ATOM     21  O   UNL     1      47.493   3.038  14.189  0.00  0.00    +0.000 OA
ATOM     22  H   UNL     1      46.034   5.833  14.593  0.00  0.00    +0.000 HD
BRANCH  20  23
ATOM     23  C   UNL     1      47.613   4.479  16.048  0.00  0.00    +0.000 A 
ATOM     24  C   UNL     1      47.225   3.760  17.169  0.00  0.00    +0.000 A 
ATOM     25  S   UNL     1      47.870   4.373  18.624  0.00  0.00    +0.000 S 
ATOM     26  C   UNL     1      48.666   5.634  17.805  0.00  0.00    +0.000 A 
ATOM     27  N   UNL     1      49.385   6.566  18.488  0.00  0.00    +0.000 NA
ATOM     28  C   UNL     1      49.900   7.490  17.747  0.00  0.00    +0.000 A 
ATOM     29  N   UNL     1      49.771   7.563  16.384  0.00  0.00    +0.000 N 
ATOM     30  C   UNL     1      49.101   6.614  15.643  0.00  0.00    +0.000 A 
ATOM     31  O   UNL     1      49.094   6.654  14.422  0.00  0.00    +0.000 OA
ATOM     32  C   UNL     1      48.469   5.574  16.438  0.00  0.00    +0.000 A 
ATOM     33  H   UNL     1      50.230   8.293  15.859  0.00  0.00    +0.000 HD
ENDBRANCH  20  23
ENDBRANCH   2  19
TORSDOF 6
ENDMDL
MODEL 8
REMARK VINA RESULT:    -6.264      5.431      6.922
REMARK INTER + INTRA:          -9.569
REMARK INTER:                  -8.798
REMARK INTRA:                  -0.771
REMARK UNBOUND:                -1.107
REMARK  Name = 
REMARK  7 active torsions:
REMARK  status: ('A' for Active; 'I' for Inactive)
REMARK    1  A    between atoms: C_1  and  C_2
REMARK    2  A    between atoms: C_2  and  N_3
REMARK    3  A    between atoms: C_2  and  C_16
REMARK    4  A    between atoms: C_4  and  C_6
REMARK    5  A    between atoms: C_19  and  C_20
REMARK    6  A    between atoms: C_20  and  N_21
REMARK    7  A    between atoms: C_22  and  C_24
REMARK                            x       y       z     vdW  Elec       q    Type
REMARK                         _______ _______ _______ _____ _____    ______ ____
ROOT
ATOM      1  C   UNL     1      44.777   4.827  13.105  0.00  0.00    +0.000 C 
ATOM      2  C   UNL     1      45.855   5.883  12.822  0.00  0.00    +0.000 C 
ENDROOT
BRANCH   2   3
ATOM      3  C   UNL     1      45.299   7.204  12.312  0.00  0.00    +0.000 A 
ATOM      4  C   UNL     1      44.216   7.244  11.420  0.00  0.00    +0.000 A 
ATOM      5  C   UNL     1      43.669   8.468  11.003  0.00  0.00    +0.000 A 
ATOM      6  C   UNL     1      44.194   9.687  11.459  0.00  0.00    +0.000 A 
ATOM      7  C   UNL     1      45.303   9.644  12.315  0.00  0.00    +0.000 A 
ATOM      8  C   UNL     1      45.853   8.423  12.720  0.00  0.00    +0.000 A 
BRANCH   6   9
ATOM      9  C   UNL     1      43.619  11.022  11.048  0.00  0.00    +0.000 C 
BRANCH   9  10
ATOM     10  N   UNL     1      42.207  11.000  10.746  0.00  0.00    +0.000 N 
ATOM     11  C   UNL     1      41.246  11.265  11.704  0.00  0.00    +0.000 C 
ATOM     12  O   UNL     1      41.546  11.516  12.875  0.00  0.00    +0.000 OA
ATOM     13  H   UNL     1      41.863  10.794   9.813  0.00  0.00    +0.000 HD
BRANCH  11  14
ATOM     14  C   UNL     1      39.880  11.238  11.184  0.00  0.00    +0.000 A 
ATOM     15  N   UNL     1      39.593  11.223   9.891  0.00  0.00    +0.000 NA
ATOM     16  C   UNL     1      38.219  11.216   9.733  0.00  0.00    +0.000 A 
ATOM     17  C   UNL     1      37.485  11.297  10.896  0.00  0.00    +0.000 A 
ATOM     18  S   UNL     1      38.535  11.283  12.248  0.00  0.00    +0.000 S 
ENDBRANCH  11  14
ENDBRANCH   9  10
ENDBRANCH   6   9
ENDBRANCH   2   3
BRANCH   2  19
ATOM     19  N   UNL     1      46.630   6.125  14.023  0.00  0.00    +0.000 N 
ATOM     20  C   UNL     1      47.492   5.216  14.557  0.00  0.00    +0.000 C 
ATOM     21  O   UNL     1      47.727   4.122  14.030  0.00  0.00    +0.000 OA
ATOM     22  H   UNL     1      46.447   6.991  14.514  0.00  0.00    +0.000 HD
BRANCH  20  23
ATOM     23  C   UNL     1      48.199   5.644  15.764  0.00  0.00    +0.000 A 
ATOM     24  C   UNL     1      49.041   6.746  15.726  0.00  0.00    +0.000 A 
ATOM     25  S   UNL     1      49.793   7.076  17.221  0.00  0.00    +0.000 S 
ATOM     26  C   UNL     1      49.038   5.741  17.958  0.00  0.00    +0.000 A 
ATOM     27  N   UNL     1      49.290   5.426  19.258  0.00  0.00    +0.000 NA
ATOM     28  C   UNL     1      48.684   4.365  19.676  0.00  0.00    +0.000 A 
ATOM     29  N   UNL     1      47.840   3.595  18.918  0.00  0.00    +0.000 N 
ATOM     30  C   UNL     1      47.511   3.904  17.617  0.00  0.00    +0.000 A 
ATOM     31  O   UNL     1      46.676   3.256  17.004  0.00  0.00    +0.000 OA
ATOM     32  C   UNL     1      48.201   5.069  17.088  0.00  0.00    +0.000 A 
ATOM     33  H   UNL     1      47.369   2.797  19.317  0.00  0.00    +0.000 HD
ENDBRANCH  20  23
ENDBRANCH   2  19
TORSDOF 6
ENDMDL
MODEL 9
REMARK VINA RESULT:    -6.006      4.482      6.060
REMARK INTER + INTRA:          -9.220
REMARK INTER:                  -8.221
REMARK INTRA:                  -0.999
REMARK UNBOUND:                -1.107
REMARK  Name = 
REMARK  7 active torsions:
REMARK  status: ('A' for Active; 'I' for Inactive)
REMARK    1  A    between atoms: C_1  and  C_2
REMARK    2  A    between atoms: C_2  and  N_3
REMARK    3  A    between atoms: C_2  and  C_16
REMARK    4  A    between atoms: C_4  and  C_6
REMARK    5  A    between atoms: C_19  and  C_20
REMARK    6  A    between atoms: C_20  and  N_21
REMARK    7  A    between atoms: C_22  and  C_24
REMARK                            x       y       z     vdW  Elec       q    Type
REMARK                         _______ _______ _______ _____ _____    ______ ____
ROOT
ATOM      1  C   UNL     1      46.524   4.209  13.795  0.00  0.00    +0.000 C 
ATOM      2  C   UNL     1      47.346   5.499  13.932  0.00  0.00    +0.000 C 
ENDROOT
BRANCH   2   3
ATOM      3  C   UNL     1      46.731   6.695  13.222  0.00  0.00    +0.000 A 
ATOM      4  C   UNL     1      45.378   6.706  12.848  0.00  0.00    +0.000 A 
ATOM      5  C   UNL     1      44.804   7.837  12.248  0.00  0.00    +0.000 A 
ATOM      6  C   UNL     1      45.566   8.989  11.998  0.00  0.00    +0.000 A 
ATOM      7  C   UNL     1      46.927   8.959  12.332  0.00  0.00    +0.000 A 
ATOM      8  C   UNL     1      47.500   7.825  12.919  0.00  0.00    +0.000 A 
BRANCH   6   9
ATOM      9  C   UNL     1      44.978  10.231  11.373  0.00  0.00    +0.000 C 
BRANCH   9  10
ATOM     10  N   UNL     1      43.571  10.426  11.635  0.00  0.00    +0.000 N 
ATOM     11  C   UNL     1      42.664  10.682  10.624  0.00  0.00    +0.000 C 
ATOM     12  O   UNL     1      43.014  10.777   9.444  0.00  0.00    +0.000 OA
ATOM     13  H   UNL     1      43.190  10.376  12.575  0.00  0.00    +0.000 HD
BRANCH  11  14
ATOM     14  C   UNL     1      41.284  10.800  11.093  0.00  0.00    +0.000 A 
ATOM     15  N   UNL     1      40.237  10.416  10.378  0.00  0.00    +0.000 NA
ATOM     16  C   UNL     1      39.082  10.676  11.093  0.00  0.00    +0.000 A 
ATOM     17  C   UNL     1      39.260  11.312  12.302  0.00  0.00    +0.000 A 
ATOM     18  S   UNL     1      40.932  11.511  12.613  0.00  0.00    +0.000 S 
ENDBRANCH  11  14
ENDBRANCH   9  10
ENDBRANCH   6   9
ENDBRANCH   2   3
BRANCH   2  19
ATOM     19  N   UNL     1      47.523   5.819  15.335  0.00  0.00    +0.000 N 
ATOM     20  C   UNL     1      48.704   6.242  15.866  0.00  0.00    +0.000 C 
ATOM     21  O   UNL     1      49.716   6.441  15.182  0.00  0.00    +0.000 OA
ATOM     22  H   UNL     1      46.737   5.638  15.945  0.00  0.00    +0.000 HD
BRANCH  20  23
ATOM     23  C   UNL     1      48.688   6.533  17.299  0.00  0.00    +0.000 A 
ATOM     24  C   UNL     1      48.749   7.844  17.746  0.00  0.00    +0.000 A 
ATOM     25  S   UNL     1      48.743   7.982  19.446  0.00  0.00    +0.000 S 
ATOM     26  C   UNL     1      48.688   6.293  19.638  0.00  0.00    +0.000 A 
ATOM     27  N   UNL     1      48.702   5.730  20.877  0.00  0.00    +0.000 NA
ATOM     28  C   UNL     1      48.699   4.438  20.876  0.00  0.00    +0.000 A 
ATOM     29  N   UNL     1      48.674   3.657  19.750  0.00  0.00    +0.000 N 
ATOM     30  C   UNL     1      48.603   4.179  18.477  0.00  0.00    +0.000 A 
ATOM     31  O   UNL     1      48.477   3.454  17.502  0.00  0.00    +0.000 OA
ATOM     32  C   UNL     1      48.644   5.631  18.426  0.00  0.00    +0.000 A 
ATOM     33  H   UNL     1      48.637   2.651  19.819  0.00  0.00    +0.000 HD
ENDBRANCH  20  23
ENDBRANCH   2  19
TORSDOF 6
ENDMDL
