MODEL 1
REMARK VINA RESULT:    -7.002      0.000      0.000
REMARK INTER + INTRA:         -10.933
REMARK INTER:                  -9.458
REMARK INTRA:                  -1.475
REMARK UNBOUND:                -1.475
REMARK  Name = 
REMARK  7 active torsions:
REMARK  status: ('A' for Active; 'I' for Inactive)
REMARK    1  A    between atoms: C_1  and  C_2
REMARK    2  A    between atoms: C_2  and  N_3
REMARK    3  A    between atoms: C_2  and  C_16
REMARK    4  A    between atoms: C_4  and  C_6
REMARK    5  A    between atoms: C_19  and  C_20
REMARK    6  A    between atoms: C_20  and  N_21
REMARK    7  A    between atoms: C_22  and  C_24
REMARK                            x       y       z     vdW  Elec       q    Type
REMARK                         _______ _______ _______ _____ _____    ______ ____
ROOT
ATOM      1  C   UNL     1      47.549   3.049  17.757  0.00  0.00    +0.000 C 
ATOM      2  C   UNL     1      48.449   4.253  17.433  0.00  0.00    +0.000 C 
ENDROOT
BRANCH   2   3
ATOM      3  C   UNL     1      48.017   4.871  16.108  0.00  0.00    +0.000 A 
ATOM      4  C   UNL     1      47.079   4.224  15.289  0.00  0.00    +0.000 A 
ATOM      5  C   UNL     1      46.754   4.743  14.029  0.00  0.00    +0.000 A 
ATOM      6  C   UNL     1      47.365   5.914  13.558  0.00  0.00    +0.000 A 
ATOM      7  C   UNL     1      48.253   6.592  14.400  0.00  0.00    +0.000 A 
ATOM      8  C   UNL     1      48.574   6.078  15.659  0.00  0.00    +0.000 A 
BRANCH   6   9
ATOM      9  C   UNL     1      47.090   6.430  12.172  0.00  0.00    +0.000 C 
BRANCH   9  10
ATOM     10  N   UNL     1      45.994   5.739  11.536  0.00  0.00    +0.000 N 
ATOM     11  C   UNL     1      44.770   6.348  11.391  0.00  0.00    +0.000 C 
ATOM     12  O   UNL     1      44.548   7.480  11.817  0.00  0.00    +0.000 OA
ATOM     13  H   UNL     1      46.119   4.766  11.277  0.00  0.00    +0.000 HD
BRANCH  11  14
ATOM     14  C   UNL     1      43.654   5.525  10.757  0.00  0.00    +0.000 C 
ATOM     15  C   UNL     1      42.703   4.972  11.794  0.00  0.00    +0.000 C 
ATOM     16  C   UNL     1      43.354   3.663  12.187  0.00  0.00    +0.000 C 
ATOM     17  O   UNL     1      44.178   3.247  11.085  0.00  0.00    +0.000 OA
ATOM     18  C   UNL     1      44.131   4.266  10.069  0.00  0.00    +0.000 C 
ENDBRANCH  11  14
ENDBRANCH   9  10
ENDBRANCH   6   9
ENDBRANCH   2   3
BRANCH   2  19
ATOM     19  N   UNL     1      49.861   3.901  17.385  0.00  0.00    +0.000 N 
ATOM     20  C   UNL     1      50.715   4.158  18.430  0.00  0.00    +0.000 C 
ATOM     21  O   UNL     1      50.336   4.642  19.492  0.00  0.00    +0.000 OA
ATOM     22  H   UNL     1      50.265   3.801  16.458  0.00  0.00    +0.000 HD
BRANCH  20  23
ATOM     23  C   UNL     1      52.117   3.769  18.246  0.00  0.00    +0.000 A 
ATOM     24  C   UNL     1      53.119   4.711  18.439  0.00  0.00    +0.000 A 
ATOM     25  S   UNL     1      54.689   4.105  18.165  0.00  0.00    +0.000 S 
ATOM     26  C   UNL     1      54.081   2.574  17.736  0.00  0.00    +0.000 A 
ATOM     27  N   UNL     1      54.914   1.578  17.336  0.00  0.00    +0.000 NA
ATOM     28  C   UNL     1      54.314   0.484  17.005  0.00  0.00    +0.000 A 
ATOM     29  N   UNL     1      52.958   0.289  17.058  0.00  0.00    +0.000 N 
ATOM     30  C   UNL     1      52.081   1.252  17.501  0.00  0.00    +0.000 A 
ATOM     31  O   UNL     1      50.881   1.028  17.613  0.00  0.00    +0.000 OA
ATOM     32  C   UNL     1      52.703   2.516  17.844  0.00  0.00    +0.000 A 
ATOM     33  H   UNL     1      52.554  -0.602  16.808  0.00  0.00    +0.000 HD
ENDBRANCH  20  23
ENDBRANCH   2  19
TORSDOF 6
ENDMDL
MODEL 2
REMARK VINA RESULT:    -6.942      3.692      5.377
REMARK INTER + INTRA:         -10.852
REMARK INTER:                  -9.863
REMARK INTRA:                  -0.989
REMARK UNBOUND:                -1.475
REMARK  Name = 
REMARK  7 active torsions:
REMARK  status: ('A' for Active; 'I' for Inactive)
REMARK    1  A    between atoms: C_1  and  C_2
REMARK    2  A    between atoms: C_2  and  N_3
REMARK    3  A    between atoms: C_2  and  C_16
REMARK    4  A    between atoms: C_4  and  C_6
REMARK    5  A    between atoms: C_19  and  C_20
REMARK    6  A    between atoms: C_20  and  N_21
REMARK    7  A    between atoms: C_22  and  C_24
REMARK                            x       y       z     vdW  Elec       q    Type
REMARK                         _______ _______ _______ _____ _____    ______ ____
ROOT
ATOM      1  C   UNL     1      46.764   8.915  12.965  0.00  0.00    +0.000 C 
ATOM      2  C   UNL     1      47.331   7.494  13.119  0.00  0.00    +0.000 C 
ENDROOT
BRANCH   2   3
ATOM      3  C   UNL     1      46.398   6.496  12.441  0.00  0.00    +0.000 A 
ATOM      4  C   UNL     1      46.338   5.164  12.877  0.00  0.00    +0.000 A 
ATOM      5  C   UNL     1      45.554   4.225  12.194  0.00  0.00    +0.000 A 
ATOM      6  C   UNL     1      44.822   4.595  11.057  0.00  0.00    +0.000 A 
ATOM      7  C   UNL     1      44.833   5.937  10.660  0.00  0.00    +0.000 A 
ATOM      8  C   UNL     1      45.610   6.875  11.343  0.00  0.00    +0.000 A 
BRANCH   6   9
ATOM      9  C   UNL     1      44.048   3.576  10.265  0.00  0.00    +0.000 C 
BRANCH   9  10
ATOM     10  N   UNL     1      44.473   3.514   8.887  0.00  0.00    +0.000 N 
ATOM     11  C   UNL     1      45.256   2.478   8.440  0.00  0.00    +0.000 C 
ATOM     12  O   UNL     1      45.651   1.586   9.188  0.00  0.00    +0.000 OA
ATOM     13  H   UNL     1      44.254   4.295   8.276  0.00  0.00    +0.000 HD
BRANCH  11  14
ATOM     14  C   UNL     1      45.703   2.521   6.983  0.00  0.00    +0.000 C 
ATOM     15  C   UNL     1      46.627   1.375   6.642  0.00  0.00    +0.000 C 
ATOM     16  C   UNL     1      47.992   1.920   7.008  0.00  0.00    +0.000 C 
ATOM     17  O   UNL     1      47.911   3.353   6.942  0.00  0.00    +0.000 OA
ATOM     18  C   UNL     1      46.554   3.722   6.635  0.00  0.00    +0.000 C 
ENDBRANCH  11  14
ENDBRANCH   9  10
ENDBRANCH   6   9
ENDBRANCH   2   3
BRANCH   2  19
ATOM     19  N   UNL     1      47.537   7.120  14.511  0.00  0.00    +0.000 N 
ATOM     20  C   UNL     1      48.783   6.827  15.013  0.00  0.00    +0.000 C 
ATOM     21  O   UNL     1      49.806   6.921  14.342  0.00  0.00    +0.000 OA
ATOM     22  H   UNL     1      46.731   6.736  14.995  0.00  0.00    +0.000 HD
BRANCH  20  23
ATOM     23  C   UNL     1      48.851   6.448  16.428  0.00  0.00    +0.000 A 
ATOM     24  C   UNL     1      49.304   7.370  17.362  0.00  0.00    +0.000 A 
ATOM     25  S   UNL     1      49.343   6.766  18.956  0.00  0.00    +0.000 S 
ATOM     26  C   UNL     1      48.795   5.237  18.447  0.00  0.00    +0.000 A 
ATOM     27  N   UNL     1      48.654   4.215  19.331  0.00  0.00    +0.000 NA
ATOM     28  C   UNL     1      48.268   3.103  18.801  0.00  0.00    +0.000 A 
ATOM     29  N   UNL     1      47.990   2.926  17.470  0.00  0.00    +0.000 N 
ATOM     30  C   UNL     1      48.074   3.943  16.547  0.00  0.00    +0.000 A 
ATOM     31  O   UNL     1      47.746   3.780  15.377  0.00  0.00    +0.000 OA
ATOM     32  C   UNL     1      48.546   5.204  17.086  0.00  0.00    +0.000 A 
ATOM     33  H   UNL     1      47.667   2.035  17.124  0.00  0.00    +0.000 HD
ENDBRANCH  20  23
ENDBRANCH   2  19
TORSDOF 6
ENDMDL
MODEL 3
REMARK VINA RESULT:    -6.873      3.716      8.783
REMARK INTER + INTRA:         -10.759
REMARK INTER:                  -9.375
REMARK INTRA:                  -1.383
REMARK UNBOUND:                -1.475
REMARK  Name = 
REMARK  7 active torsions:
REMARK  status: ('A' for Active; 'I' for Inactive)
REMARK    1  A    between atoms: C_1  and  C_2
REMARK    2  A    between atoms: C_2  and  N_3
REMARK    3  A    between atoms: C_2  and  C_16
REMARK    4  A    between atoms: C_4  and  C_6
REMARK    5  A    between atoms: C_19  and  C_20
REMARK    6  A    between atoms: C_20  and  N_21
REMARK    7  A    between atoms: C_22  and  C_24
REMARK                            x       y       z     vdW  Elec       q    Type
REMARK                         _______ _______ _______ _____ _____    ______ ____
ROOT
ATOM      1  C   UNL     1      49.390   8.600  11.390  0.00  0.00    +0.000 C 
ATOM      2  C   UNL     1      48.121   8.183  12.150  0.00  0.00    +0.000 C 
ENDROOT
BRANCH   2   3
ATOM      3  C   UNL     1      48.467   7.908  13.609  0.00  0.00    +0.000 A 
ATOM      4  C   UNL     1      49.117   8.879  14.386  0.00  0.00    +0.000 A 
ATOM      5  C   UNL     1      49.521   8.592  15.697  0.00  0.00    +0.000 A 
ATOM      6  C   UNL     1      49.292   7.326  16.255  0.00  0.00    +0.000 A 
ATOM      7  C   UNL     1      48.589   6.378  15.503  0.00  0.00    +0.000 A 
ATOM      8  C   UNL     1      48.181   6.666  14.198  0.00  0.00    +0.000 A 
BRANCH   6   9
ATOM      9  C   UNL     1      49.800   6.979  17.628  0.00  0.00    +0.000 C 
BRANCH   9  10
ATOM     10  N   UNL     1      49.426   5.645  18.030  0.00  0.00    +0.000 N 
ATOM     11  C   UNL     1      50.225   4.570  17.725  0.00  0.00    +0.000 C 
ATOM     12  O   UNL     1      51.264   4.689  17.078  0.00  0.00    +0.000 OA
ATOM     13  H   UNL     1      48.520   5.505  18.467  0.00  0.00    +0.000 HD
BRANCH  11  14
ATOM     14  C   UNL     1      49.726   3.190  18.142  0.00  0.00    +0.000 C 
ATOM     15  C   UNL     1      49.655   2.239  16.970  0.00  0.00    +0.000 C 
ATOM     16  C   UNL     1      48.272   2.496  16.408  0.00  0.00    +0.000 C 
ATOM     17  O   UNL     1      47.468   3.022  17.477  0.00  0.00    +0.000 OA
ATOM     18  C   UNL     1      48.299   3.176  18.642  0.00  0.00    +0.000 C 
ENDBRANCH  11  14
ENDBRANCH   9  10
ENDBRANCH   6   9
ENDBRANCH   2   3
BRANCH   2  19
ATOM     19  N   UNL     1      47.470   7.021  11.562  0.00  0.00    +0.000 N 
ATOM     20  C   UNL     1      46.114   6.973  11.348  0.00  0.00    +0.000 C 
ATOM     21  O   UNL     1      45.372   7.923  11.577  0.00  0.00    +0.000 OA
ATOM     22  H   UNL     1      47.966   6.139  11.650  0.00  0.00    +0.000 HD
BRANCH  20  23
ATOM     23  C   UNL     1      45.583   5.736  10.764  0.00  0.00    +0.000 A 
ATOM     24  C   UNL     1      45.755   5.491   9.408  0.00  0.00    +0.000 A 
ATOM     25  S   UNL     1      45.061   4.024   8.885  0.00  0.00    +0.000 S 
ATOM     26  C   UNL     1      44.469   3.686  10.445  0.00  0.00    +0.000 A 
ATOM     27  N   UNL     1      43.724   2.575  10.684  0.00  0.00    +0.000 NA
ATOM     28  C   UNL     1      43.310   2.465  11.902  0.00  0.00    +0.000 A 
ATOM     29  N   UNL     1      43.592   3.354  12.908  0.00  0.00    +0.000 N 
ATOM     30  C   UNL     1      44.380   4.467  12.723  0.00  0.00    +0.000 A 
ATOM     31  O   UNL     1      44.681   5.205  13.653  0.00  0.00    +0.000 OA
ATOM     32  C   UNL     1      44.835   4.659  11.359  0.00  0.00    +0.000 A 
ATOM     33  H   UNL     1      43.257   3.195  13.846  0.00  0.00    +0.000 HD
ENDBRANCH  20  23
ENDBRANCH   2  19
TORSDOF 6
ENDMDL
MODEL 4
REMARK VINA RESULT:    -6.687      3.072      9.703
REMARK INTER + INTRA:         -10.507
REMARK INTER:                  -9.218
REMARK INTRA:                  -1.289
REMARK UNBOUND:                -1.475
REMARK  Name = 
REMARK  7 active torsions:
REMARK  status: ('A' for Active; 'I' for Inactive)
REMARK    1  A    between atoms: C_1  and  C_2
REMARK    2  A    between atoms: C_2  and  N_3
REMARK    3  A    between atoms: C_2  and  C_16
REMARK    4  A    between atoms: C_4  and  C_6
REMARK    5  A    between atoms: C_19  and  C_20
REMARK    6  A    between atoms: C_20  and  N_21
REMARK    7  A    between atoms: C_22  and  C_24
REMARK                            x       y       z     vdW  Elec       q    Type
REMARK                         _______ _______ _______ _____ _____    ______ ____
ROOT
ATOM      1  C   UNL     1      46.782   2.938  17.676  0.00  0.00    +0.000 C 
ATOM      2  C   UNL     1      47.613   3.354  16.451  0.00  0.00    +0.000 C 
ENDROOT
BRANCH   2   3
ATOM      3  C   UNL     1      48.936   3.954  16.912  0.00  0.00    +0.000 A 
ATOM      4  C   UNL     1      49.166   5.334  16.819  0.00  0.00    +0.000 A 
ATOM      5  C   UNL     1      50.416   5.874  17.152  0.00  0.00    +0.000 A 
ATOM      6  C   UNL     1      51.464   5.044  17.575  0.00  0.00    +0.000 A 
ATOM      7  C   UNL     1      51.216   3.675  17.727  0.00  0.00    +0.000 A 
ATOM      8  C   UNL     1      49.968   3.138  17.401  0.00  0.00    +0.000 A 
BRANCH   6   9
ATOM      9  C   UNL     1      52.834   5.601  17.850  0.00  0.00    +0.000 C 
BRANCH   9  10
ATOM     10  N   UNL     1      53.723   4.617  18.418  0.00  0.00    +0.000 N 
ATOM     11  C   UNL     1      54.809   4.160  17.711  0.00  0.00    +0.000 C 
ATOM     12  O   UNL     1      55.051   4.540  16.567  0.00  0.00    +0.000 OA
ATOM     13  H   UNL     1      53.483   4.206  19.315  0.00  0.00    +0.000 HD
BRANCH  11  14
ATOM     14  C   UNL     1      55.663   3.081  18.366  0.00  0.00    +0.000 C 
ATOM     15  C   UNL     1      55.534   1.752  17.658  0.00  0.00    +0.000 C 
ATOM     16  C   UNL     1      54.336   1.121  18.337  0.00  0.00    +0.000 C 
ATOM     17  O   UNL     1      54.224   1.713  19.642  0.00  0.00    +0.000 OA
ATOM     18  C   UNL     1      55.237   2.728  19.773  0.00  0.00    +0.000 C 
ENDBRANCH  11  14
ENDBRANCH   9  10
ENDBRANCH   6   9
ENDBRANCH   2   3
BRANCH   2  19
ATOM     19  N   UNL     1      46.910   4.293  15.589  0.00  0.00    +0.000 N 
ATOM     20  C   UNL     1      46.909   4.171  14.220  0.00  0.00    +0.000 C 
ATOM     21  O   UNL     1      47.444   3.232  13.639  0.00  0.00    +0.000 OA
ATOM     22  H   UNL     1      46.735   5.214  15.981  0.00  0.00    +0.000 HD
BRANCH  20  23
ATOM     23  C   UNL     1      46.177   5.194  13.467  0.00  0.00    +0.000 A 
ATOM     24  C   UNL     1      46.692   6.481  13.384  0.00  0.00    +0.000 A 
ATOM     25  S   UNL     1      45.710   7.554  12.494  0.00  0.00    +0.000 S 
ATOM     26  C   UNL     1      44.542   6.346  12.225  0.00  0.00    +0.000 A 
ATOM     27  N   UNL     1      43.394   6.622  11.551  0.00  0.00    +0.000 NA
ATOM     28  C   UNL     1      42.582   5.623  11.454  0.00  0.00    +0.000 A 
ATOM     29  N   UNL     1      42.823   4.367  11.951  0.00  0.00    +0.000 N 
ATOM     30  C   UNL     1      43.990   4.031  12.597  0.00  0.00    +0.000 A 
ATOM     31  O   UNL     1      44.216   2.883  12.963  0.00  0.00    +0.000 OA
ATOM     32  C   UNL     1      44.918   5.131  12.770  0.00  0.00    +0.000 A 
ATOM     33  H   UNL     1      42.155   3.623  11.818  0.00  0.00    +0.000 HD
ENDBRANCH  20  23
ENDBRANCH   2  19
TORSDOF 6
ENDMDL
MODEL 5
REMARK VINA RESULT:    -6.649      3.742      9.219
REMARK INTER + INTRA:         -10.455
REMARK INTER:                  -9.004
REMARK INTRA:                  -1.452
REMARK UNBOUND:                -1.475
REMARK  Name = 
REMARK  7 active torsions:
REMARK  status: ('A' for Active; 'I' for Inactive)
REMARK    1  A    between atoms: C_1  and  C_2
REMARK    2  A    between atoms: C_2  and  N_3
REMARK    3  A    between atoms: C_2  and  C_16
REMARK    4  A    between atoms: C_4  and  C_6
REMARK    5  A    between atoms: C_19  and  C_20
REMARK    6  A    between atoms: C_20  and  N_21
REMARK    7  A    between atoms: C_22  and  C_24
REMARK                            x       y       z     vdW  Elec       q    Type
REMARK                         _______ _______ _______ _____ _____    ______ ____
ROOT
ATOM      1  C   UNL     1      48.894   7.836  11.293  0.00  0.00    +0.000 C 
ATOM      2  C   UNL     1      47.601   7.721  12.115  0.00  0.00    +0.000 C 
ENDROOT
BRANCH   2   3
ATOM      3  C   UNL     1      47.932   7.796  13.601  0.00  0.00    +0.000 A 
ATOM      4  C   UNL     1      47.909   9.025  14.278  0.00  0.00    +0.000 A 
ATOM      5  C   UNL     1      48.307   9.109  15.619  0.00  0.00    +0.000 A 
ATOM      6  C   UNL     1      48.742   7.969  16.309  0.00  0.00    +0.000 A 
ATOM      7  C   UNL     1      48.706   6.734  15.653  0.00  0.00    +0.000 A 
ATOM      8  C   UNL     1      48.305   6.649  14.317  0.00  0.00    +0.000 A 
BRANCH   6   9
ATOM      9  C   UNL     1      49.255   8.064  17.720  0.00  0.00    +0.000 C 
BRANCH   9  10
ATOM     10  N   UNL     1      49.314   6.776  18.370  0.00  0.00    +0.000 N 
ATOM     11  C   UNL     1      50.506   6.103  18.484  0.00  0.00    +0.000 C 
ATOM     12  O   UNL     1      51.555   6.544  18.018  0.00  0.00    +0.000 OA
ATOM     13  H   UNL     1      48.446   6.340  18.664  0.00  0.00    +0.000 HD
BRANCH  11  14
ATOM     14  C   UNL     1      50.468   4.725  19.136  0.00  0.00    +0.000 C 
ATOM     15  C   UNL     1      50.793   3.626  18.152  0.00  0.00    +0.000 C 
ATOM     16  C   UNL     1      49.443   3.303  17.545  0.00  0.00    +0.000 C 
ATOM     17  O   UNL     1      48.442   3.695  18.499  0.00  0.00    +0.000 OA
ATOM     18  C   UNL     1      49.097   4.312  19.623  0.00  0.00    +0.000 C 
ENDBRANCH  11  14
ENDBRANCH   9  10
ENDBRANCH   6   9
ENDBRANCH   2   3
BRANCH   2  19
ATOM     19  N   UNL     1      46.859   6.501  11.829  0.00  0.00    +0.000 N 
ATOM     20  C   UNL     1      45.487   6.480  11.750  0.00  0.00    +0.000 C 
ATOM     21  O   UNL     1      44.802   7.492  11.853  0.00  0.00    +0.000 OA
ATOM     22  H   UNL     1      47.334   5.629  12.044  0.00  0.00    +0.000 HD
BRANCH  20  23
ATOM     23  C   UNL     1      44.863   5.182  11.472  0.00  0.00    +0.000 A 
ATOM     24  C   UNL     1      44.109   4.561  12.459  0.00  0.00    +0.000 A 
ATOM     25  S   UNL     1      43.472   3.051  11.984  0.00  0.00    +0.000 S 
ATOM     26  C   UNL     1      44.219   3.156  10.459  0.00  0.00    +0.000 A 
ATOM     27  N   UNL     1      44.114   2.144   9.558  0.00  0.00    +0.000 NA
ATOM     28  C   UNL     1      44.761   2.342   8.459  0.00  0.00    +0.000 A 
ATOM     29  N   UNL     1      45.487   3.469   8.170  0.00  0.00    +0.000 N 
ATOM     30  C   UNL     1      45.583   4.537   9.031  0.00  0.00    +0.000 A 
ATOM     31  O   UNL     1      46.173   5.565   8.719  0.00  0.00    +0.000 OA
ATOM     32  C   UNL     1      44.908   4.346  10.300  0.00  0.00    +0.000 A 
ATOM     33  H   UNL     1      45.950   3.570   7.279  0.00  0.00    +0.000 HD
ENDBRANCH  20  23
ENDBRANCH   2  19
TORSDOF 6
ENDMDL
MODEL 6
REMARK VINA RESULT:    -6.610      3.279      4.439
REMARK INTER + INTRA:         -10.403
REMARK INTER:                  -8.670
REMARK INTRA:                  -1.733
REMARK UNBOUND:                -1.475
REMARK  Name = 
REMARK  7 active torsions:
REMARK  status: ('A' for Active; 'I' for Inactive)
REMARK    1  A    between atoms: C_1  and  C_2
REMARK    2  A    between atoms: C_2  and  N_3
REMARK    3  A    between atoms: C_2  and  C_16
REMARK    4  A    between atoms: C_4  and  C_6
REMARK    5  A    between atoms: C_19  and  C_20
REMARK    6  A    between atoms: C_20  and  N_21
REMARK    7  A    between atoms: C_22  and  C_24
REMARK                            x       y       z     vdW  Elec       q    Type
REMARK                         _______ _______ _______ _____ _____    ______ ____
ROOT
ATOM      1  C   UNL     1      49.164  10.031  14.386  0.00  0.00    +0.000 C 
ATOM      2  C   UNL     1      49.039   8.545  14.014  0.00  0.00    +0.000 C 
ENDROOT
BRANCH   2   3
ATOM      3  C   UNL     1      47.791   8.336  13.164  0.00  0.00    +0.000 A 
ATOM      4  C   UNL     1      46.720   9.240  13.229  0.00  0.00    +0.000 A 
ATOM      5  C   UNL     1      45.535   8.996  12.522  0.00  0.00    +0.000 A 
ATOM      6  C   UNL     1      45.393   7.841  11.741  0.00  0.00    +0.000 A 
ATOM      7  C   UNL     1      46.483   6.971  11.626  0.00  0.00    +0.000 A 
ATOM      8  C   UNL     1      47.666   7.216  12.327  0.00  0.00    +0.000 A 
BRANCH   6   9
ATOM      9  C   UNL     1      44.095   7.525  11.049  0.00  0.00    +0.000 C 
BRANCH   9  10
ATOM     10  N   UNL     1      43.954   6.118  10.760  0.00  0.00    +0.000 N 
ATOM     11  C   UNL     1      43.160   5.317  11.545  0.00  0.00    +0.000 C 
ATOM     12  O   UNL     1      42.567   5.749  12.531  0.00  0.00    +0.000 OA
ATOM     13  H   UNL     1      44.520   5.716  10.020  0.00  0.00    +0.000 HD
BRANCH  11  14
ATOM     14  C   UNL     1      43.112   3.833  11.200  0.00  0.00    +0.000 C 
ATOM     15  C   UNL     1      43.660   2.976  12.318  0.00  0.00    +0.000 C 
ATOM     16  C   UNL     1      45.143   2.931  12.015  0.00  0.00    +0.000 C 
ATOM     17  O   UNL     1      45.299   3.171  10.606  0.00  0.00    +0.000 OA
ATOM     18  C   UNL     1      44.002   3.440  10.042  0.00  0.00    +0.000 C 
ENDBRANCH  11  14
ENDBRANCH   9  10
ENDBRANCH   6   9
ENDBRANCH   2   3
BRANCH   2  19
ATOM     19  N   UNL     1      49.001   7.675  15.181  0.00  0.00    +0.000 N 
ATOM     20  C   UNL     1      50.111   6.995  15.621  0.00  0.00    +0.000 C 
ATOM     21  O   UNL     1      51.216   7.122  15.103  0.00  0.00    +0.000 OA
ATOM     22  H   UNL     1      48.090   7.306  15.434  0.00  0.00    +0.000 HD
BRANCH  20  23
ATOM     23  C   UNL     1      49.934   6.138  16.799  0.00  0.00    +0.000 A 
ATOM     24  C   UNL     1      50.757   6.315  17.903  0.00  0.00    +0.000 A 
ATOM     25  S   UNL     1      50.437   5.227  19.176  0.00  0.00    +0.000 S 
ATOM     26  C   UNL     1      49.215   4.454  18.278  0.00  0.00    +0.000 A 
ATOM     27  N   UNL     1      48.552   3.379  18.781  0.00  0.00    +0.000 NA
ATOM     28  C   UNL     1      47.679   2.869  17.978  0.00  0.00    +0.000 A 
ATOM     29  N   UNL     1      47.393   3.351  16.726  0.00  0.00    +0.000 N 
ATOM     30  C   UNL     1      48.005   4.463  16.195  0.00  0.00    +0.000 A 
ATOM     31  O   UNL     1      47.678   4.920  15.106  0.00  0.00    +0.000 OA
ATOM     32  C   UNL     1      49.026   5.047  17.042  0.00  0.00    +0.000 A 
ATOM     33  H   UNL     1      46.680   2.920  16.157  0.00  0.00    +0.000 HD
ENDBRANCH  20  23
ENDBRANCH   2  19
TORSDOF 6
ENDMDL
MODEL 7
REMARK VINA RESULT:    -6.545      1.380      2.312
REMARK INTER + INTRA:         -10.315
REMARK INTER:                  -9.394
REMARK INTRA:                  -0.922
REMARK UNBOUND:                -1.475
REMARK  Name = 
REMARK  7 active torsions:
REMARK  status: ('A' for Active; 'I' for Inactive)
REMARK    1  A    between atoms: C_1  and  C_2
REMARK    2  A    between atoms: C_2  and  N_3
REMARK    3  A    between atoms: C_2  and  C_16
REMARK    4  A    between atoms: C_4  and  C_6
REMARK    5  A    between atoms: C_19  and  C_20
REMARK    6  A    between atoms: C_20  and  N_21
REMARK    7  A    between atoms: C_22  and  C_24
REMARK                            x       y       z     vdW  Elec       q    Type
REMARK                         _______ _______ _______ _____ _____    ______ ____
ROOT
ATOM      1  C   UNL     1      47.141   2.700  17.746  0.00  0.00    +0.000 C 
ATOM      2  C   UNL     1      48.080   3.911  17.625  0.00  0.00    +0.000 C 
ENDROOT
BRANCH   2   3
ATOM      3  C   UNL     1      47.909   4.554  16.253  0.00  0.00    +0.000 A 
ATOM      4  C   UNL     1      48.516   5.784  15.959  0.00  0.00    +0.000 A 
ATOM      5  C   UNL     1      48.282   6.422  14.734  0.00  0.00    +0.000 A 
ATOM      6  C   UNL     1      47.429   5.847  13.780  0.00  0.00    +0.000 A 
ATOM      7  C   UNL     1      46.873   4.591  14.048  0.00  0.00    +0.000 A 
ATOM      8  C   UNL     1      47.111   3.953  15.268  0.00  0.00    +0.000 A 
BRANCH   6   9
ATOM      9  C   UNL     1      47.101   6.565  12.500  0.00  0.00    +0.000 C 
BRANCH   9  10
ATOM     10  N   UNL     1      46.224   5.796  11.649  0.00  0.00    +0.000 N 
ATOM     11  C   UNL     1      44.892   6.116  11.543  0.00  0.00    +0.000 C 
ATOM     12  O   UNL     1      44.387   7.037  12.181  0.00  0.00    +0.000 OA
ATOM     13  H   UNL     1      46.592   4.964  11.198  0.00  0.00    +0.000 HD
BRANCH  11  14
ATOM     14  C   UNL     1      44.028   5.218  10.664  0.00  0.00    +0.000 C 
ATOM     15  C   UNL     1      42.971   4.494  11.465  0.00  0.00    +0.000 C 
ATOM     16  C   UNL     1      43.689   3.242  11.924  0.00  0.00    +0.000 C 
ATOM     17  O   UNL     1      44.754   2.996  10.991  0.00  0.00    +0.000 OA
ATOM     18  C   UNL     1      44.780   4.068  10.031  0.00  0.00    +0.000 C 
ENDBRANCH  11  14
ENDBRANCH   9  10
ENDBRANCH   6   9
ENDBRANCH   2   3
BRANCH   2  19
ATOM     19  N   UNL     1      49.476   3.562  17.844  0.00  0.00    +0.000 N 
ATOM     20  C   UNL     1      50.098   2.557  17.142  0.00  0.00    +0.000 C 
ATOM     21  O   UNL     1      49.541   1.932  16.245  0.00  0.00    +0.000 OA
ATOM     22  H   UNL     1      49.864   3.816  18.748  0.00  0.00    +0.000 HD
BRANCH  20  23
ATOM     23  C   UNL     1      51.503   2.295  17.472  0.00  0.00    +0.000 A 
ATOM     24  C   UNL     1      51.937   0.985  17.623  0.00  0.00    +0.000 A 
ATOM     25  S   UNL     1      53.589   0.854  18.027  0.00  0.00    +0.000 S 
ATOM     26  C   UNL     1      53.771   2.546  18.054  0.00  0.00    +0.000 A 
ATOM     27  N   UNL     1      54.959   3.116  18.387  0.00  0.00    +0.000 NA
ATOM     28  C   UNL     1      54.943   4.406  18.404  0.00  0.00    +0.000 A 
ATOM     29  N   UNL     1      53.852   5.179  18.098  0.00  0.00    +0.000 N 
ATOM     30  C   UNL     1      52.644   4.647  17.711  0.00  0.00    +0.000 A 
ATOM     31  O   UNL     1      51.707   5.359  17.367  0.00  0.00    +0.000 OA
ATOM     32  C   UNL     1      52.597   3.198  17.718  0.00  0.00    +0.000 A 
ATOM     33  H   UNL     1      53.914   6.187  18.107  0.00  0.00    +0.000 HD
ENDBRANCH  20  23
ENDBRANCH   2  19
TORSDOF 6
ENDMDL
MODEL 8
REMARK VINA RESULT:    -6.471      5.508      7.212
REMARK INTER + INTRA:         -10.216
REMARK INTER:                  -9.064
REMARK INTRA:                  -1.152
REMARK UNBOUND:                -1.475
REMARK  Name = 
REMARK  7 active torsions:
REMARK  status: ('A' for Active; 'I' for Inactive)
REMARK    1  A    between atoms: C_1  and  C_2
REMARK    2  A    between atoms: C_2  and  N_3
REMARK    3  A    between atoms: C_2  and  C_16
REMARK    4  A    between atoms: C_4  and  C_6
REMARK    5  A    between atoms: C_19  and  C_20
REMARK    6  A    between atoms: C_20  and  N_21
REMARK    7  A    between atoms: C_22  and  C_24
REMARK                            x       y       z     vdW  Elec       q    Type
REMARK                         _______ _______ _______ _____ _____    ______ ____
ROOT
ATOM      1  C   UNL     1      50.845   9.576  11.997  0.00  0.00    +0.000 C 
ATOM      2  C   UNL     1      50.377   8.347  11.202  0.00  0.00    +0.000 C 
ENDROOT
BRANCH   2   3
ATOM      3  C   UNL     1      49.244   7.655  11.951  0.00  0.00    +0.000 A 
ATOM      4  C   UNL     1      49.404   7.267  13.290  0.00  0.00    +0.000 A 
ATOM      5  C   UNL     1      48.399   6.546  13.949  0.00  0.00    +0.000 A 
ATOM      6  C   UNL     1      47.218   6.191  13.281  0.00  0.00    +0.000 A 
ATOM      7  C   UNL     1      47.033   6.631  11.966  0.00  0.00    +0.000 A 
ATOM      8  C   UNL     1      48.032   7.355  11.310  0.00  0.00    +0.000 A 
BRANCH   6   9
ATOM      9  C   UNL     1      46.173   5.342  13.951  0.00  0.00    +0.000 C 
BRANCH   9  10
ATOM     10  N   UNL     1      45.160   4.888  13.028  0.00  0.00    +0.000 N 
ATOM     11  C   UNL     1      45.140   3.586  12.593  0.00  0.00    +0.000 C 
ATOM     12  O   UNL     1      45.990   2.767  12.939  0.00  0.00    +0.000 OA
ATOM     13  H   UNL     1      44.515   5.571  12.642  0.00  0.00    +0.000 HD
BRANCH  11  14
ATOM     14  C   UNL     1      44.068   3.207  11.577  0.00  0.00    +0.000 C 
ATOM     15  C   UNL     1      44.652   2.969  10.203  0.00  0.00    +0.000 C 
ATOM     16  C   UNL     1      44.651   4.353   9.589  0.00  0.00    +0.000 C 
ATOM     17  O   UNL     1      43.633   5.116  10.259  0.00  0.00    +0.000 OA
ATOM     18  C   UNL     1      43.064   4.304  11.303  0.00  0.00    +0.000 C 
ENDBRANCH  11  14
ENDBRANCH   9  10
ENDBRANCH   6   9
ENDBRANCH   2   3
BRANCH   2  19
ATOM     19  N   UNL     1      51.455   7.403  10.942  0.00  0.00    +0.000 N 
ATOM     20  C   UNL     1      52.383   7.608   9.949  0.00  0.00    +0.000 C 
ATOM     21  O   UNL     1      52.404   8.623   9.260  0.00  0.00    +0.000 OA
ATOM     22  H   UNL     1      51.298   6.449  11.252  0.00  0.00    +0.000 HD
BRANCH  20  23
ATOM     23  C   UNL     1      53.407   6.572   9.781  0.00  0.00    +0.000 A 
ATOM     24  C   UNL     1      54.295   6.313  10.816  0.00  0.00    +0.000 A 
ATOM     25  S   UNL     1      55.435   5.098  10.453  0.00  0.00    +0.000 S 
ATOM     26  C   UNL     1      54.807   4.905   8.883  0.00  0.00    +0.000 A 
ATOM     27  N   UNL     1      55.371   4.032   8.007  0.00  0.00    +0.000 NA
ATOM     28  C   UNL     1      54.818   4.017   6.841  0.00  0.00    +0.000 A 
ATOM     29  N   UNL     1      53.737   4.779   6.478  0.00  0.00    +0.000 N 
ATOM     30  C   UNL     1      53.104   5.640   7.345  0.00  0.00    +0.000 A 
ATOM     31  O   UNL     1      52.093   6.253   7.021  0.00  0.00    +0.000 OA
ATOM     32  C   UNL     1      53.716   5.726   8.656  0.00  0.00    +0.000 A 
ATOM     33  H   UNL     1      53.336   4.700   5.555  0.00  0.00    +0.000 HD
ENDBRANCH  20  23
ENDBRANCH   2  19
TORSDOF 6
ENDMDL
MODEL 9
REMARK VINA RESULT:    -6.424      1.647      2.673
REMARK INTER + INTRA:         -10.152
REMARK INTER:                  -8.658
REMARK INTRA:                  -1.494
REMARK UNBOUND:                -1.475
REMARK  Name = 
REMARK  7 active torsions:
REMARK  status: ('A' for Active; 'I' for Inactive)
REMARK    1  A    between atoms: C_1  and  C_2
REMARK    2  A    between atoms: C_2  and  N_3
REMARK    3  A    between atoms: C_2  and  C_16
REMARK    4  A    between atoms: C_4  and  C_6
REMARK    5  A    between atoms: C_19  and  C_20
REMARK    6  A    between atoms: C_20  and  N_21
REMARK    7  A    between atoms: C_22  and  C_24
REMARK                            x       y       z     vdW  Elec       q    Type
REMARK                         _______ _______ _______ _____ _____    ______ ____
ROOT
ATOM      1  C   UNL     1      49.047   4.786  20.924  0.00  0.00    +0.000 C 
ATOM      2  C   UNL     1      49.900   4.943  19.655  0.00  0.00    +0.000 C 
ENDROOT
BRANCH   2   3
ATOM      3  C   UNL     1      49.038   4.685  18.425  0.00  0.00    +0.000 A 
ATOM      4  C   UNL     1      48.267   3.517  18.324  0.00  0.00    +0.000 A 
ATOM      5  C   UNL     1      47.550   3.234  17.154  0.00  0.00    +0.000 A 
ATOM      6  C   UNL     1      47.596   4.107  16.058  0.00  0.00    +0.000 A 
ATOM      7  C   UNL     1      48.314   5.301  16.181  0.00  0.00    +0.000 A 
ATOM      8  C   UNL     1      49.025   5.587  17.350  0.00  0.00    +0.000 A 
BRANCH   6   9
ATOM      9  C   UNL     1      46.903   3.768  14.766  0.00  0.00    +0.000 C 
BRANCH   9  10
ATOM     10  N   UNL     1      46.293   4.924  14.152  0.00  0.00    +0.000 N 
ATOM     11  C   UNL     1      45.137   4.800  13.420  0.00  0.00    +0.000 C 
ATOM     12  O   UNL     1      44.594   3.713  13.231  0.00  0.00    +0.000 OA
ATOM     13  H   UNL     1      46.781   5.813  14.199  0.00  0.00    +0.000 HD
BRANCH  11  14
ATOM     14  C   UNL     1      44.592   6.063  12.762  0.00  0.00    +0.000 C 
ATOM     15  C   UNL     1      44.390   5.881  11.275  0.00  0.00    +0.000 C 
ATOM     16  C   UNL     1      45.743   6.247  10.702  0.00  0.00    +0.000 C 
ATOM     17  O   UNL     1      46.388   7.115  11.649  0.00  0.00    +0.000 OA
ATOM     18  C   UNL     1      45.540   7.240  12.806  0.00  0.00    +0.000 C 
ENDBRANCH  11  14
ENDBRANCH   9  10
ENDBRANCH   6   9
ENDBRANCH   2   3
BRANCH   2  19
ATOM     19  N   UNL     1      51.061   4.064  19.647  0.00  0.00    +0.000 N 
ATOM     20  C   UNL     1      52.266   4.449  19.109  0.00  0.00    +0.000 C 
ATOM     21  O   UNL     1      52.462   5.573  18.659  0.00  0.00    +0.000 OA
ATOM     22  H   UNL     1      50.868   3.069  19.710  0.00  0.00    +0.000 HD
BRANCH  20  23
ATOM     23  C   UNL     1      53.350   3.462  19.149  0.00  0.00    +0.000 A 
ATOM     24  C   UNL     1      54.520   3.759  19.835  0.00  0.00    +0.000 A 
ATOM     25  S   UNL     1      55.687   2.517  19.766  0.00  0.00    +0.000 S 
ATOM     26  C   UNL     1      54.685   1.557  18.781  0.00  0.00    +0.000 A 
ATOM     27  N   UNL     1      55.111   0.355  18.312  0.00  0.00    +0.000 NA
ATOM     28  C   UNL     1      54.264  -0.247  17.547  0.00  0.00    +0.000 A 
ATOM     29  N   UNL     1      53.020   0.234  17.225  0.00  0.00    +0.000 N 
ATOM     30  C   UNL     1      52.529   1.422  17.714  0.00  0.00    +0.000 A 
ATOM     31  O   UNL     1      51.386   1.794  17.475  0.00  0.00    +0.000 OA
ATOM     32  C   UNL     1      53.461   2.159  18.545  0.00  0.00    +0.000 A 
ATOM     33  H   UNL     1      52.395  -0.301  16.640  0.00  0.00    +0.000 HD
ENDBRANCH  20  23
ENDBRANCH   2  19
TORSDOF 6
ENDMDL
