MODEL 1
REMARK VINA RESULT:    -8.535      0.000      0.000
REMARK INTER + INTRA:         -12.407
REMARK INTER:                 -11.529
REMARK INTRA:                  -0.878
REMARK UNBOUND:                -0.878
REMARK  Name = 
REMARK  7 active torsions:
REMARK  status: ('A' for Active; 'I' for Inactive)
REMARK    1  A    between atoms: C_1  and  C_2
REMARK    2  A    between atoms: C_2  and  N_3
REMARK    3  A    between atoms: C_2  and  C_16
REMARK    4  A    between atoms: C_4  and  C_6
REMARK    5  A    between atoms: C_19  and  C_20
REMARK    6  A    between atoms: C_20  and  N_21
REMARK    7  A    between atoms: C_22  and  C_24
REMARK                            x       y       z     vdW  Elec       q    Type
REMARK                         _______ _______ _______ _____ _____    ______ ____
ROOT
ATOM      1  C   UNL     1      47.134   9.332  13.383  0.00  0.00    +0.000 C 
ATOM      2  C   UNL     1      47.746   7.974  13.743  0.00  0.00    +0.000 C 
ENDROOT
BRANCH   2   3
ATOM      3  C   UNL     1      46.876   6.840  13.209  0.00  0.00    +0.000 A 
ATOM      4  C   UNL     1      45.925   7.075  12.208  0.00  0.00    +0.000 A 
ATOM      5  C   UNL     1      45.157   6.024  11.692  0.00  0.00    +0.000 A 
ATOM      6  C   UNL     1      45.316   4.716  12.169  0.00  0.00    +0.000 A 
ATOM      7  C   UNL     1      46.275   4.475  13.159  0.00  0.00    +0.000 A 
ATOM      8  C   UNL     1      47.039   5.525  13.677  0.00  0.00    +0.000 A 
BRANCH   6   9
ATOM      9  C   UNL     1      44.506   3.580  11.599  0.00  0.00    +0.000 C 
BRANCH   9  10
ATOM     10  N   UNL     1      45.187   2.958  10.486  0.00  0.00    +0.000 N 
ATOM     11  C   UNL     1      45.001   3.410   9.198  0.00  0.00    +0.000 C 
ATOM     12  O   UNL     1      44.259   4.345   8.910  0.00  0.00    +0.000 OA
ATOM     13  H   UNL     1      45.969   2.352  10.695  0.00  0.00    +0.000 HD
BRANCH  11  14
ATOM     14  C   UNL     1      45.785   2.713   8.142  0.00  0.00    +0.000 A 
ATOM     15  C   UNL     1      46.168   1.372   8.284  0.00  0.00    +0.000 A 
ATOM     16  C   UNL     1      46.903   0.741   7.278  0.00  0.00    +0.000 A 
ATOM     17  C   UNL     1      47.250   1.442   6.123  0.00  0.00    +0.000 A 
ATOM     18  C   UNL     1      46.854   2.770   5.965  0.00  0.00    +0.000 A 
ATOM     19  C   UNL     1      46.117   3.404   6.969  0.00  0.00    +0.000 A 
ENDBRANCH  11  14
ENDBRANCH   9  10
ENDBRANCH   6   9
ENDBRANCH   2   3
BRANCH   2  20
ATOM     20  N   UNL     1      47.909   7.793  15.177  0.00  0.00    +0.000 N 
ATOM     21  C   UNL     1      48.994   7.195  15.763  0.00  0.00    +0.000 C 
ATOM     22  O   UNL     1      49.963   6.793  15.129  0.00  0.00    +0.000 OA
ATOM     23  H   UNL     1      47.042   7.795  15.705  0.00  0.00    +0.000 HD
BRANCH  21  24
ATOM     24  C   UNL     1      48.964   7.140  17.230  0.00  0.00    +0.000 A 
ATOM     25  C   UNL     1      48.941   8.314  17.969  0.00  0.00    +0.000 A 
ATOM     26  S   UNL     1      48.842   8.056  19.654  0.00  0.00    +0.000 S 
ATOM     27  C   UNL     1      48.878   6.366  19.454  0.00  0.00    +0.000 A 
ATOM     28  N   UNL     1      48.843   5.532  20.527  0.00  0.00    +0.000 NA
ATOM     29  C   UNL     1      48.914   4.277  20.229  0.00  0.00    +0.000 A 
ATOM     30  N   UNL     1      49.010   3.780  18.954  0.00  0.00    +0.000 N 
ATOM     31  C   UNL     1      49.013   4.584  17.842  0.00  0.00    +0.000 A 
ATOM     32  O   UNL     1      49.043   4.106  16.711  0.00  0.00    +0.000 OA
ATOM     33  C   UNL     1      48.950   6.004  18.121  0.00  0.00    +0.000 A 
ATOM     34  H   UNL     1      49.056   2.788  18.788  0.00  0.00    +0.000 HD
ENDBRANCH  21  24
ENDBRANCH   2  20
TORSDOF 6
ENDMDL
MODEL 2
REMARK VINA RESULT:    -8.242      1.562      2.335
REMARK INTER + INTRA:         -12.010
REMARK INTER:                 -10.851
REMARK INTRA:                  -1.159
REMARK UNBOUND:                -0.878
REMARK  Name = 
REMARK  7 active torsions:
REMARK  status: ('A' for Active; 'I' for Inactive)
REMARK    1  A    between atoms: C_1  and  C_2
REMARK    2  A    between atoms: C_2  and  N_3
REMARK    3  A    between atoms: C_2  and  C_16
REMARK    4  A    between atoms: C_4  and  C_6
REMARK    5  A    between atoms: C_19  and  C_20
REMARK    6  A    between atoms: C_20  and  N_21
REMARK    7  A    between atoms: C_22  and  C_24
REMARK                            x       y       z     vdW  Elec       q    Type
REMARK                         _______ _______ _______ _____ _____    ______ ____
ROOT
ATOM      1  C   UNL     1      48.005   9.636  14.112  0.00  0.00    +0.000 C 
ATOM      2  C   UNL     1      48.211   8.117  14.126  0.00  0.00    +0.000 C 
ENDROOT
BRANCH   2   3
ATOM      3  C   UNL     1      47.188   7.433  13.224  0.00  0.00    +0.000 A 
ATOM      4  C   UNL     1      46.184   8.174  12.587  0.00  0.00    +0.000 A 
ATOM      5  C   UNL     1      45.272   7.548  11.727  0.00  0.00    +0.000 A 
ATOM      6  C   UNL     1      45.338   6.169  11.490  0.00  0.00    +0.000 A 
ATOM      7  C   UNL     1      46.349   5.428  12.114  0.00  0.00    +0.000 A 
ATOM      8  C   UNL     1      47.257   6.051  12.975  0.00  0.00    +0.000 A 
BRANCH   6   9
ATOM      9  C   UNL     1      44.372   5.498  10.548  0.00  0.00    +0.000 C 
BRANCH   9  10
ATOM     10  N   UNL     1      45.068   4.820   9.478  0.00  0.00    +0.000 N 
ATOM     11  C   UNL     1      45.078   3.445   9.399  0.00  0.00    +0.000 C 
ATOM     12  O   UNL     1      44.517   2.716  10.212  0.00  0.00    +0.000 OA
ATOM     13  H   UNL     1      45.340   5.369   8.674  0.00  0.00    +0.000 HD
BRANCH  11  14
ATOM     14  C   UNL     1      45.799   2.864   8.233  0.00  0.00    +0.000 A 
ATOM     15  C   UNL     1      46.064   3.625   7.086  0.00  0.00    +0.000 A 
ATOM     16  C   UNL     1      46.742   3.056   6.006  0.00  0.00    +0.000 A 
ATOM     17  C   UNL     1      47.165   1.728   6.069  0.00  0.00    +0.000 A 
ATOM     18  C   UNL     1      46.923   0.971   7.214  0.00  0.00    +0.000 A 
ATOM     19  C   UNL     1      46.247   1.537   8.298  0.00  0.00    +0.000 A 
ENDBRANCH  11  14
ENDBRANCH   9  10
ENDBRANCH   6   9
ENDBRANCH   2   3
BRANCH   2  20
ATOM     20  N   UNL     1      48.102   7.547  15.460  0.00  0.00    +0.000 N 
ATOM     21  C   UNL     1      49.061   6.765  16.049  0.00  0.00    +0.000 C 
ATOM     22  O   UNL     1      50.136   6.509  15.518  0.00  0.00    +0.000 OA
ATOM     23  H   UNL     1      47.151   7.444  15.800  0.00  0.00    +0.000 HD
BRANCH  21  24
ATOM     24  C   UNL     1      48.755   6.316  17.413  0.00  0.00    +0.000 A 
ATOM     25  C   UNL     1      48.940   4.986  17.764  0.00  0.00    +0.000 A 
ATOM     26  S   UNL     1      48.596   4.662  19.404  0.00  0.00    +0.000 S 
ATOM     27  C   UNL     1      48.140   6.278  19.687  0.00  0.00    +0.000 A 
ATOM     28  N   UNL     1      47.710   6.682  20.912  0.00  0.00    +0.000 NA
ATOM     29  C   UNL     1      47.363   7.925  20.972  0.00  0.00    +0.000 A 
ATOM     30  N   UNL     1      47.413   8.802  19.918  0.00  0.00    +0.000 N 
ATOM     31  C   UNL     1      47.873   8.446  18.675  0.00  0.00    +0.000 A 
ATOM     32  O   UNL     1      47.959   9.268  17.768  0.00  0.00    +0.000 OA
ATOM     33  C   UNL     1      48.262   7.056  18.550  0.00  0.00    +0.000 A 
ATOM     34  H   UNL     1      47.133   9.763  20.032  0.00  0.00    +0.000 HD
ENDBRANCH  21  24
ENDBRANCH   2  20
TORSDOF 6
ENDMDL
MODEL 3
REMARK VINA RESULT:    -8.073      2.578      4.400
REMARK INTER + INTRA:         -11.782
REMARK INTER:                 -10.539
REMARK INTRA:                  -1.243
REMARK UNBOUND:                -0.878
REMARK  Name = 
REMARK  7 active torsions:
REMARK  status: ('A' for Active; 'I' for Inactive)
REMARK    1  A    between atoms: C_1  and  C_2
REMARK    2  A    between atoms: C_2  and  N_3
REMARK    3  A    between atoms: C_2  and  C_16
REMARK    4  A    between atoms: C_4  and  C_6
REMARK    5  A    between atoms: C_19  and  C_20
REMARK    6  A    between atoms: C_20  and  N_21
REMARK    7  A    between atoms: C_22  and  C_24
REMARK                            x       y       z     vdW  Elec       q    Type
REMARK                         _______ _______ _______ _____ _____    ______ ____
ROOT
ATOM      1  C   UNL     1      47.516   3.691  15.681  0.00  0.00    +0.000 C 
ATOM      2  C   UNL     1      47.104   5.038  15.077  0.00  0.00    +0.000 C 
ENDROOT
BRANCH   2   3
ATOM      3  C   UNL     1      46.201   4.824  13.866  0.00  0.00    +0.000 A 
ATOM      4  C   UNL     1      45.524   5.900  13.276  0.00  0.00    +0.000 A 
ATOM      5  C   UNL     1      44.729   5.706  12.139  0.00  0.00    +0.000 A 
ATOM      6  C   UNL     1      44.587   4.433  11.571  0.00  0.00    +0.000 A 
ATOM      7  C   UNL     1      45.272   3.358  12.150  0.00  0.00    +0.000 A 
ATOM      8  C   UNL     1      46.063   3.551  13.286  0.00  0.00    +0.000 A 
BRANCH   6   9
ATOM      9  C   UNL     1      43.750   4.226  10.334  0.00  0.00    +0.000 C 
BRANCH   9  10
ATOM     10  N   UNL     1      44.472   3.478   9.331  0.00  0.00    +0.000 N 
ATOM     11  C   UNL     1      45.485   4.063   8.603  0.00  0.00    +0.000 C 
ATOM     12  O   UNL     1      45.832   5.231   8.745  0.00  0.00    +0.000 OA
ATOM     13  H   UNL     1      44.382   2.471   9.343  0.00  0.00    +0.000 HD
BRANCH  11  14
ATOM     14  C   UNL     1      46.179   3.180   7.625  0.00  0.00    +0.000 A 
ATOM     15  C   UNL     1      46.581   3.657   6.370  0.00  0.00    +0.000 A 
ATOM     16  C   UNL     1      47.230   2.808   5.471  0.00  0.00    +0.000 A 
ATOM     17  C   UNL     1      47.489   1.484   5.824  0.00  0.00    +0.000 A 
ATOM     18  C   UNL     1      47.110   1.008   7.079  0.00  0.00    +0.000 A 
ATOM     19  C   UNL     1      46.462   1.855   7.982  0.00  0.00    +0.000 A 
ENDBRANCH  11  14
ENDBRANCH   9  10
ENDBRANCH   6   9
ENDBRANCH   2   3
BRANCH   2  20
ATOM     20  N   UNL     1      48.244   5.842  14.665  0.00  0.00    +0.000 N 
ATOM     21  C   UNL     1      48.917   6.708  15.486  0.00  0.00    +0.000 C 
ATOM     22  O   UNL     1      48.649   6.853  16.673  0.00  0.00    +0.000 OA
ATOM     23  H   UNL     1      48.301   6.014  13.666  0.00  0.00    +0.000 HD
BRANCH  21  24
ATOM     24  C   UNL     1      50.056   7.400  14.870  0.00  0.00    +0.000 A 
ATOM     25  C   UNL     1      51.290   7.410  15.504  0.00  0.00    +0.000 A 
ATOM     26  S   UNL     1      52.508   8.204  14.611  0.00  0.00    +0.000 S 
ATOM     27  C   UNL     1      51.415   8.607  13.371  0.00  0.00    +0.000 A 
ATOM     28  N   UNL     1      51.817   9.322  12.286  0.00  0.00    +0.000 NA
ATOM     29  C   UNL     1      50.874   9.586  11.443  0.00  0.00    +0.000 A 
ATOM     30  N   UNL     1      49.567   9.193  11.583  0.00  0.00    +0.000 N 
ATOM     31  C   UNL     1      49.127   8.441  12.642  0.00  0.00    +0.000 A 
ATOM     32  O   UNL     1      47.963   8.058  12.711  0.00  0.00    +0.000 OA
ATOM     33  C   UNL     1      50.143   8.129  13.627  0.00  0.00    +0.000 A 
ATOM     34  H   UNL     1      48.879   9.427  10.884  0.00  0.00    +0.000 HD
ENDBRANCH  21  24
ENDBRANCH   2  20
TORSDOF 6
ENDMDL
MODEL 4
REMARK VINA RESULT:    -7.575      3.583      5.185
REMARK INTER + INTRA:         -11.110
REMARK INTER:                  -9.757
REMARK INTRA:                  -1.352
REMARK UNBOUND:                -0.878
REMARK  Name = 
REMARK  7 active torsions:
REMARK  status: ('A' for Active; 'I' for Inactive)
REMARK    1  A    between atoms: C_1  and  C_2
REMARK    2  A    between atoms: C_2  and  N_3
REMARK    3  A    between atoms: C_2  and  C_16
REMARK    4  A    between atoms: C_4  and  C_6
REMARK    5  A    between atoms: C_19  and  C_20
REMARK    6  A    between atoms: C_20  and  N_21
REMARK    7  A    between atoms: C_22  and  C_24
REMARK                            x       y       z     vdW  Elec       q    Type
REMARK                         _______ _______ _______ _____ _____    ______ ____
ROOT
ATOM      1  C   UNL     1      48.680   6.562  15.824  0.00  0.00    +0.000 C 
ATOM      2  C   UNL     1      48.457   7.607  14.725  0.00  0.00    +0.000 C 
ENDROOT
BRANCH   2   3
ATOM      3  C   UNL     1      47.440   7.100  13.707  0.00  0.00    +0.000 A 
ATOM      4  C   UNL     1      46.706   7.994  12.918  0.00  0.00    +0.000 A 
ATOM      5  C   UNL     1      45.804   7.523  11.956  0.00  0.00    +0.000 A 
ATOM      6  C   UNL     1      45.610   6.149  11.765  0.00  0.00    +0.000 A 
ATOM      7  C   UNL     1      46.351   5.252  12.542  0.00  0.00    +0.000 A 
ATOM      8  C   UNL     1      47.249   5.722  13.505  0.00  0.00    +0.000 A 
BRANCH   6   9
ATOM      9  C   UNL     1      44.656   5.640  10.715  0.00  0.00    +0.000 C 
BRANCH   9  10
ATOM     10  N   UNL     1      45.349   4.871   9.706  0.00  0.00    +0.000 N 
ATOM     11  C   UNL     1      44.938   3.598   9.379  0.00  0.00    +0.000 C 
ATOM     12  O   UNL     1      43.984   3.037   9.910  0.00  0.00    +0.000 OA
ATOM     13  H   UNL     1      45.979   5.367   9.091  0.00  0.00    +0.000 HD
BRANCH  11  14
ATOM     14  C   UNL     1      45.709   2.921   8.300  0.00  0.00    +0.000 A 
ATOM     15  C   UNL     1      46.065   1.568   8.397  0.00  0.00    +0.000 A 
ATOM     16  C   UNL     1      46.788   0.957   7.370  0.00  0.00    +0.000 A 
ATOM     17  C   UNL     1      47.151   1.690   6.240  0.00  0.00    +0.000 A 
ATOM     18  C   UNL     1      46.782   3.030   6.127  0.00  0.00    +0.000 A 
ATOM     19  C   UNL     1      46.057   3.645   7.151  0.00  0.00    +0.000 A 
ENDBRANCH  11  14
ENDBRANCH   9  10
ENDBRANCH   6   9
ENDBRANCH   2   3
BRANCH   2  20
ATOM     20  N   UNL     1      49.682   7.951  14.020  0.00  0.00    +0.000 N 
ATOM     21  C   UNL     1      50.116   9.232  13.803  0.00  0.00    +0.000 C 
ATOM     22  O   UNL     1      49.530  10.221  14.229  0.00  0.00    +0.000 OA
ATOM     23  H   UNL     1      50.019   7.235  13.384  0.00  0.00    +0.000 HD
BRANCH  21  24
ATOM     24  C   UNL     1      51.394   9.350  13.090  0.00  0.00    +0.000 A 
ATOM     25  C   UNL     1      52.385  10.192  13.574  0.00  0.00    +0.000 A 
ATOM     26  S   UNL     1      53.822  10.151  12.655  0.00  0.00    +0.000 S 
ATOM     27  C   UNL     1      53.150   9.046  11.549  0.00  0.00    +0.000 A 
ATOM     28  N   UNL     1      53.863   8.600  10.480  0.00  0.00    +0.000 NA
ATOM     29  C   UNL     1      53.215   7.794   9.706  0.00  0.00    +0.000 A 
ATOM     30  N   UNL     1      51.921   7.387   9.908  0.00  0.00    +0.000 N 
ATOM     31  C   UNL     1      51.178   7.783  10.991  0.00  0.00    +0.000 A 
ATOM     32  O   UNL     1      50.041   7.357  11.173  0.00  0.00    +0.000 OA
ATOM     33  C   UNL     1      51.853   8.702  11.885  0.00  0.00    +0.000 A 
ATOM     34  H   UNL     1      51.473   6.750   9.267  0.00  0.00    +0.000 HD
ENDBRANCH  21  24
ENDBRANCH   2  20
TORSDOF 6
ENDMDL
MODEL 5
REMARK VINA RESULT:    -7.337      4.817      9.512
REMARK INTER + INTRA:         -10.788
REMARK INTER:                 -10.041
REMARK INTRA:                  -0.746
REMARK UNBOUND:                -0.878
REMARK  Name = 
REMARK  7 active torsions:
REMARK  status: ('A' for Active; 'I' for Inactive)
REMARK    1  A    between atoms: C_1  and  C_2
REMARK    2  A    between atoms: C_2  and  N_3
REMARK    3  A    between atoms: C_2  and  C_16
REMARK    4  A    between atoms: C_4  and  C_6
REMARK    5  A    between atoms: C_19  and  C_20
REMARK    6  A    between atoms: C_20  and  N_21
REMARK    7  A    between atoms: C_22  and  C_24
REMARK                            x       y       z     vdW  Elec       q    Type
REMARK                         _______ _______ _______ _____ _____    ______ ____
ROOT
ATOM      1  C   UNL     1      47.028   5.105  18.451  0.00  0.00    +0.000 C 
ATOM      2  C   UNL     1      47.541   4.284  17.262  0.00  0.00    +0.000 C 
ENDROOT
BRANCH   2   3
ATOM      3  C   UNL     1      49.041   4.039  17.395  0.00  0.00    +0.000 A 
ATOM      4  C   UNL     1      49.931   5.106  17.576  0.00  0.00    +0.000 A 
ATOM      5  C   UNL     1      51.302   4.873  17.738  0.00  0.00    +0.000 A 
ATOM      6  C   UNL     1      51.817   3.569  17.717  0.00  0.00    +0.000 A 
ATOM      7  C   UNL     1      50.930   2.500  17.550  0.00  0.00    +0.000 A 
ATOM      8  C   UNL     1      49.561   2.733  17.384  0.00  0.00    +0.000 A 
BRANCH   6   9
ATOM      9  C   UNL     1      53.290   3.316  17.914  0.00  0.00    +0.000 C 
BRANCH   9  10
ATOM     10  N   UNL     1      53.651   1.979  17.499  0.00  0.00    +0.000 N 
ATOM     11  C   UNL     1      54.136   1.062  18.405  0.00  0.00    +0.000 C 
ATOM     12  O   UNL     1      54.298   1.309  19.596  0.00  0.00    +0.000 OA
ATOM     13  H   UNL     1      53.321   1.664  16.596  0.00  0.00    +0.000 HD
BRANCH  11  14
ATOM     14  C   UNL     1      54.438  -0.292  17.864  0.00  0.00    +0.000 A 
ATOM     15  C   UNL     1      54.746  -0.485  16.510  0.00  0.00    +0.000 A 
ATOM     16  C   UNL     1      55.026  -1.766  16.029  0.00  0.00    +0.000 A 
ATOM     17  C   UNL     1      55.009  -2.857  16.898  0.00  0.00    +0.000 A 
ATOM     18  C   UNL     1      54.724  -2.670  18.250  0.00  0.00    +0.000 A 
ATOM     19  C   UNL     1      54.445  -1.389  18.736  0.00  0.00    +0.000 A 
ENDBRANCH  11  14
ENDBRANCH   9  10
ENDBRANCH   6   9
ENDBRANCH   2   3
BRANCH   2  20
ATOM     20  N   UNL     1      47.292   4.931  15.983  0.00  0.00    +0.000 N 
ATOM     21  C   UNL     1      47.283   4.280  14.777  0.00  0.00    +0.000 C 
ATOM     22  O   UNL     1      47.439   3.070  14.666  0.00  0.00    +0.000 OA
ATOM     23  H   UNL     1      47.482   5.928  15.968  0.00  0.00    +0.000 HD
BRANCH  21  24
ATOM     24  C   UNL     1      46.984   5.123  13.612  0.00  0.00    +0.000 A 
ATOM     25  C   UNL     1      47.605   6.355  13.468  0.00  0.00    +0.000 A 
ATOM     26  S   UNL     1      47.187   7.164  12.024  0.00  0.00    +0.000 S 
ATOM     27  C   UNL     1      46.122   5.917  11.568  0.00  0.00    +0.000 A 
ATOM     28  N   UNL     1      45.407   5.991  10.414  0.00  0.00    +0.000 NA
ATOM     29  C   UNL     1      44.613   4.992  10.213  0.00  0.00    +0.000 A 
ATOM     30  N   UNL     1      44.474   3.922  11.060  0.00  0.00    +0.000 N 
ATOM     31  C   UNL     1      45.200   3.790  12.216  0.00  0.00    +0.000 A 
ATOM     32  O   UNL     1      45.094   2.793  12.924  0.00  0.00    +0.000 OA
ATOM     33  C   UNL     1      46.097   4.892  12.497  0.00  0.00    +0.000 A 
ATOM     34  H   UNL     1      43.839   3.170  10.842  0.00  0.00    +0.000 HD
ENDBRANCH  21  24
ENDBRANCH   2  20
TORSDOF 6
ENDMDL
MODEL 6
REMARK VINA RESULT:    -7.302      3.665      4.659
REMARK INTER + INTRA:         -10.741
REMARK INTER:                  -9.542
REMARK INTRA:                  -1.200
REMARK UNBOUND:                -0.878
REMARK  Name = 
REMARK  7 active torsions:
REMARK  status: ('A' for Active; 'I' for Inactive)
REMARK    1  A    between atoms: C_1  and  C_2
REMARK    2  A    between atoms: C_2  and  N_3
REMARK    3  A    between atoms: C_2  and  C_16
REMARK    4  A    between atoms: C_4  and  C_6
REMARK    5  A    between atoms: C_19  and  C_20
REMARK    6  A    between atoms: C_20  and  N_21
REMARK    7  A    between atoms: C_22  and  C_24
REMARK                            x       y       z     vdW  Elec       q    Type
REMARK                         _______ _______ _______ _____ _____    ______ ____
ROOT
ATOM      1  C   UNL     1      47.930   9.137  15.221  0.00  0.00    +0.000 C 
ATOM      2  C   UNL     1      48.100   9.250  13.702  0.00  0.00    +0.000 C 
ENDROOT
BRANCH   2   3
ATOM      3  C   UNL     1      47.143   8.301  12.988  0.00  0.00    +0.000 A 
ATOM      4  C   UNL     1      45.817   8.676  12.731  0.00  0.00    +0.000 A 
ATOM      5  C   UNL     1      44.954   7.818  12.039  0.00  0.00    +0.000 A 
ATOM      6  C   UNL     1      45.392   6.564  11.593  0.00  0.00    +0.000 A 
ATOM      7  C   UNL     1      46.719   6.191  11.835  0.00  0.00    +0.000 A 
ATOM      8  C   UNL     1      47.580   7.046  12.530  0.00  0.00    +0.000 A 
BRANCH   6   9
ATOM      9  C   UNL     1      44.470   5.649  10.828  0.00  0.00    +0.000 C 
BRANCH   9  10
ATOM     10  N   UNL     1      45.185   4.920   9.805  0.00  0.00    +0.000 N 
ATOM     11  C   UNL     1      44.888   3.603   9.534  0.00  0.00    +0.000 C 
ATOM     12  O   UNL     1      44.022   2.968  10.129  0.00  0.00    +0.000 OA
ATOM     13  H   UNL     1      45.732   5.456   9.145  0.00  0.00    +0.000 HD
BRANCH  11  14
ATOM     14  C   UNL     1      45.669   2.971   8.435  0.00  0.00    +0.000 A 
ATOM     15  C   UNL     1      46.013   1.613   8.472  0.00  0.00    +0.000 A 
ATOM     16  C   UNL     1      46.745   1.045   7.427  0.00  0.00    +0.000 A 
ATOM     17  C   UNL     1      47.129   1.827   6.338  0.00  0.00    +0.000 A 
ATOM     18  C   UNL     1      46.772   3.174   6.284  0.00  0.00    +0.000 A 
ATOM     19  C   UNL     1      46.038   3.746   7.326  0.00  0.00    +0.000 A 
ENDBRANCH  11  14
ENDBRANCH   9  10
ENDBRANCH   6   9
ENDBRANCH   2   3
BRANCH   2  20
ATOM     20  N   UNL     1      49.455   8.952  13.264  0.00  0.00    +0.000 N 
ATOM     21  C   UNL     1      50.430   9.895  13.071  0.00  0.00    +0.000 C 
ATOM     22  O   UNL     1      50.265  11.088  13.297  0.00  0.00    +0.000 OA
ATOM     23  H   UNL     1      49.555   8.075  12.762  0.00  0.00    +0.000 HD
BRANCH  21  24
ATOM     24  C   UNL     1      51.736   9.370  12.651  0.00  0.00    +0.000 A 
ATOM     25  C   UNL     1      52.245   9.692  11.401  0.00  0.00    +0.000 A 
ATOM     26  S   UNL     1      53.799   9.048  11.112  0.00  0.00    +0.000 S 
ATOM     27  C   UNL     1      53.822   8.275  12.628  0.00  0.00    +0.000 A 
ATOM     28  N   UNL     1      54.884   7.519  13.015  0.00  0.00    +0.000 NA
ATOM     29  C   UNL     1      54.749   6.963  14.173  0.00  0.00    +0.000 A 
ATOM     30  N   UNL     1      53.650   7.100  14.983  0.00  0.00    +0.000 N 
ATOM     31  C   UNL     1      52.573   7.881  14.648  0.00  0.00    +0.000 A 
ATOM     32  O   UNL     1      51.630   8.028  15.419  0.00  0.00    +0.000 OA
ATOM     33  C   UNL     1      52.667   8.517  13.350  0.00  0.00    +0.000 A 
ATOM     34  H   UNL     1      53.610   6.643  15.881  0.00  0.00    +0.000 HD
ENDBRANCH  21  24
ENDBRANCH   2  20
TORSDOF 6
ENDMDL
MODEL 7
REMARK VINA RESULT:    -6.660      5.873      7.864
REMARK INTER + INTRA:          -9.874
REMARK INTER:                  -8.784
REMARK INTRA:                  -1.089
REMARK UNBOUND:                -0.878
REMARK  Name = 
REMARK  7 active torsions:
REMARK  status: ('A' for Active; 'I' for Inactive)
REMARK    1  A    between atoms: C_1  and  C_2
REMARK    2  A    between atoms: C_2  and  N_3
REMARK    3  A    between atoms: C_2  and  C_16
REMARK    4  A    between atoms: C_4  and  C_6
REMARK    5  A    between atoms: C_19  and  C_20
REMARK    6  A    between atoms: C_20  and  N_21
REMARK    7  A    between atoms: C_22  and  C_24
REMARK                            x       y       z     vdW  Elec       q    Type
REMARK                         _______ _______ _______ _____ _____    ______ ____
ROOT
ATOM      1  C   UNL     1      52.968   8.366  13.000  0.00  0.00    +0.000 C 
ATOM      2  C   UNL     1      51.927   8.850  11.984  0.00  0.00    +0.000 C 
ENDROOT
BRANCH   2   3
ATOM      3  C   UNL     1      50.550   8.288  12.326  0.00  0.00    +0.000 A 
ATOM      4  C   UNL     1      49.556   8.176  11.346  0.00  0.00    +0.000 A 
ATOM      5  C   UNL     1      48.307   7.622  11.655  0.00  0.00    +0.000 A 
ATOM      6  C   UNL     1      48.021   7.174  12.951  0.00  0.00    +0.000 A 
ATOM      7  C   UNL     1      49.017   7.272  13.930  0.00  0.00    +0.000 A 
ATOM      8  C   UNL     1      50.262   7.828  13.623  0.00  0.00    +0.000 A 
BRANCH   6   9
ATOM      9  C   UNL     1      46.686   6.557  13.280  0.00  0.00    +0.000 C 
BRANCH   9  10
ATOM     10  N   UNL     1      46.336   5.528  12.327  0.00  0.00    +0.000 N 
ATOM     11  C   UNL     1      45.301   5.709  11.437  0.00  0.00    +0.000 C 
ATOM     12  O   UNL     1      44.616   6.726  11.393  0.00  0.00    +0.000 OA
ATOM     13  H   UNL     1      47.005   4.787  12.172  0.00  0.00    +0.000 HD
BRANCH  11  14
ATOM     14  C   UNL     1      45.059   4.593  10.481  0.00  0.00    +0.000 A 
ATOM     15  C   UNL     1      44.438   3.404  10.890  0.00  0.00    +0.000 A 
ATOM     16  C   UNL     1      44.224   2.373   9.973  0.00  0.00    +0.000 A 
ATOM     17  C   UNL     1      44.619   2.526   8.645  0.00  0.00    +0.000 A 
ATOM     18  C   UNL     1      45.219   3.714   8.226  0.00  0.00    +0.000 A 
ATOM     19  C   UNL     1      45.433   4.749   9.140  0.00  0.00    +0.000 A 
ENDBRANCH  11  14
ENDBRANCH   9  10
ENDBRANCH   6   9
ENDBRANCH   2   3
BRANCH   2  20
ATOM     20  N   UNL     1      52.253   8.467  10.619  0.00  0.00    +0.000 N 
ATOM     21  C   UNL     1      53.278   9.009   9.888  0.00  0.00    +0.000 C 
ATOM     22  O   UNL     1      54.056   9.843  10.337  0.00  0.00    +0.000 OA
ATOM     23  H   UNL     1      51.485   8.052  10.100  0.00  0.00    +0.000 HD
BRANCH  21  24
ATOM     24  C   UNL     1      53.445   8.457   8.537  0.00  0.00    +0.000 A 
ATOM     25  C   UNL     1      53.484   9.305   7.440  0.00  0.00    +0.000 A 
ATOM     26  S   UNL     1      53.750   8.494   5.962  0.00  0.00    +0.000 S 
ATOM     27  C   UNL     1      53.770   6.977   6.733  0.00  0.00    +0.000 A 
ATOM     28  N   UNL     1      53.941   5.831   6.022  0.00  0.00    +0.000 NA
ATOM     29  C   UNL     1      53.899   4.752   6.732  0.00  0.00    +0.000 A 
ATOM     30  N   UNL     1      53.708   4.717   8.090  0.00  0.00    +0.000 N 
ATOM     31  C   UNL     1      53.567   5.850   8.851  0.00  0.00    +0.000 A 
ATOM     32  O   UNL     1      53.453   5.788  10.071  0.00  0.00    +0.000 OA
ATOM     33  C   UNL     1      53.592   7.089   8.100  0.00  0.00    +0.000 A 
ATOM     34  H   UNL     1      53.691   3.840   8.587  0.00  0.00    +0.000 HD
ENDBRANCH  21  24
ENDBRANCH   2  20
TORSDOF 6
ENDMDL
MODEL 8
REMARK VINA RESULT:    -6.546      4.883      8.127
REMARK INTER + INTRA:          -9.719
REMARK INTER:                  -9.560
REMARK INTRA:                  -0.159
REMARK UNBOUND:                -0.878
REMARK  Name = 
REMARK  7 active torsions:
REMARK  status: ('A' for Active; 'I' for Inactive)
REMARK    1  A    between atoms: C_1  and  C_2
REMARK    2  A    between atoms: C_2  and  N_3
REMARK    3  A    between atoms: C_2  and  C_16
REMARK    4  A    between atoms: C_4  and  C_6
REMARK    5  A    between atoms: C_19  and  C_20
REMARK    6  A    between atoms: C_20  and  N_21
REMARK    7  A    between atoms: C_22  and  C_24
REMARK                            x       y       z     vdW  Elec       q    Type
REMARK                         _______ _______ _______ _____ _____    ______ ____
ROOT
ATOM      1  C   UNL     1      45.236   9.322  12.502  0.00  0.00    +0.000 C 
ATOM      2  C   UNL     1      46.151   8.205  13.016  0.00  0.00    +0.000 C 
ENDROOT
BRANCH   2   3
ATOM      3  C   UNL     1      47.576   8.412  12.513  0.00  0.00    +0.000 A 
ATOM      4  C   UNL     1      48.411   7.318  12.249  0.00  0.00    +0.000 A 
ATOM      5  C   UNL     1      49.704   7.511  11.748  0.00  0.00    +0.000 A 
ATOM      6  C   UNL     1      50.196   8.801  11.506  0.00  0.00    +0.000 A 
ATOM      7  C   UNL     1      49.360   9.896  11.756  0.00  0.00    +0.000 A 
ATOM      8  C   UNL     1      48.070   9.703  12.259  0.00  0.00    +0.000 A 
BRANCH   6   9
ATOM      9  C   UNL     1      51.580   9.010  10.946  0.00  0.00    +0.000 C 
BRANCH   9  10
ATOM     10  N   UNL     1      51.995   7.882  10.144  0.00  0.00    +0.000 N 
ATOM     11  C   UNL     1      53.162   7.923   9.414  0.00  0.00    +0.000 C 
ATOM     12  O   UNL     1      53.911   8.896   9.389  0.00  0.00    +0.000 OA
ATOM     13  H   UNL     1      51.543   6.994  10.315  0.00  0.00    +0.000 HD
BRANCH  11  14
ATOM     14  C   UNL     1      53.502   6.687   8.656  0.00  0.00    +0.000 A 
ATOM     15  C   UNL     1      52.737   6.273   7.556  0.00  0.00    +0.000 A 
ATOM     16  C   UNL     1      53.077   5.110   6.862  0.00  0.00    +0.000 A 
ATOM     17  C   UNL     1      54.185   4.361   7.256  0.00  0.00    +0.000 A 
ATOM     18  C   UNL     1      54.963   4.778   8.336  0.00  0.00    +0.000 A 
ATOM     19  C   UNL     1      54.628   5.942   9.032  0.00  0.00    +0.000 A 
ENDBRANCH  11  14
ENDBRANCH   9  10
ENDBRANCH   6   9
ENDBRANCH   2   3
BRANCH   2  20
ATOM     20  N   UNL     1      45.707   6.882  12.607  0.00  0.00    +0.000 N 
ATOM     21  C   UNL     1      44.738   6.647  11.666  0.00  0.00    +0.000 C 
ATOM     22  O   UNL     1      44.182   7.541  11.038  0.00  0.00    +0.000 OA
ATOM     23  H   UNL     1      45.873   6.149  13.290  0.00  0.00    +0.000 HD
BRANCH  21  24
ATOM     24  C   UNL     1      44.463   5.232  11.388  0.00  0.00    +0.000 A 
ATOM     25  C   UNL     1      43.713   4.481  12.282  0.00  0.00    +0.000 A 
ATOM     26  S   UNL     1      43.440   2.878  11.763  0.00  0.00    +0.000 S 
ATOM     27  C   UNL     1      44.359   3.119  10.350  0.00  0.00    +0.000 A 
ATOM     28  N   UNL     1      44.545   2.114   9.454  0.00  0.00    +0.000 NA
ATOM     29  C   UNL     1      45.293   2.428   8.448  0.00  0.00    +0.000 A 
ATOM     30  N   UNL     1      45.865   3.660   8.254  0.00  0.00    +0.000 N 
ATOM     31  C   UNL     1      45.674   4.712   9.114  0.00  0.00    +0.000 A 
ATOM     32  O   UNL     1      46.154   5.818   8.883  0.00  0.00    +0.000 OA
ATOM     33  C   UNL     1      44.854   4.408  10.269  0.00  0.00    +0.000 A 
ATOM     34  H   UNL     1      46.435   3.843   7.443  0.00  0.00    +0.000 HD
ENDBRANCH  21  24
ENDBRANCH   2  20
TORSDOF 6
ENDMDL
MODEL 9
REMARK VINA RESULT:    -6.492      4.968      9.442
REMARK INTER + INTRA:          -9.647
REMARK INTER:                  -8.379
REMARK INTRA:                  -1.268
REMARK UNBOUND:                -0.878
REMARK  Name = 
REMARK  7 active torsions:
REMARK  status: ('A' for Active; 'I' for Inactive)
REMARK    1  A    between atoms: C_1  and  C_2
REMARK    2  A    between atoms: C_2  and  N_3
REMARK    3  A    between atoms: C_2  and  C_16
REMARK    4  A    between atoms: C_4  and  C_6
REMARK    5  A    between atoms: C_19  and  C_20
REMARK    6  A    between atoms: C_20  and  N_21
REMARK    7  A    between atoms: C_22  and  C_24
REMARK                            x       y       z     vdW  Elec       q    Type
REMARK                         _______ _______ _______ _____ _____    ______ ____
ROOT
ATOM      1  C   UNL     1      47.687   5.099  19.033  0.00  0.00    +0.000 C 
ATOM      2  C   UNL     1      48.029   4.284  17.780  0.00  0.00    +0.000 C 
ENDROOT
BRANCH   2   3
ATOM      3  C   UNL     1      49.520   3.960  17.748  0.00  0.00    +0.000 A 
ATOM      4  C   UNL     1      50.475   4.942  18.043  0.00  0.00    +0.000 A 
ATOM      5  C   UNL     1      51.840   4.629  18.053  0.00  0.00    +0.000 A 
ATOM      6  C   UNL     1      52.283   3.332  17.760  0.00  0.00    +0.000 A 
ATOM      7  C   UNL     1      51.330   2.346  17.478  0.00  0.00    +0.000 A 
ATOM      8  C   UNL     1      49.968   2.658  17.465  0.00  0.00    +0.000 A 
BRANCH   6   9
ATOM      9  C   UNL     1      53.750   2.989  17.791  0.00  0.00    +0.000 C 
BRANCH   9  10
ATOM     10  N   UNL     1      53.967   1.589  17.506  0.00  0.00    +0.000 N 
ATOM     11  C   UNL     1      54.336   0.711  18.501  0.00  0.00    +0.000 C 
ATOM     12  O   UNL     1      54.508   1.046  19.669  0.00  0.00    +0.000 OA
ATOM     13  H   UNL     1      53.617   1.231  16.628  0.00  0.00    +0.000 HD
BRANCH  11  14
ATOM     14  C   UNL     1      54.494  -0.711  18.091  0.00  0.00    +0.000 A 
ATOM     15  C   UNL     1      54.979  -1.054  16.821  0.00  0.00    +0.000 A 
ATOM     16  C   UNL     1      55.118  -2.397  16.462  0.00  0.00    +0.000 A 
ATOM     17  C   UNL     1      54.782  -3.401  17.369  0.00  0.00    +0.000 A 
ATOM     18  C   UNL     1      54.318  -3.067  18.642  0.00  0.00    +0.000 A 
ATOM     19  C   UNL     1      54.180  -1.725  19.006  0.00  0.00    +0.000 A 
ENDBRANCH  11  14
ENDBRANCH   9  10
ENDBRANCH   6   9
ENDBRANCH   2   3
BRANCH   2  20
ATOM     20  N   UNL     1      47.682   4.975  16.548  0.00  0.00    +0.000 N 
ATOM     21  C   UNL     1      47.433   4.349  15.355  0.00  0.00    +0.000 C 
ATOM     22  O   UNL     1      47.433   3.131  15.222  0.00  0.00    +0.000 OA
ATOM     23  H   UNL     1      47.979   5.945  16.507  0.00  0.00    +0.000 HD
BRANCH  21  24
ATOM     24  C   UNL     1      47.074   5.239  14.242  0.00  0.00    +0.000 A 
ATOM     25  C   UNL     1      45.911   5.014  13.520  0.00  0.00    +0.000 A 
ATOM     26  S   UNL     1      45.624   6.183  12.310  0.00  0.00    +0.000 S 
ATOM     27  C   UNL     1      47.072   7.000  12.678  0.00  0.00    +0.000 A 
ATOM     28  N   UNL     1      47.449   8.106  11.983  0.00  0.00    +0.000 NA
ATOM     29  C   UNL     1      48.587   8.601  12.345  0.00  0.00    +0.000 A 
ATOM     30  N   UNL     1      49.378   8.093  13.344  0.00  0.00    +0.000 N 
ATOM     31  C   UNL     1      49.019   7.001  14.093  0.00  0.00    +0.000 A 
ATOM     32  O   UNL     1      49.722   6.604  15.018  0.00  0.00    +0.000 OA
ATOM     33  C   UNL     1      47.756   6.398  13.718  0.00  0.00    +0.000 A 
ATOM     34  H   UNL     1      50.254   8.530  13.583  0.00  0.00    +0.000 HD
ENDBRANCH  21  24
ENDBRANCH   2  20
TORSDOF 6
ENDMDL
