MODEL 1
REMARK VINA RESULT:    -8.202      0.000      0.000
REMARK INTER + INTRA:         -13.386
REMARK INTER:                 -12.038
REMARK INTRA:                  -1.348
REMARK UNBOUND:                -1.348
REMARK  Name = 
REMARK  9 active torsions:
REMARK  status: ('A' for Active; 'I' for Inactive)
REMARK    1  A    between atoms: C_1  and  O_2
REMARK    2  A    between atoms: O_2  and  C_3
REMARK    3  A    between atoms: C_10  and  C_11
REMARK    4  A    between atoms: N_13  and  C_14
REMARK    5  A    between atoms: C_14  and  C_15
REMARK    6  A    between atoms: C_18  and  C_19
REMARK    7  A    between atoms: C_19  and  N_20
REMARK    8  A    between atoms: N_20  and  C_21
REMARK    9  A    between atoms: C_21  and  C_22
REMARK                            x       y       z     vdW  Elec       q    Type
REMARK                         _______ _______ _______ _____ _____    ______ ____
ROOT
ATOM      1  C   UNL     1      47.850   7.123  13.244  0.00  0.00    +0.000 C 
ENDROOT
BRANCH   1   2
ATOM      2  C   UNL     1      46.758   6.216  12.728  0.00  0.00    +0.000 A 
ATOM      3  C   UNL     1      46.143   5.287  13.576  0.00  0.00    +0.000 A 
ATOM      4  C   UNL     1      45.134   4.442  13.096  0.00  0.00    +0.000 A 
ATOM      5  C   UNL     1      44.708   4.506  11.758  0.00  0.00    +0.000 A 
ATOM      6  C   UNL     1      45.351   5.413  10.906  0.00  0.00    +0.000 A 
ATOM      7  C   UNL     1      46.367   6.254  11.383  0.00  0.00    +0.000 A 
BRANCH   5   8
ATOM      8  C   UNL     1      43.616   3.595  11.214  0.00  0.00    +0.000 C 
BRANCH   8   9
ATOM      9  N   UNL     1      43.791   3.349   9.785  0.00  0.00    +0.000 NA
ATOM     10  H   UNL     1      44.350   4.106   9.395  0.00  0.00    +0.000 HD
BRANCH   9  11
ATOM     11  C   UNL     1      44.406   2.065   9.455  0.00  0.00    +0.000 C 
BRANCH  11  12
ATOM     12  C   UNL     1      45.717   2.340   8.680  0.00  0.00    +0.000 C 
ATOM     13  C   UNL     1      45.543   3.483   7.660  0.00  0.00    +0.000 C 
ATOM     14  C   UNL     1      46.830   3.756   6.889  0.00  0.00    +0.000 C 
ATOM     15  C   UNL     1      47.354   2.499   6.205  0.00  0.00    +0.000 C 
ATOM     16  C   UNL     1      47.530   1.357   7.200  0.00  0.00    +0.000 C 
ATOM     17  C   UNL     1      46.240   1.076   7.975  0.00  0.00    +0.000 C 
ENDBRANCH  11  12
ENDBRANCH   9  11
ENDBRANCH   8   9
ENDBRANCH   5   8
ENDBRANCH   1   2
BRANCH   1  20
ATOM     18  C   UNL     1      49.050   7.044  15.405  0.00  0.00    +0.000 C 
ATOM     19  O   UNL     1      50.143   6.976  14.857  0.00  0.00    +0.000 OA
ATOM     20  N   UNL     1      47.888   7.114  14.683  0.00  0.00    +0.000 N 
ATOM     21  H   UNL     1      46.999   7.070  15.162  0.00  0.00    +0.000 HD
BRANCH  18  29
ATOM     22  C   UNL     1      48.821   4.567  17.786  0.00  0.00    +0.000 A 
ATOM     23  N   UNL     1      48.693   3.816  18.898  0.00  0.00    +0.000 NA
ATOM     24  C   UNL     1      48.546   4.443  20.065  0.00  0.00    +0.000 A 
ATOM     25  N   UNL     1      48.518   5.757  20.269  0.00  0.00    +0.000 NA
ATOM     26  C   UNL     1      48.657   6.468  19.137  0.00  0.00    +0.000 A 
ATOM     27  S   UNL     1      48.657   8.165  19.210  0.00  0.00    +0.000 S 
ATOM     28  C   UNL     1      48.849   8.287  17.524  0.00  0.00    +0.000 A 
ATOM     29  C   UNL     1      48.916   7.061  16.875  0.00  0.00    +0.000 A 
ATOM     30  C   UNL     1      48.813   5.971  17.847  0.00  0.00    +0.000 A 
BRANCH  22  32
ATOM     31  C   UNL     1      47.843   3.244  16.133  0.00  0.00    +0.000 C 
ATOM     32  O   UNL     1      49.019   3.907  16.593  0.00  0.00    +0.000 OA
ENDBRANCH  22  32
ENDBRANCH  18  29
ENDBRANCH   1  20
TORSDOF 8
ENDMDL
MODEL 2
REMARK VINA RESULT:    -7.677      1.772      2.934
REMARK INTER + INTRA:         -12.616
REMARK INTER:                 -11.280
REMARK INTRA:                  -1.336
REMARK UNBOUND:                -1.348
REMARK  Name = 
REMARK  9 active torsions:
REMARK  status: ('A' for Active; 'I' for Inactive)
REMARK    1  A    between atoms: C_1  and  O_2
REMARK    2  A    between atoms: O_2  and  C_3
REMARK    3  A    between atoms: C_10  and  C_11
REMARK    4  A    between atoms: N_13  and  C_14
REMARK    5  A    between atoms: C_14  and  C_15
REMARK    6  A    between atoms: C_18  and  C_19
REMARK    7  A    between atoms: C_19  and  N_20
REMARK    8  A    between atoms: N_20  and  C_21
REMARK    9  A    between atoms: C_21  and  C_22
REMARK                            x       y       z     vdW  Elec       q    Type
REMARK                         _______ _______ _______ _____ _____    ______ ____
ROOT
ATOM      1  C   UNL     1      48.494   6.355  14.130  0.00  0.00    +0.000 C 
ENDROOT
BRANCH   1   2
ATOM      2  C   UNL     1      47.268   6.031  13.311  0.00  0.00    +0.000 A 
ATOM      3  C   UNL     1      46.437   4.961  13.663  0.00  0.00    +0.000 A 
ATOM      4  C   UNL     1      45.303   4.657  12.900  0.00  0.00    +0.000 A 
ATOM      5  C   UNL     1      44.962   5.419  11.769  0.00  0.00    +0.000 A 
ATOM      6  C   UNL     1      45.815   6.468  11.402  0.00  0.00    +0.000 A 
ATOM      7  C   UNL     1      46.957   6.768  12.160  0.00  0.00    +0.000 A 
BRANCH   5   8
ATOM      8  C   UNL     1      43.735   5.105  10.924  0.00  0.00    +0.000 C 
BRANCH   8   9
ATOM      9  N   UNL     1      44.112   4.573   9.617  0.00  0.00    +0.000 NA
ATOM     10  H   UNL     1      44.964   5.041   9.312  0.00  0.00    +0.000 HD
BRANCH   9  11
ATOM     11  C   UNL     1      44.308   3.125   9.579  0.00  0.00    +0.000 C 
BRANCH  11  12
ATOM     12  C   UNL     1      45.130   2.779   8.313  0.00  0.00    +0.000 C 
ATOM     13  C   UNL     1      46.000   1.526   8.529  0.00  0.00    +0.000 C 
ATOM     14  C   UNL     1      46.817   1.183   7.287  0.00  0.00    +0.000 C 
ATOM     15  C   UNL     1      47.671   2.360   6.833  0.00  0.00    +0.000 C 
ATOM     16  C   UNL     1      46.825   3.610   6.617  0.00  0.00    +0.000 C 
ATOM     17  C   UNL     1      46.005   3.961   7.861  0.00  0.00    +0.000 C 
ENDBRANCH  11  12
ENDBRANCH   9  11
ENDBRANCH   8   9
ENDBRANCH   5   8
ENDBRANCH   1   2
BRANCH   1  20
ATOM     18  C   UNL     1      48.781   6.117  16.575  0.00  0.00    +0.000 C 
ATOM     19  O   UNL     1      49.709   5.328  16.443  0.00  0.00    +0.000 OA
ATOM     20  N   UNL     1      48.139   6.656  15.493  0.00  0.00    +0.000 N 
ATOM     21  H   UNL     1      47.315   7.226  15.632  0.00  0.00    +0.000 HD
BRANCH  18  29
ATOM     22  C   UNL     1      47.932   9.171  17.920  0.00  0.00    +0.000 A 
ATOM     23  N   UNL     1      47.568  10.217  18.688  0.00  0.00    +0.000 NA
ATOM     24  C   UNL     1      47.246   9.979  19.960  0.00  0.00    +0.000 A 
ATOM     25  N   UNL     1      47.233   8.800  20.575  0.00  0.00    +0.000 NA
ATOM     26  C   UNL     1      47.593   7.785  19.772  0.00  0.00    +0.000 A 
ATOM     27  S   UNL     1      47.621   6.202  20.388  0.00  0.00    +0.000 S 
ATOM     28  C   UNL     1      48.140   5.576  18.893  0.00  0.00    +0.000 A 
ATOM     29  C   UNL     1      48.302   6.540  17.906  0.00  0.00    +0.000 A 
ATOM     30  C   UNL     1      47.962   7.863  18.432  0.00  0.00    +0.000 A 
BRANCH  22  32
ATOM     31  C   UNL     1      49.565   9.844  16.397  0.00  0.00    +0.000 C 
ATOM     32  O   UNL     1      48.216   9.423  16.596  0.00  0.00    +0.000 OA
ENDBRANCH  22  32
ENDBRANCH  18  29
ENDBRANCH   1  20
TORSDOF 8
ENDMDL
MODEL 3
REMARK VINA RESULT:    -7.518      1.686      3.324
REMARK INTER + INTRA:         -12.382
REMARK INTER:                 -11.116
REMARK INTRA:                  -1.266
REMARK UNBOUND:                -1.348
REMARK  Name = 
REMARK  9 active torsions:
REMARK  status: ('A' for Active; 'I' for Inactive)
REMARK    1  A    between atoms: C_1  and  O_2
REMARK    2  A    between atoms: O_2  and  C_3
REMARK    3  A    between atoms: C_10  and  C_11
REMARK    4  A    between atoms: N_13  and  C_14
REMARK    5  A    between atoms: C_14  and  C_15
REMARK    6  A    between atoms: C_18  and  C_19
REMARK    7  A    between atoms: C_19  and  N_20
REMARK    8  A    between atoms: N_20  and  C_21
REMARK    9  A    between atoms: C_21  and  C_22
REMARK                            x       y       z     vdW  Elec       q    Type
REMARK                         _______ _______ _______ _____ _____    ______ ____
ROOT
ATOM      1  C   UNL     1      47.191   4.122  14.784  0.00  0.00    +0.000 C 
ENDROOT
BRANCH   1   2
ATOM      2  C   UNL     1      46.223   4.392  13.657  0.00  0.00    +0.000 A 
ATOM      3  C   UNL     1      45.829   5.700  13.353  0.00  0.00    +0.000 A 
ATOM      4  C   UNL     1      44.927   5.949  12.311  0.00  0.00    +0.000 A 
ATOM      5  C   UNL     1      44.400   4.899  11.538  0.00  0.00    +0.000 A 
ATOM      6  C   UNL     1      44.773   3.590  11.869  0.00  0.00    +0.000 A 
ATOM      7  C   UNL     1      45.668   3.338  12.918  0.00  0.00    +0.000 A 
BRANCH   5   8
ATOM      8  C   UNL     1      43.417   5.147  10.403  0.00  0.00    +0.000 C 
BRANCH   8   9
ATOM      9  N   UNL     1      43.783   4.392   9.207  0.00  0.00    +0.000 NA
ATOM     10  H   UNL     1      43.142   4.646   8.458  0.00  0.00    +0.000 HD
BRANCH   9  11
ATOM     11  C   UNL     1      45.161   4.585   8.760  0.00  0.00    +0.000 C 
BRANCH  11  12
ATOM     12  C   UNL     1      45.561   3.373   7.885  0.00  0.00    +0.000 C 
ATOM     13  C   UNL     1      45.905   2.142   8.746  0.00  0.00    +0.000 C 
ATOM     14  C   UNL     1      46.305   0.945   7.890  0.00  0.00    +0.000 C 
ATOM     15  C   UNL     1      47.457   1.284   6.952  0.00  0.00    +0.000 C 
ATOM     16  C   UNL     1      47.133   2.502   6.093  0.00  0.00    +0.000 C 
ATOM     17  C   UNL     1      46.734   3.707   6.947  0.00  0.00    +0.000 C 
ENDBRANCH  11  12
ENDBRANCH   9  11
ENDBRANCH   8   9
ENDBRANCH   5   8
ENDBRANCH   1   2
BRANCH   1  20
ATOM     18  C   UNL     1      48.535   5.431  16.396  0.00  0.00    +0.000 C 
ATOM     19  O   UNL     1      49.229   4.465  16.684  0.00  0.00    +0.000 OA
ATOM     20  N   UNL     1      47.520   5.338  15.482  0.00  0.00    +0.000 N 
ATOM     21  H   UNL     1      46.902   6.126  15.338  0.00  0.00    +0.000 HD
BRANCH  18  29
ATOM     22  C   UNL     1      48.762   8.621  15.119  0.00  0.00    +0.000 A 
ATOM     23  N   UNL     1      48.911   9.941  14.890  0.00  0.00    +0.000 NA
ATOM     24  C   UNL     1      49.156  10.736  15.932  0.00  0.00    +0.000 A 
ATOM     25  N   UNL     1      49.266  10.371  17.206  0.00  0.00    +0.000 NA
ATOM     26  C   UNL     1      49.103   9.051  17.392  0.00  0.00    +0.000 A 
ATOM     27  S   UNL     1      49.198   8.409  18.962  0.00  0.00    +0.000 S 
ATOM     28  C   UNL     1      48.920   6.832  18.388  0.00  0.00    +0.000 A 
ATOM     29  C   UNL     1      48.751   6.756  17.011  0.00  0.00    +0.000 A 
ATOM     30  C   UNL     1      48.848   8.091  16.418  0.00  0.00    +0.000 A 
BRANCH  22  32
ATOM     31  C   UNL     1      49.577   7.633  13.170  0.00  0.00    +0.000 C 
ATOM     32  O   UNL     1      48.462   7.818  14.040  0.00  0.00    +0.000 OA
ENDBRANCH  22  32
ENDBRANCH  18  29
ENDBRANCH   1  20
TORSDOF 8
ENDMDL
MODEL 4
REMARK VINA RESULT:    -7.312      1.530      2.108
REMARK INTER + INTRA:         -12.080
REMARK INTER:                 -10.734
REMARK INTRA:                  -1.346
REMARK UNBOUND:                -1.348
REMARK  Name = 
REMARK  9 active torsions:
REMARK  status: ('A' for Active; 'I' for Inactive)
REMARK    1  A    between atoms: C_1  and  O_2
REMARK    2  A    between atoms: O_2  and  C_3
REMARK    3  A    between atoms: C_10  and  C_11
REMARK    4  A    between atoms: N_13  and  C_14
REMARK    5  A    between atoms: C_14  and  C_15
REMARK    6  A    between atoms: C_18  and  C_19
REMARK    7  A    between atoms: C_19  and  N_20
REMARK    8  A    between atoms: N_20  and  C_21
REMARK    9  A    between atoms: C_21  and  C_22
REMARK                            x       y       z     vdW  Elec       q    Type
REMARK                         _______ _______ _______ _____ _____    ______ ____
ROOT
ATOM      1  C   UNL     1      48.455   8.829  13.830  0.00  0.00    +0.000 C 
ENDROOT
BRANCH   1   2
ATOM      2  C   UNL     1      47.399   8.064  13.069  0.00  0.00    +0.000 A 
ATOM      3  C   UNL     1      46.071   8.505  13.051  0.00  0.00    +0.000 A 
ATOM      4  C   UNL     1      45.090   7.792  12.350  0.00  0.00    +0.000 A 
ATOM      5  C   UNL     1      45.411   6.622  11.640  0.00  0.00    +0.000 A 
ATOM      6  C   UNL     1      46.735   6.166  11.689  0.00  0.00    +0.000 A 
ATOM      7  C   UNL     1      47.716   6.874  12.399  0.00  0.00    +0.000 A 
BRANCH   5   8
ATOM      8  C   UNL     1      44.362   5.829  10.874  0.00  0.00    +0.000 C 
BRANCH   8   9
ATOM      9  N   UNL     1      44.964   5.059   9.789  0.00  0.00    +0.000 NA
ATOM     10  H   UNL     1      45.883   4.741  10.092  0.00  0.00    +0.000 HD
BRANCH   9  11
ATOM     11  C   UNL     1      44.174   3.915   9.338  0.00  0.00    +0.000 C 
BRANCH  11  12
ATOM     12  C   UNL     1      44.992   3.151   8.270  0.00  0.00    +0.000 C 
ATOM     13  C   UNL     1      45.604   1.858   8.843  0.00  0.00    +0.000 C 
ATOM     14  C   UNL     1      46.416   1.102   7.797  0.00  0.00    +0.000 C 
ATOM     15  C   UNL     1      47.498   1.982   7.181  0.00  0.00    +0.000 C 
ATOM     16  C   UNL     1      46.909   3.267   6.610  0.00  0.00    +0.000 C 
ATOM     17  C   UNL     1      46.095   4.032   7.656  0.00  0.00    +0.000 C 
ENDBRANCH  11  12
ENDBRANCH   9  11
ENDBRANCH   8   9
ENDBRANCH   5   8
ENDBRANCH   1   2
BRANCH   1  20
ATOM     18  C   UNL     1      48.591   8.383  16.259  0.00  0.00    +0.000 C 
ATOM     19  O   UNL     1      47.878   9.341  16.529  0.00  0.00    +0.000 OA
ATOM     20  N   UNL     1      48.918   8.075  14.965  0.00  0.00    +0.000 N 
ATOM     21  H   UNL     1      49.587   7.339  14.780  0.00  0.00    +0.000 HD
BRANCH  18  29
ATOM     22  C   UNL     1      48.829   4.963  16.580  0.00  0.00    +0.000 A 
ATOM     23  N   UNL     1      49.025   3.686  16.965  0.00  0.00    +0.000 NA
ATOM     24  C   UNL     1      49.580   3.468  18.157  0.00  0.00    +0.000 A 
ATOM     25  N   UNL     1      49.982   4.386  19.031  0.00  0.00    +0.000 NA
ATOM     26  C   UNL     1      49.776   5.644  18.606  0.00  0.00    +0.000 A 
ATOM     27  S   UNL     1      50.241   6.947  19.591  0.00  0.00    +0.000 S 
ATOM     28  C   UNL     1      49.683   8.076  18.447  0.00  0.00    +0.000 A 
ATOM     29  C   UNL     1      49.138   7.499  17.307  0.00  0.00    +0.000 A 
ATOM     30  C   UNL     1      49.207   6.040  17.399  0.00  0.00    +0.000 A 
BRANCH  22  32
ATOM     31  C   UNL     1      47.051   4.505  15.141  0.00  0.00    +0.000 C 
ATOM     32  O   UNL     1      48.297   5.174  15.326  0.00  0.00    +0.000 OA
ENDBRANCH  22  32
ENDBRANCH  18  29
ENDBRANCH   1  20
TORSDOF 8
ENDMDL
MODEL 5
REMARK VINA RESULT:    -7.076      1.604      2.491
REMARK INTER + INTRA:         -11.733
REMARK INTER:                 -10.498
REMARK INTRA:                  -1.235
REMARK UNBOUND:                -1.348
REMARK  Name = 
REMARK  9 active torsions:
REMARK  status: ('A' for Active; 'I' for Inactive)
REMARK    1  A    between atoms: C_1  and  O_2
REMARK    2  A    between atoms: O_2  and  C_3
REMARK    3  A    between atoms: C_10  and  C_11
REMARK    4  A    between atoms: N_13  and  C_14
REMARK    5  A    between atoms: C_14  and  C_15
REMARK    6  A    between atoms: C_18  and  C_19
REMARK    7  A    between atoms: C_19  and  N_20
REMARK    8  A    between atoms: N_20  and  C_21
REMARK    9  A    between atoms: C_21  and  C_22
REMARK                            x       y       z     vdW  Elec       q    Type
REMARK                         _______ _______ _______ _____ _____    ______ ____
ROOT
ATOM      1  C   UNL     1      47.357   4.196  14.816  0.00  0.00    +0.000 C 
ENDROOT
BRANCH   1   2
ATOM      2  C   UNL     1      46.390   4.366  13.669  0.00  0.00    +0.000 A 
ATOM      3  C   UNL     1      45.921   5.635  13.313  0.00  0.00    +0.000 A 
ATOM      4  C   UNL     1      45.019   5.792  12.253  0.00  0.00    +0.000 A 
ATOM      5  C   UNL     1      44.567   4.685  11.513  0.00  0.00    +0.000 A 
ATOM      6  C   UNL     1      45.013   3.413  11.896  0.00  0.00    +0.000 A 
ATOM      7  C   UNL     1      45.909   3.254  12.963  0.00  0.00    +0.000 A 
BRANCH   5   8
ATOM      8  C   UNL     1      43.585   4.831  10.359  0.00  0.00    +0.000 C 
BRANCH   8   9
ATOM      9  N   UNL     1      44.037   4.097   9.180  0.00  0.00    +0.000 NA
ATOM     10  H   UNL     1      43.275   4.074   8.504  0.00  0.00    +0.000 HD
BRANCH   9  11
ATOM     11  C   UNL     1      45.239   4.634   8.547  0.00  0.00    +0.000 C 
BRANCH  11  12
ATOM     12  C   UNL     1      46.194   3.456   8.239  0.00  0.00    +0.000 C 
ATOM     13  C   UNL     1      46.815   3.583   6.834  0.00  0.00    +0.000 C 
ATOM     14  C   UNL     1      47.753   2.422   6.522  0.00  0.00    +0.000 C 
ATOM     15  C   UNL     1      47.056   1.077   6.682  0.00  0.00    +0.000 C 
ATOM     16  C   UNL     1      46.434   0.935   8.068  0.00  0.00    +0.000 C 
ATOM     17  C   UNL     1      45.489   2.096   8.385  0.00  0.00    +0.000 C 
ENDBRANCH  11  12
ENDBRANCH   9  11
ENDBRANCH   8   9
ENDBRANCH   5   8
ENDBRANCH   1   2
BRANCH   1  20
ATOM     18  C   UNL     1      48.574   5.671  16.385  0.00  0.00    +0.000 C 
ATOM     19  O   UNL     1      49.430   4.823  16.603  0.00  0.00    +0.000 OA
ATOM     20  N   UNL     1      47.532   5.435  15.529  0.00  0.00    +0.000 N 
ATOM     21  H   UNL     1      46.789   6.117  15.445  0.00  0.00    +0.000 HD
BRANCH  18  29
ATOM     22  C   UNL     1      47.773   6.804  19.537  0.00  0.00    +0.000 A 
ATOM     23  N   UNL     1      47.519   7.504  20.660  0.00  0.00    +0.000 NA
ATOM     24  C   UNL     1      47.723   8.821  20.638  0.00  0.00    +0.000 A 
ATOM     25  N   UNL     1      48.168   9.544  19.615  0.00  0.00    +0.000 NA
ATOM     26  C   UNL     1      48.417   8.808  18.519  0.00  0.00    +0.000 A 
ATOM     27  S   UNL     1      49.005   9.566  17.117  0.00  0.00    +0.000 S 
ATOM     28  C   UNL     1      49.042   8.088  16.274  0.00  0.00    +0.000 A 
ATOM     29  C   UNL     1      48.615   7.001  17.025  0.00  0.00    +0.000 A 
ATOM     30  C   UNL     1      48.253   7.433  18.376  0.00  0.00    +0.000 A 
BRANCH  22  32
ATOM     31  C   UNL     1      48.743   4.764  20.119  0.00  0.00    +0.000 C 
ATOM     32  O   UNL     1      47.603   5.437  19.588  0.00  0.00    +0.000 OA
ENDBRANCH  22  32
ENDBRANCH  18  29
ENDBRANCH   1  20
TORSDOF 8
ENDMDL
MODEL 6
REMARK VINA RESULT:    -6.679      3.262      5.346
REMARK INTER + INTRA:         -11.150
REMARK INTER:                  -9.494
REMARK INTRA:                  -1.656
REMARK UNBOUND:                -1.348
REMARK  Name = 
REMARK  9 active torsions:
REMARK  status: ('A' for Active; 'I' for Inactive)
REMARK    1  A    between atoms: C_1  and  O_2
REMARK    2  A    between atoms: O_2  and  C_3
REMARK    3  A    between atoms: C_10  and  C_11
REMARK    4  A    between atoms: N_13  and  C_14
REMARK    5  A    between atoms: C_14  and  C_15
REMARK    6  A    between atoms: C_18  and  C_19
REMARK    7  A    between atoms: C_19  and  N_20
REMARK    8  A    between atoms: N_20  and  C_21
REMARK    9  A    between atoms: C_21  and  C_22
REMARK                            x       y       z     vdW  Elec       q    Type
REMARK                         _______ _______ _______ _____ _____    ______ ____
ROOT
ATOM      1  C   UNL     1      47.705   3.649  17.039  0.00  0.00    +0.000 C 
ENDROOT
BRANCH   1   2
ATOM      2  C   UNL     1      47.695   4.519  15.804  0.00  0.00    +0.000 A 
ATOM      3  C   UNL     1      47.140   4.052  14.607  0.00  0.00    +0.000 A 
ATOM      4  C   UNL     1      47.136   4.857  13.461  0.00  0.00    +0.000 A 
ATOM      5  C   UNL     1      47.679   6.153  13.481  0.00  0.00    +0.000 A 
ATOM      6  C   UNL     1      48.264   6.602  14.672  0.00  0.00    +0.000 A 
ATOM      7  C   UNL     1      48.277   5.794  15.818  0.00  0.00    +0.000 A 
BRANCH   5   8
ATOM      8  C   UNL     1      47.688   7.044  12.246  0.00  0.00    +0.000 C 
BRANCH   8   9
ATOM      9  N   UNL     1      46.679   6.624  11.279  0.00  0.00    +0.000 NA
ATOM     10  H   UNL     1      46.620   5.607  11.297  0.00  0.00    +0.000 HD
BRANCH   9  11
ATOM     11  C   UNL     1      45.350   7.195  11.492  0.00  0.00    +0.000 C 
BRANCH  11  12
ATOM     12  C   UNL     1      44.323   6.038  11.517  0.00  0.00    +0.000 C 
ATOM     13  C   UNL     1      43.989   5.609  12.959  0.00  0.00    +0.000 C 
ATOM     14  C   UNL     1      42.981   4.465  12.992  0.00  0.00    +0.000 C 
ATOM     15  C   UNL     1      43.456   3.272  12.172  0.00  0.00    +0.000 C 
ATOM     16  C   UNL     1      43.792   3.681  10.741  0.00  0.00    +0.000 C 
ATOM     17  C   UNL     1      44.806   4.826  10.702  0.00  0.00    +0.000 C 
ENDBRANCH  11  12
ENDBRANCH   9  11
ENDBRANCH   8   9
ENDBRANCH   5   8
ENDBRANCH   1   2
BRANCH   1  20
ATOM     18  C   UNL     1      49.837   2.405  16.885  0.00  0.00    +0.000 C 
ATOM     19  O   UNL     1      49.425   1.707  15.967  0.00  0.00    +0.000 OA
ATOM     20  N   UNL     1      49.053   3.370  17.460  0.00  0.00    +0.000 N 
ATOM     21  H   UNL     1      49.386   3.862  18.278  0.00  0.00    +0.000 HD
BRANCH  18  29
ATOM     22  C   UNL     1      52.235   4.655  17.908  0.00  0.00    +0.000 A 
ATOM     23  N   UNL     1      53.335   5.303  18.341  0.00  0.00    +0.000 NA
ATOM     24  C   UNL     1      54.394   4.573  18.694  0.00  0.00    +0.000 A 
ATOM     25  N   UNL     1      54.493   3.247  18.677  0.00  0.00    +0.000 NA
ATOM     26  C   UNL     1      53.373   2.642  18.247  0.00  0.00    +0.000 A 
ATOM     27  S   UNL     1      53.316   0.946  18.172  0.00  0.00    +0.000 S 
ATOM     28  C   UNL     1      51.722   0.976  17.579  0.00  0.00    +0.000 A 
ATOM     29  C   UNL     1      51.203   2.255  17.425  0.00  0.00    +0.000 A 
ATOM     30  C   UNL     1      52.191   3.252  17.839  0.00  0.00    +0.000 A 
BRANCH  22  32
ATOM     31  C   UNL     1      50.807   6.360  18.612  0.00  0.00    +0.000 C 
ATOM     32  O   UNL     1      51.132   5.418  17.591  0.00  0.00    +0.000 OA
ENDBRANCH  22  32
ENDBRANCH  18  29
ENDBRANCH   1  20
TORSDOF 8
ENDMDL
MODEL 7
REMARK VINA RESULT:    -6.417      3.444      8.468
REMARK INTER + INTRA:         -10.766
REMARK INTER:                  -8.505
REMARK INTRA:                  -2.261
REMARK UNBOUND:                -1.348
REMARK  Name = 
REMARK  9 active torsions:
REMARK  status: ('A' for Active; 'I' for Inactive)
REMARK    1  A    between atoms: C_1  and  O_2
REMARK    2  A    between atoms: O_2  and  C_3
REMARK    3  A    between atoms: C_10  and  C_11
REMARK    4  A    between atoms: N_13  and  C_14
REMARK    5  A    between atoms: C_14  and  C_15
REMARK    6  A    between atoms: C_18  and  C_19
REMARK    7  A    between atoms: C_19  and  N_20
REMARK    8  A    between atoms: N_20  and  C_21
REMARK    9  A    between atoms: C_21  and  C_22
REMARK                            x       y       z     vdW  Elec       q    Type
REMARK                         _______ _______ _______ _____ _____    ______ ____
ROOT
ATOM      1  C   UNL     1      48.403   8.356  14.606  0.00  0.00    +0.000 C 
ENDROOT
BRANCH   1   2
ATOM      2  C   UNL     1      49.010   7.873  15.901  0.00  0.00    +0.000 A 
ATOM      3  C   UNL     1      48.533   8.342  17.131  0.00  0.00    +0.000 A 
ATOM      4  C   UNL     1      49.099   7.899  18.333  0.00  0.00    +0.000 A 
ATOM      5  C   UNL     1      50.154   6.969  18.340  0.00  0.00    +0.000 A 
ATOM      6  C   UNL     1      50.650   6.530  17.105  0.00  0.00    +0.000 A 
ATOM      7  C   UNL     1      50.090   6.979  15.901  0.00  0.00    +0.000 A 
BRANCH   5   8
ATOM      8  C   UNL     1      50.787   6.476  19.633  0.00  0.00    +0.000 C 
BRANCH   8   9
ATOM      9  N   UNL     1      50.539   5.052  19.838  0.00  0.00    +0.000 NA
ATOM     10  H   UNL     1      51.155   4.721  20.579  0.00  0.00    +0.000 HD
BRANCH   9  11
ATOM     11  C   UNL     1      49.155   4.712  20.164  0.00  0.00    +0.000 C 
BRANCH  11  12
ATOM     12  C   UNL     1      48.593   3.825  19.026  0.00  0.00    +0.000 C 
ATOM     13  C   UNL     1      49.718   3.276  18.128  0.00  0.00    +0.000 C 
ATOM     14  C   UNL     1      49.171   2.405  17.002  0.00  0.00    +0.000 C 
ATOM     15  C   UNL     1      48.132   3.148  16.170  0.00  0.00    +0.000 C 
ATOM     16  C   UNL     1      47.012   3.700  17.045  0.00  0.00    +0.000 C 
ATOM     17  C   UNL     1      47.555   4.577  18.175  0.00  0.00    +0.000 C 
ENDBRANCH  11  12
ENDBRANCH   9  11
ENDBRANCH   8   9
ENDBRANCH   5   8
ENDBRANCH   1   2
BRANCH   1  20
ATOM     18  C   UNL     1      47.704   6.401  13.261  0.00  0.00    +0.000 C 
ATOM     19  O   UNL     1      48.839   6.219  12.838  0.00  0.00    +0.000 OA
ATOM     20  N   UNL     1      47.416   7.425  14.122  0.00  0.00    +0.000 N 
ATOM     21  H   UNL     1      46.454   7.610  14.376  0.00  0.00    +0.000 HD
BRANCH  18  29
ATOM     22  C   UNL     1      44.613   7.002  11.866  0.00  0.00    +0.000 A 
ATOM     23  N   UNL     1      43.365   6.957  11.360  0.00  0.00    +0.000 NA
ATOM     24  C   UNL     1      42.763   5.770  11.280  0.00  0.00    +0.000 A 
ATOM     25  N   UNL     1      43.265   4.593  11.642  0.00  0.00    +0.000 NA
ATOM     26  C   UNL     1      44.512   4.682  12.133  0.00  0.00    +0.000 A 
ATOM     27  S   UNL     1      45.315   3.272  12.636  0.00  0.00    +0.000 S 
ATOM     28  C   UNL     1      46.694   4.159  13.089  0.00  0.00    +0.000 A 
ATOM     29  C   UNL     1      46.579   5.527  12.874  0.00  0.00    +0.000 A 
ATOM     30  C   UNL     1      45.274   5.836  12.288  0.00  0.00    +0.000 A 
BRANCH  22  32
ATOM     31  C   UNL     1      44.472   9.254  11.274  0.00  0.00    +0.000 C 
ATOM     32  O   UNL     1      45.242   8.228  11.900  0.00  0.00    +0.000 OA
ENDBRANCH  22  32
ENDBRANCH  18  29
ENDBRANCH   1  20
TORSDOF 8
ENDMDL
MODEL 8
REMARK VINA RESULT:    -5.877      3.649      8.778
REMARK INTER + INTRA:          -9.974
REMARK INTER:                  -7.869
REMARK INTRA:                  -2.105
REMARK UNBOUND:                -1.348
REMARK  Name = 
REMARK  9 active torsions:
REMARK  status: ('A' for Active; 'I' for Inactive)
REMARK    1  A    between atoms: C_1  and  O_2
REMARK    2  A    between atoms: O_2  and  C_3
REMARK    3  A    between atoms: C_10  and  C_11
REMARK    4  A    between atoms: N_13  and  C_14
REMARK    5  A    between atoms: C_14  and  C_15
REMARK    6  A    between atoms: C_18  and  C_19
REMARK    7  A    between atoms: C_19  and  N_20
REMARK    8  A    between atoms: N_20  and  C_21
REMARK    9  A    between atoms: C_21  and  C_22
REMARK                            x       y       z     vdW  Elec       q    Type
REMARK                         _______ _______ _______ _____ _____    ______ ____
ROOT
ATOM      1  C   UNL     1      48.745   8.275  15.488  0.00  0.00    +0.000 C 
ENDROOT
BRANCH   1   2
ATOM      2  C   UNL     1      48.704   7.416  16.729  0.00  0.00    +0.000 A 
ATOM      3  C   UNL     1      48.883   6.030  16.643  0.00  0.00    +0.000 A 
ATOM      4  C   UNL     1      48.839   5.231  17.792  0.00  0.00    +0.000 A 
ATOM      5  C   UNL     1      48.623   5.796  19.062  0.00  0.00    +0.000 A 
ATOM      6  C   UNL     1      48.410   7.179  19.138  0.00  0.00    +0.000 A 
ATOM      7  C   UNL     1      48.445   7.979  17.986  0.00  0.00    +0.000 A 
BRANCH   5   8
ATOM      8  C   UNL     1      48.568   4.948  20.324  0.00  0.00    +0.000 C 
BRANCH   8   9
ATOM      9  N   UNL     1      49.852   4.306  20.590  0.00  0.00    +0.000 NA
ATOM     10  H   UNL     1      50.159   3.836  19.740  0.00  0.00    +0.000 HD
BRANCH   9  11
ATOM     11  C   UNL     1      50.903   5.207  21.059  0.00  0.00    +0.000 C 
BRANCH  11  12
ATOM     12  C   UNL     1      52.018   5.251  19.987  0.00  0.00    +0.000 C 
ATOM     13  C   UNL     1      52.024   6.594  19.231  0.00  0.00    +0.000 C 
ATOM     14  C   UNL     1      53.118   6.643  18.169  0.00  0.00    +0.000 C 
ATOM     15  C   UNL     1      53.008   5.477  17.194  0.00  0.00    +0.000 C 
ATOM     16  C   UNL     1      52.999   4.139  17.927  0.00  0.00    +0.000 C 
ATOM     17  C   UNL     1      51.901   4.084  18.992  0.00  0.00    +0.000 C 
ENDBRANCH  11  12
ENDBRANCH   9  11
ENDBRANCH   8   9
ENDBRANCH   5   8
ENDBRANCH   1   2
BRANCH   1  20
ATOM     18  C   UNL     1      47.561   7.320  13.538  0.00  0.00    +0.000 C 
ATOM     19  O   UNL     1      48.575   6.772  13.124  0.00  0.00    +0.000 OA
ATOM     20  N   UNL     1      47.569   8.072  14.682  0.00  0.00    +0.000 N 
ATOM     21  H   UNL     1      46.742   8.591  14.945  0.00  0.00    +0.000 HD
BRANCH  18  29
ATOM     22  C   UNL     1      45.158   4.856  13.418  0.00  0.00    +0.000 A 
ATOM     23  N   UNL     1      44.094   4.064  13.178  0.00  0.00    +0.000 NA
ATOM     24  C   UNL     1      43.160   4.506  12.335  0.00  0.00    +0.000 A 
ATOM     25  N   UNL     1      43.149   5.670  11.693  0.00  0.00    +0.000 NA
ATOM     26  C   UNL     1      44.222   6.431  11.966  0.00  0.00    +0.000 A 
ATOM     27  S   UNL     1      44.368   7.960  11.241  0.00  0.00    +0.000 S 
ATOM     28  C   UNL     1      45.854   8.243  12.020  0.00  0.00    +0.000 A 
ATOM     29  C   UNL     1      46.268   7.199  12.836  0.00  0.00    +0.000 A 
ATOM     30  C   UNL     1      45.281   6.118  12.812  0.00  0.00    +0.000 A 
BRANCH  22  32
ATOM     31  C   UNL     1      47.074   3.564  13.730  0.00  0.00    +0.000 C 
ATOM     32  O   UNL     1      46.092   4.409  14.327  0.00  0.00    +0.000 OA
ENDBRANCH  22  32
ENDBRANCH  18  29
ENDBRANCH   1  20
TORSDOF 8
ENDMDL
MODEL 9
REMARK VINA RESULT:    -5.658      3.474      4.582
REMARK INTER + INTRA:          -9.651
REMARK INTER:                  -8.748
REMARK INTRA:                  -0.904
REMARK UNBOUND:                -1.348
REMARK  Name = 
REMARK  9 active torsions:
REMARK  status: ('A' for Active; 'I' for Inactive)
REMARK    1  A    between atoms: C_1  and  O_2
REMARK    2  A    between atoms: O_2  and  C_3
REMARK    3  A    between atoms: C_10  and  C_11
REMARK    4  A    between atoms: N_13  and  C_14
REMARK    5  A    between atoms: C_14  and  C_15
REMARK    6  A    between atoms: C_18  and  C_19
REMARK    7  A    between atoms: C_19  and  N_20
REMARK    8  A    between atoms: N_20  and  C_21
REMARK    9  A    between atoms: C_21  and  C_22
REMARK                            x       y       z     vdW  Elec       q    Type
REMARK                         _______ _______ _______ _____ _____    ______ ____
ROOT
ATOM      1  C   UNL     1      48.062   3.243  17.250  0.00  0.00    +0.000 C 
ENDROOT
BRANCH   1   2
ATOM      2  C   UNL     1      47.741   3.961  15.961  0.00  0.00    +0.000 A 
ATOM      3  C   UNL     1      47.970   5.336  15.834  0.00  0.00    +0.000 A 
ATOM      4  C   UNL     1      47.666   6.003  14.641  0.00  0.00    +0.000 A 
ATOM      5  C   UNL     1      47.133   5.313  13.538  0.00  0.00    +0.000 A 
ATOM      6  C   UNL     1      46.874   3.944  13.682  0.00  0.00    +0.000 A 
ATOM      7  C   UNL     1      47.168   3.277  14.880  0.00  0.00    +0.000 A 
BRANCH   5   8
ATOM      8  C   UNL     1      46.792   6.018  12.232  0.00  0.00    +0.000 C 
BRANCH   8   9
ATOM      9  N   UNL     1      45.574   5.475  11.637  0.00  0.00    +0.000 NA
ATOM     10  H   UNL     1      44.785   5.737  12.225  0.00  0.00    +0.000 HD
BRANCH   9  11
ATOM     11  C   UNL     1      45.323   5.901  10.261  0.00  0.00    +0.000 C 
BRANCH  11  12
ATOM     12  C   UNL     1      45.046   4.641   9.406  0.00  0.00    +0.000 C 
ATOM     13  C   UNL     1      44.968   3.372  10.277  0.00  0.00    +0.000 C 
ATOM     14  C   UNL     1      44.700   2.125   9.440  0.00  0.00    +0.000 C 
ATOM     15  C   UNL     1      45.736   1.956   8.336  0.00  0.00    +0.000 C 
ATOM     16  C   UNL     1      45.828   3.205   7.465  0.00  0.00    +0.000 C 
ATOM     17  C   UNL     1      46.099   4.459   8.299  0.00  0.00    +0.000 C 
ENDBRANCH  11  12
ENDBRANCH   9  11
ENDBRANCH   8   9
ENDBRANCH   5   8
ENDBRANCH   1   2
BRANCH   1  20
ATOM     18  C   UNL     1      50.521   3.226  17.520  0.00  0.00    +0.000 C 
ATOM     19  O   UNL     1      50.654   2.296  16.735  0.00  0.00    +0.000 OA
ATOM     20  N   UNL     1      49.287   3.738  17.823  0.00  0.00    +0.000 N 
ATOM     21  H   UNL     1      49.201   4.439  18.546  0.00  0.00    +0.000 HD
BRANCH  18  29
ATOM     22  C   UNL     1      53.445   1.990  18.854  0.00  0.00    +0.000 A 
ATOM     23  N   UNL     1      54.632   1.777  19.456  0.00  0.00    +0.000 NA
ATOM     24  C   UNL     1      55.278   2.829  19.959  0.00  0.00    +0.000 A 
ATOM     25  N   UNL     1      54.883   4.099  19.929  0.00  0.00    +0.000 NA
ATOM     26  C   UNL     1      53.701   4.268  19.313  0.00  0.00    +0.000 A 
ATOM     27  S   UNL     1      53.048   5.829  19.171  0.00  0.00    +0.000 S 
ATOM     28  C   UNL     1      51.674   5.235  18.361  0.00  0.00    +0.000 A 
ATOM     29  C   UNL     1      51.679   3.858  18.183  0.00  0.00    +0.000 A 
ATOM     30  C   UNL     1      52.902   3.281  18.743  0.00  0.00    +0.000 A 
BRANCH  22  32
ATOM     31  C   UNL     1      53.727  -0.044  17.747  0.00  0.00    +0.000 C 
ATOM     32  O   UNL     1      52.810   0.901  18.297  0.00  0.00    +0.000 OA
ENDBRANCH  22  32
ENDBRANCH  18  29
ENDBRANCH   1  20
TORSDOF 8
ENDMDL
