MODEL 1
REMARK VINA RESULT:    -8.297      0.000      0.000
REMARK INTER + INTRA:         -13.317
REMARK INTER:                 -12.420
REMARK INTRA:                  -0.897
REMARK UNBOUND:                -0.897
REMARK  Name = 
REMARK  9 active torsions:
REMARK  status: ('A' for Active; 'I' for Inactive)
REMARK    1  A    between atoms: N_1  and  C_2
REMARK    2  A    between atoms: C_2  and  C_3
REMARK    3  A    between atoms: C_3  and  N_4
REMARK    4  A    between atoms: C_3  and  C_26
REMARK    5  A    between atoms: N_4  and  C_5
REMARK    6  A    between atoms: C_5  and  C_6
REMARK    7  A    between atoms: C_9  and  C_10
REMARK    8  A    between atoms: C_10  and  N_11
REMARK    9  A    between atoms: C_12  and  C_14
REMARK                            x       y       z     vdW  Elec       q    Type
REMARK                         _______ _______ _______ _____ _____    ______ ____
ROOT
ATOM      1  C   UNL     1      44.351   6.392  11.778  0.00  0.00    +0.000 A 
ATOM      2  C   UNL     1      44.535   7.734  11.427  0.00  0.00    +0.000 A 
ATOM      3  C   UNL     1      45.555   8.477  12.020  0.00  0.00    +0.000 A 
ATOM      4  C   UNL     1      46.395   7.850  12.936  0.00  0.00    +0.000 A 
ATOM      5  N   UNL     1      46.248   6.549  13.282  0.00  0.00    +0.000 NA
ATOM      6  C   UNL     1      45.242   5.858  12.699  0.00  0.00    +0.000 A 
ENDROOT
BRANCH   1   7
ATOM      7  C   UNL     1      43.253   5.582  11.133  0.00  0.00    +0.000 C 
BRANCH   7   8
ATOM      8  N   UNL     1      43.674   4.932   9.896  0.00  0.00    +0.000 NA
ATOM      9  H   UNL     1      42.968   5.052   9.167  0.00  0.00    +0.000 HD
BRANCH   8  10
ATOM     10  C   UNL     1      43.894   3.474   9.993  0.00  0.00    +0.000 C 
BRANCH  10  11
ATOM     11  C   UNL     1      45.234   3.138   9.221  0.00  0.00    +0.000 C 
ATOM     12  C   UNL     1      45.496   4.105   8.045  0.00  0.00    +0.000 C 
ATOM     13  C   UNL     1      46.776   3.753   7.294  0.00  0.00    +0.000 C 
ATOM     14  C   UNL     1      46.758   2.294   6.863  0.00  0.00    +0.000 C 
ATOM     15  C   UNL     1      46.459   1.378   8.046  0.00  0.00    +0.000 C 
ATOM     16  N   UNL     1      45.205   1.740   8.715  0.00  0.00    +0.000 NA
ATOM     17  H   UNL     1      45.053   1.101   9.496  0.00  0.00    +0.000 HD
ENDBRANCH  10  11
BRANCH  10  18
ATOM     18  C   UNL     1      43.942   2.903  11.442  0.00  0.00    +0.000 C 
BRANCH  18  19
ATOM     19  N   UNL     1      42.961   1.850  11.728  0.00  0.00    +0.000 NA
ATOM     20  H   UNL     1      42.025   2.190  11.516  0.00  0.00    +0.000 HD
ATOM     21  H   UNL     1      42.981   1.601  12.714  0.00  0.00    +0.000 HD
ENDBRANCH  18  19
ENDBRANCH  10  18
ENDBRANCH   8  10
ENDBRANCH   7   8
ENDBRANCH   1   7
BRANCH   4  22
ATOM     22  C   UNL     1      47.449   8.635  13.673  0.00  0.00    +0.000 C 
BRANCH  22  23
ATOM     23  N   UNL     1      47.813   7.955  14.895  0.00  0.00    +0.000 N 
ATOM     24  C   UNL     1      48.891   7.121  14.984  0.00  0.00    +0.000 C 
ATOM     25  O   UNL     1      49.654   6.933  14.041  0.00  0.00    +0.000 OA
ATOM     26  H   UNL     1      47.079   7.918  15.596  0.00  0.00    +0.000 HD
BRANCH  24  27
ATOM     27  C   UNL     1      49.138   6.527  16.303  0.00  0.00    +0.000 A 
ATOM     28  C   UNL     1      49.885   7.224  17.244  0.00  0.00    +0.000 A 
ATOM     29  S   UNL     1      49.991   6.435  18.751  0.00  0.00    +0.000 S 
ATOM     30  C   UNL     1      49.094   5.106  18.186  0.00  0.00    +0.000 A 
ATOM     31  N   UNL     1      48.822   4.049  18.991  0.00  0.00    +0.000 NA
ATOM     32  C   UNL     1      48.150   3.101  18.424  0.00  0.00    +0.000 A 
ATOM     33  N   UNL     1      47.733   3.115  17.118  0.00  0.00    +0.000 N 
ATOM     34  C   UNL     1      47.977   4.167  16.267  0.00  0.00    +0.000 A 
ATOM     35  O   UNL     1      47.580   4.149  15.107  0.00  0.00    +0.000 OA
ATOM     36  C   UNL     1      48.715   5.264  16.861  0.00  0.00    +0.000 A 
ATOM     37  H   UNL     1      47.212   2.343  16.730  0.00  0.00    +0.000 HD
ENDBRANCH  24  27
ENDBRANCH  22  23
ENDBRANCH   4  22
TORSDOF 9
ENDMDL
MODEL 2
REMARK VINA RESULT:    -7.589      2.510      3.244
REMARK INTER + INTRA:         -12.258
REMARK INTER:                 -11.390
REMARK INTRA:                  -0.868
REMARK UNBOUND:                -0.897
REMARK  Name = 
REMARK  9 active torsions:
REMARK  status: ('A' for Active; 'I' for Inactive)
REMARK    1  A    between atoms: N_1  and  C_2
REMARK    2  A    between atoms: C_2  and  C_3
REMARK    3  A    between atoms: C_3  and  N_4
REMARK    4  A    between atoms: C_3  and  C_26
REMARK    5  A    between atoms: N_4  and  C_5
REMARK    6  A    between atoms: C_5  and  C_6
REMARK    7  A    between atoms: C_9  and  C_10
REMARK    8  A    between atoms: C_10  and  N_11
REMARK    9  A    between atoms: C_12  and  C_14
REMARK                            x       y       z     vdW  Elec       q    Type
REMARK                         _______ _______ _______ _____ _____    ______ ____
ROOT
ATOM      1  C   UNL     1      47.050   6.683  12.874  0.00  0.00    +0.000 A 
ATOM      2  C   UNL     1      47.250   8.038  13.162  0.00  0.00    +0.000 A 
ATOM      3  C   UNL     1      47.949   8.411  14.309  0.00  0.00    +0.000 A 
ATOM      4  C   UNL     1      48.464   7.416  15.134  0.00  0.00    +0.000 A 
ATOM      5  N   UNL     1      48.297   6.097  14.870  0.00  0.00    +0.000 NA
ATOM      6  C   UNL     1      47.605   5.767  13.757  0.00  0.00    +0.000 A 
ENDROOT
BRANCH   1   7
ATOM      7  C   UNL     1      46.301   6.274  11.629  0.00  0.00    +0.000 C 
BRANCH   7   8
ATOM      8  N   UNL     1      45.209   5.345  11.898  0.00  0.00    +0.000 NA
ATOM      9  H   UNL     1      45.522   4.378  11.788  0.00  0.00    +0.000 HD
BRANCH   8  10
ATOM     10  C   UNL     1      44.033   5.480  11.012  0.00  0.00    +0.000 C 
BRANCH  10  11
ATOM     11  C   UNL     1      44.155   4.379   9.882  0.00  0.00    +0.000 C 
ATOM     12  C   UNL     1      44.578   3.003  10.442  0.00  0.00    +0.000 C 
ATOM     13  C   UNL     1      44.718   1.958   9.340  0.00  0.00    +0.000 C 
ATOM     14  C   UNL     1      45.648   2.459   8.244  0.00  0.00    +0.000 C 
ATOM     15  C   UNL     1      45.215   3.836   7.748  0.00  0.00    +0.000 C 
ATOM     16  N   UNL     1      45.125   4.809   8.840  0.00  0.00    +0.000 NA
ATOM     17  H   UNL     1      44.832   5.708   8.457  0.00  0.00    +0.000 HD
ENDBRANCH  10  11
BRANCH  10  18
ATOM     18  C   UNL     1      42.650   5.380  11.723  0.00  0.00    +0.000 C 
BRANCH  18  19
ATOM     19  N   UNL     1      42.704   5.377  13.189  0.00  0.00    +0.000 NA
ATOM     20  H   UNL     1      42.341   6.260  13.545  0.00  0.00    +0.000 HD
ATOM     21  H   UNL     1      43.664   5.288  13.512  0.00  0.00    +0.000 HD
ENDBRANCH  18  19
ENDBRANCH  10  18
ENDBRANCH   8  10
ENDBRANCH   7   8
ENDBRANCH   1   7
BRANCH   4  22
ATOM     22  C   UNL     1      49.142   7.769  16.433  0.00  0.00    +0.000 C 
BRANCH  22  23
ATOM     23  N   UNL     1      50.155   6.788  16.747  0.00  0.00    +0.000 N 
ATOM     24  C   UNL     1      50.116   6.021  17.876  0.00  0.00    +0.000 C 
ATOM     25  O   UNL     1      49.187   6.080  18.678  0.00  0.00    +0.000 OA
ATOM     26  H   UNL     1      51.023   6.891  16.230  0.00  0.00    +0.000 HD
BRANCH  24  27
ATOM     27  C   UNL     1      51.207   5.054  18.037  0.00  0.00    +0.000 A 
ATOM     28  C   UNL     1      52.426   5.470  18.556  0.00  0.00    +0.000 A 
ATOM     29  S   UNL     1      53.546   4.203  18.767  0.00  0.00    +0.000 S 
ATOM     30  C   UNL     1      52.466   3.060  18.119  0.00  0.00    +0.000 A 
ATOM     31  N   UNL     1      52.812   1.753  18.005  0.00  0.00    +0.000 NA
ATOM     32  C   UNL     1      51.902   1.002  17.475  0.00  0.00    +0.000 A 
ATOM     33  N   UNL     1      50.680   1.447  17.042  0.00  0.00    +0.000 N 
ATOM     34  C   UNL     1      50.282   2.759  17.144  0.00  0.00    +0.000 A 
ATOM     35  O   UNL     1      49.177   3.119  16.754  0.00  0.00    +0.000 OA
ATOM     36  C   UNL     1      51.263   3.640  17.747  0.00  0.00    +0.000 A 
ATOM     37  H   UNL     1      50.010   0.811  16.634  0.00  0.00    +0.000 HD
ENDBRANCH  24  27
ENDBRANCH  22  23
ENDBRANCH   4  22
TORSDOF 9
ENDMDL
MODEL 3
REMARK VINA RESULT:    -7.126      3.587      4.922
REMARK INTER + INTRA:         -11.565
REMARK INTER:                 -10.303
REMARK INTRA:                  -1.262
REMARK UNBOUND:                -0.897
REMARK  Name = 
REMARK  9 active torsions:
REMARK  status: ('A' for Active; 'I' for Inactive)
REMARK    1  A    between atoms: N_1  and  C_2
REMARK    2  A    between atoms: C_2  and  C_3
REMARK    3  A    between atoms: C_3  and  N_4
REMARK    4  A    between atoms: C_3  and  C_26
REMARK    5  A    between atoms: N_4  and  C_5
REMARK    6  A    between atoms: C_5  and  C_6
REMARK    7  A    between atoms: C_9  and  C_10
REMARK    8  A    between atoms: C_10  and  N_11
REMARK    9  A    between atoms: C_12  and  C_14
REMARK                            x       y       z     vdW  Elec       q    Type
REMARK                         _______ _______ _______ _____ _____    ______ ____
ROOT
ATOM      1  C   UNL     1      45.816   6.354  12.024  0.00  0.00    +0.000 A 
ATOM      2  C   UNL     1      46.523   5.299  12.615  0.00  0.00    +0.000 A 
ATOM      3  C   UNL     1      47.506   5.565  13.566  0.00  0.00    +0.000 A 
ATOM      4  C   UNL     1      47.744   6.886  13.933  0.00  0.00    +0.000 A 
ATOM      5  N   UNL     1      47.065   7.924  13.388  0.00  0.00    +0.000 NA
ATOM      6  C   UNL     1      46.125   7.635  12.459  0.00  0.00    +0.000 A 
ENDROOT
BRANCH   1   7
ATOM      7  C   UNL     1      44.745   6.069  10.999  0.00  0.00    +0.000 C 
BRANCH   7   8
ATOM      8  N   UNL     1      45.224   5.265   9.880  0.00  0.00    +0.000 NA
ATOM      9  H   UNL     1      45.246   5.818   9.021  0.00  0.00    +0.000 HD
BRANCH   8  10
ATOM     10  C   UNL     1      44.404   4.077   9.560  0.00  0.00    +0.000 C 
BRANCH  10  11
ATOM     11  C   UNL     1      45.110   3.313   8.369  0.00  0.00    +0.000 C 
ATOM     12  C   UNL     1      45.779   1.997   8.826  0.00  0.00    +0.000 C 
ATOM     13  C   UNL     1      46.478   1.284   7.674  0.00  0.00    +0.000 C 
ATOM     14  C   UNL     1      47.448   2.225   6.973  0.00  0.00    +0.000 C 
ATOM     15  C   UNL     1      46.755   3.524   6.574  0.00  0.00    +0.000 C 
ATOM     16  N   UNL     1      46.125   4.185   7.721  0.00  0.00    +0.000 NA
ATOM     17  H   UNL     1      45.677   5.044   7.401  0.00  0.00    +0.000 HD
ENDBRANCH  10  11
BRANCH  10  18
ATOM     18  C   UNL     1      44.145   3.107  10.753  0.00  0.00    +0.000 C 
BRANCH  18  19
ATOM     19  N   UNL     1      42.849   3.275  11.420  0.00  0.00    +0.000 NA
ATOM     20  H   UNL     1      42.481   4.203  11.221  0.00  0.00    +0.000 HD
ATOM     21  H   UNL     1      42.953   3.196  12.428  0.00  0.00    +0.000 HD
ENDBRANCH  18  19
ENDBRANCH  10  18
ENDBRANCH   8  10
ENDBRANCH   7   8
ENDBRANCH   1   7
BRANCH   4  22
ATOM     22  C   UNL     1      48.861   7.230  14.885  0.00  0.00    +0.000 C 
BRANCH  22  23
ATOM     23  N   UNL     1      50.093   7.426  14.156  0.00  0.00    +0.000 N 
ATOM     24  C   UNL     1      50.659   8.656  13.978  0.00  0.00    +0.000 C 
ATOM     25  O   UNL     1      50.182   9.675  14.470  0.00  0.00    +0.000 OA
ATOM     26  H   UNL     1      50.366   6.648  13.563  0.00  0.00    +0.000 HD
BRANCH  24  27
ATOM     27  C   UNL     1      51.924   8.682  13.236  0.00  0.00    +0.000 A 
ATOM     28  C   UNL     1      53.062   9.211  13.830  0.00  0.00    +0.000 A 
ATOM     29  S   UNL     1      54.462   9.072  12.869  0.00  0.00    +0.000 S 
ATOM     30  C   UNL     1      53.591   8.353  11.598  0.00  0.00    +0.000 A 
ATOM     31  N   UNL     1      54.205   7.985  10.446  0.00  0.00    +0.000 NA
ATOM     32  C   UNL     1      53.416   7.471   9.558  0.00  0.00    +0.000 A 
ATOM     33  N   UNL     1      52.066   7.302   9.720  0.00  0.00    +0.000 N 
ATOM     34  C   UNL     1      51.401   7.652  10.872  0.00  0.00    +0.000 A 
ATOM     35  O   UNL     1      50.193   7.477  10.985  0.00  0.00    +0.000 OA
ATOM     36  C   UNL     1      52.245   8.219  11.906  0.00  0.00    +0.000 A 
ATOM     37  H   UNL     1      51.501   6.896   8.989  0.00  0.00    +0.000 HD
ENDBRANCH  24  27
ENDBRANCH  22  23
ENDBRANCH   4  22
TORSDOF 9
ENDMDL
MODEL 4
REMARK VINA RESULT:    -6.958      3.152      4.684
REMARK INTER + INTRA:         -11.313
REMARK INTER:                 -10.345
REMARK INTRA:                  -0.969
REMARK UNBOUND:                -0.897
REMARK  Name = 
REMARK  9 active torsions:
REMARK  status: ('A' for Active; 'I' for Inactive)
REMARK    1  A    between atoms: N_1  and  C_2
REMARK    2  A    between atoms: C_2  and  C_3
REMARK    3  A    between atoms: C_3  and  N_4
REMARK    4  A    between atoms: C_3  and  C_26
REMARK    5  A    between atoms: N_4  and  C_5
REMARK    6  A    between atoms: C_5  and  C_6
REMARK    7  A    between atoms: C_9  and  C_10
REMARK    8  A    between atoms: C_10  and  N_11
REMARK    9  A    between atoms: C_12  and  C_14
REMARK                            x       y       z     vdW  Elec       q    Type
REMARK                         _______ _______ _______ _____ _____    ______ ____
ROOT
ATOM      1  C   UNL     1      47.007   5.072  13.977  0.00  0.00    +0.000 A 
ATOM      2  C   UNL     1      47.728   5.920  14.825  0.00  0.00    +0.000 A 
ATOM      3  C   UNL     1      48.169   5.458  16.064  0.00  0.00    +0.000 A 
ATOM      4  C   UNL     1      47.905   4.139  16.420  0.00  0.00    +0.000 A 
ATOM      5  N   UNL     1      47.221   3.293  15.612  0.00  0.00    +0.000 NA
ATOM      6  C   UNL     1      46.796   3.774  14.422  0.00  0.00    +0.000 A 
ENDROOT
BRANCH   1   7
ATOM      7  C   UNL     1      46.534   5.566  12.632  0.00  0.00    +0.000 C 
BRANCH   7   8
ATOM      8  N   UNL     1      45.341   4.875  12.156  0.00  0.00    +0.000 NA
ATOM      9  H   UNL     1      45.574   3.936  11.828  0.00  0.00    +0.000 HD
BRANCH   8  10
ATOM     10  C   UNL     1      44.645   5.524  11.024  0.00  0.00    +0.000 C 
BRANCH  10  11
ATOM     11  C   UNL     1      44.666   4.515   9.805  0.00  0.00    +0.000 C 
ATOM     12  C   UNL     1      44.874   3.051  10.254  0.00  0.00    +0.000 C 
ATOM     13  C   UNL     1      44.920   2.094   9.069  0.00  0.00    +0.000 C 
ATOM     14  C   UNL     1      45.957   2.550   8.053  0.00  0.00    +0.000 C 
ATOM     15  C   UNL     1      45.737   4.010   7.667  0.00  0.00    +0.000 C 
ATOM     16  N   UNL     1      45.731   4.891   8.838  0.00  0.00    +0.000 NA
ATOM     17  H   UNL     1      45.581   5.851   8.526  0.00  0.00    +0.000 HD
ENDBRANCH  10  11
BRANCH  10  18
ATOM     18  C   UNL     1      43.188   5.992  11.319  0.00  0.00    +0.000 C 
BRANCH  18  19
ATOM     19  N   UNL     1      42.730   5.767  12.694  0.00  0.00    +0.000 NA
ATOM     20  H   UNL     1      43.384   6.196  13.346  0.00  0.00    +0.000 HD
ATOM     21  H   UNL     1      42.698   4.772  12.903  0.00  0.00    +0.000 HD
ENDBRANCH  18  19
ENDBRANCH  10  18
ENDBRANCH   8  10
ENDBRANCH   7   8
ENDBRANCH   1   7
BRANCH   4  22
ATOM     22  C   UNL     1      48.277   3.623  17.787  0.00  0.00    +0.000 C 
BRANCH  22  23
ATOM     23  N   UNL     1      49.712   3.652  17.955  0.00  0.00    +0.000 N 
ATOM     24  C   UNL     1      50.541   2.724  17.393  0.00  0.00    +0.000 C 
ATOM     25  O   UNL     1      50.125   1.828  16.663  0.00  0.00    +0.000 OA
ATOM     26  H   UNL     1      50.039   4.230  18.723  0.00  0.00    +0.000 HD
BRANCH  24  27
ATOM     27  C   UNL     1      51.975   2.909  17.639  0.00  0.00    +0.000 A 
ATOM     28  C   UNL     1      52.752   1.828  18.036  0.00  0.00    +0.000 A 
ATOM     29  S   UNL     1      54.410   2.195  18.181  0.00  0.00    +0.000 S 
ATOM     30  C   UNL     1      54.146   3.825  17.774  0.00  0.00    +0.000 A 
ATOM     31  N   UNL     1      55.172   4.710  17.721  0.00  0.00    +0.000 NA
ATOM     32  C   UNL     1      54.823   5.919  17.420  0.00  0.00    +0.000 A 
ATOM     33  N   UNL     1      53.535   6.320  17.177  0.00  0.00    +0.000 N 
ATOM     34  C   UNL     1      52.464   5.459  17.212  0.00  0.00    +0.000 A 
ATOM     35  O   UNL     1      51.326   5.851  16.979  0.00  0.00    +0.000 OA
ATOM     36  C   UNL     1      52.806   4.085  17.529  0.00  0.00    +0.000 A 
ATOM     37  H   UNL     1      53.324   7.281  16.948  0.00  0.00    +0.000 HD
ENDBRANCH  24  27
ENDBRANCH  22  23
ENDBRANCH   4  22
TORSDOF 9
ENDMDL
MODEL 5
REMARK VINA RESULT:    -6.668      3.049      5.122
REMARK INTER + INTRA:         -10.879
REMARK INTER:                  -9.790
REMARK INTRA:                  -1.089
REMARK UNBOUND:                -0.897
REMARK  Name = 
REMARK  9 active torsions:
REMARK  status: ('A' for Active; 'I' for Inactive)
REMARK    1  A    between atoms: N_1  and  C_2
REMARK    2  A    between atoms: C_2  and  C_3
REMARK    3  A    between atoms: C_3  and  N_4
REMARK    4  A    between atoms: C_3  and  C_26
REMARK    5  A    between atoms: N_4  and  C_5
REMARK    6  A    between atoms: C_5  and  C_6
REMARK    7  A    between atoms: C_9  and  C_10
REMARK    8  A    between atoms: C_10  and  N_11
REMARK    9  A    between atoms: C_12  and  C_14
REMARK                            x       y       z     vdW  Elec       q    Type
REMARK                         _______ _______ _______ _____ _____    ______ ____
ROOT
ATOM      1  C   UNL     1      46.837   4.930  13.467  0.00  0.00    +0.000 A 
ATOM      2  C   UNL     1      47.664   6.013  13.784  0.00  0.00    +0.000 A 
ATOM      3  C   UNL     1      48.129   6.178  15.088  0.00  0.00    +0.000 A 
ATOM      4  C   UNL     1      47.779   5.233  16.049  0.00  0.00    +0.000 A 
ATOM      5  N   UNL     1      46.992   4.167  15.764  0.00  0.00    +0.000 NA
ATOM      6  C   UNL     1      46.547   4.041  14.494  0.00  0.00    +0.000 A 
ENDROOT
BRANCH   1   7
ATOM      7  C   UNL     1      46.338   4.744  12.054  0.00  0.00    +0.000 C 
BRANCH   7   8
ATOM      8  N   UNL     1      45.918   5.992  11.428  0.00  0.00    +0.000 NA
ATOM      9  H   UNL     1      46.667   6.686  11.467  0.00  0.00    +0.000 HD
BRANCH   8  10
ATOM     10  C   UNL     1      44.746   6.646  12.049  0.00  0.00    +0.000 C 
BRANCH  10  11
ATOM     11  C   UNL     1      44.616   8.093  11.423  0.00  0.00    +0.000 C 
ATOM     12  C   UNL     1      45.199   9.189  12.343  0.00  0.00    +0.000 C 
ATOM     13  C   UNL     1      45.043  10.581  11.741  0.00  0.00    +0.000 C 
ATOM     14  C   UNL     1      43.591  10.840  11.365  0.00  0.00    +0.000 C 
ATOM     15  C   UNL     1      43.045   9.717  10.489  0.00  0.00    +0.000 C 
ATOM     16  N   UNL     1      43.192   8.404  11.125  0.00  0.00    +0.000 NA
ATOM     17  H   UNL     1      42.814   7.692  10.501  0.00  0.00    +0.000 HD
ENDBRANCH  10  11
BRANCH  10  18
ATOM     18  C   UNL     1      43.401   5.870  11.911  0.00  0.00    +0.000 C 
BRANCH  18  19
ATOM     19  N   UNL     1      42.704   5.606  13.175  0.00  0.00    +0.000 NA
ATOM     20  H   UNL     1      42.394   6.486  13.583  0.00  0.00    +0.000 HD
ATOM     21  H   UNL     1      43.330   5.162  13.843  0.00  0.00    +0.000 HD
ENDBRANCH  18  19
ENDBRANCH  10  18
ENDBRANCH   8  10
ENDBRANCH   7   8
ENDBRANCH   1   7
BRANCH   4  22
ATOM     22  C   UNL     1      48.177   5.419  17.490  0.00  0.00    +0.000 C 
BRANCH  22  23
ATOM     23  N   UNL     1      49.396   4.694  17.767  0.00  0.00    +0.000 N 
ATOM     24  C   UNL     1      50.636   5.224  17.554  0.00  0.00    +0.000 C 
ATOM     25  O   UNL     1      50.799   6.375  17.157  0.00  0.00    +0.000 OA
ATOM     26  H   UNL     1      49.281   3.691  17.869  0.00  0.00    +0.000 HD
BRANCH  24  27
ATOM     27  C   UNL     1      51.773   4.368  17.909  0.00  0.00    +0.000 A 
ATOM     28  C   UNL     1      52.918   4.933  18.457  0.00  0.00    +0.000 A 
ATOM     29  S   UNL     1      54.098   3.788  18.902  0.00  0.00    +0.000 S 
ATOM     30  C   UNL     1      53.151   2.498  18.327  0.00  0.00    +0.000 A 
ATOM     31  N   UNL     1      53.589   1.217  18.402  0.00  0.00    +0.000 NA
ATOM     32  C   UNL     1      52.775   0.341  17.908  0.00  0.00    +0.000 A 
ATOM     33  N   UNL     1      51.565   0.638  17.338  0.00  0.00    +0.000 N 
ATOM     34  C   UNL     1      51.075   1.919  17.247  0.00  0.00    +0.000 A 
ATOM     35  O   UNL     1      49.982   2.146  16.739  0.00  0.00    +0.000 OA
ATOM     36  C   UNL     1      51.945   2.938  17.803  0.00  0.00    +0.000 A 
ATOM     37  H   UNL     1      50.972  -0.090  16.966  0.00  0.00    +0.000 HD
ENDBRANCH  24  27
ENDBRANCH  22  23
ENDBRANCH   4  22
TORSDOF 9
ENDMDL
MODEL 6
REMARK VINA RESULT:    -6.564      3.286      5.380
REMARK INTER + INTRA:         -10.722
REMARK INTER:                  -9.154
REMARK INTRA:                  -1.569
REMARK UNBOUND:                -0.897
REMARK  Name = 
REMARK  9 active torsions:
REMARK  status: ('A' for Active; 'I' for Inactive)
REMARK    1  A    between atoms: N_1  and  C_2
REMARK    2  A    between atoms: C_2  and  C_3
REMARK    3  A    between atoms: C_3  and  N_4
REMARK    4  A    between atoms: C_3  and  C_26
REMARK    5  A    between atoms: N_4  and  C_5
REMARK    6  A    between atoms: C_5  and  C_6
REMARK    7  A    between atoms: C_9  and  C_10
REMARK    8  A    between atoms: C_10  and  N_11
REMARK    9  A    between atoms: C_12  and  C_14
REMARK                            x       y       z     vdW  Elec       q    Type
REMARK                         _______ _______ _______ _____ _____    ______ ____
ROOT
ATOM      1  C   UNL     1      45.121   6.202  12.256  0.00  0.00    +0.000 A 
ATOM      2  C   UNL     1      46.517   6.128  12.181  0.00  0.00    +0.000 A 
ATOM      3  C   UNL     1      47.207   5.174  12.926  0.00  0.00    +0.000 A 
ATOM      4  C   UNL     1      46.480   4.285  13.714  0.00  0.00    +0.000 A 
ATOM      5  N   UNL     1      45.128   4.325  13.793  0.00  0.00    +0.000 NA
ATOM      6  C   UNL     1      44.489   5.270  13.068  0.00  0.00    +0.000 A 
ENDROOT
BRANCH   1   7
ATOM      7  C   UNL     1      44.370   7.229  11.444  0.00  0.00    +0.000 C 
BRANCH   7   8
ATOM      8  N   UNL     1      45.146   8.440  11.197  0.00  0.00    +0.000 NA
ATOM      9  H   UNL     1      46.140   8.220  11.105  0.00  0.00    +0.000 HD
BRANCH   8  10
ATOM     10  C   UNL     1      45.069   9.466  12.258  0.00  0.00    +0.000 C 
BRANCH  10  11
ATOM     11  C   UNL     1      46.531   9.688  12.820  0.00  0.00    +0.000 C 
ATOM     12  C   UNL     1      47.621   9.342  11.780  0.00  0.00    +0.000 C 
ATOM     13  C   UNL     1      49.025   9.534  12.343  0.00  0.00    +0.000 C 
ATOM     14  C   UNL     1      49.188   8.764  13.646  0.00  0.00    +0.000 C 
ATOM     15  C   UNL     1      48.071   9.108  14.627  0.00  0.00    +0.000 C 
ATOM     16  N   UNL     1      46.744   8.878  14.048  0.00  0.00    +0.000 NA
ATOM     17  H   UNL     1      46.036   9.123  14.741  0.00  0.00    +0.000 HD
ENDBRANCH  10  11
BRANCH  10  18
ATOM     18  C   UNL     1      44.440  10.825  11.824  0.00  0.00    +0.000 C 
BRANCH  18  19
ATOM     19  N   UNL     1      42.989  10.927  12.014  0.00  0.00    +0.000 NA
ATOM     20  H   UNL     1      42.553  11.245  11.151  0.00  0.00    +0.000 HD
ATOM     21  H   UNL     1      42.769  11.607  12.737  0.00  0.00    +0.000 HD
ENDBRANCH  18  19
ENDBRANCH  10  18
ENDBRANCH   8  10
ENDBRANCH   7   8
ENDBRANCH   1   7
BRANCH   4  22
ATOM     22  C   UNL     1      47.185   3.299  14.609  0.00  0.00    +0.000 C 
BRANCH  22  23
ATOM     23  N   UNL     1      47.761   3.983  15.745  0.00  0.00    +0.000 N 
ATOM     24  C   UNL     1      47.288   3.829  17.017  0.00  0.00    +0.000 C 
ATOM     25  O   UNL     1      46.371   3.059  17.288  0.00  0.00    +0.000 OA
ATOM     26  H   UNL     1      48.349   4.776  15.511  0.00  0.00    +0.000 HD
BRANCH  24  27
ATOM     27  C   UNL     1      47.999   4.574  18.062  0.00  0.00    +0.000 A 
ATOM     28  C   UNL     1      47.324   5.535  18.804  0.00  0.00    +0.000 A 
ATOM     29  S   UNL     1      48.269   6.232  20.039  0.00  0.00    +0.000 S 
ATOM     30  C   UNL     1      49.632   5.319  19.594  0.00  0.00    +0.000 A 
ATOM     31  N   UNL     1      50.808   5.443  20.258  0.00  0.00    +0.000 NA
ATOM     32  C   UNL     1      51.765   4.704  19.798  0.00  0.00    +0.000 A 
ATOM     33  N   UNL     1      51.650   3.859  18.725  0.00  0.00    +0.000 N 
ATOM     34  C   UNL     1      50.478   3.694  18.026  0.00  0.00    +0.000 A 
ATOM     35  O   UNL     1      50.409   2.921  17.077  0.00  0.00    +0.000 OA
ATOM     36  C   UNL     1      49.368   4.489  18.514  0.00  0.00    +0.000 A 
ATOM     37  H   UNL     1      52.435   3.308  18.410  0.00  0.00    +0.000 HD
ENDBRANCH  24  27
ENDBRANCH  22  23
ENDBRANCH   4  22
TORSDOF 9
ENDMDL
MODEL 7
REMARK VINA RESULT:    -6.517      2.722      4.435
REMARK INTER + INTRA:         -10.653
REMARK INTER:                  -9.676
REMARK INTRA:                  -0.976
REMARK UNBOUND:                -0.897
REMARK  Name = 
REMARK  9 active torsions:
REMARK  status: ('A' for Active; 'I' for Inactive)
REMARK    1  A    between atoms: N_1  and  C_2
REMARK    2  A    between atoms: C_2  and  C_3
REMARK    3  A    between atoms: C_3  and  N_4
REMARK    4  A    between atoms: C_3  and  C_26
REMARK    5  A    between atoms: N_4  and  C_5
REMARK    6  A    between atoms: C_5  and  C_6
REMARK    7  A    between atoms: C_9  and  C_10
REMARK    8  A    between atoms: C_10  and  N_11
REMARK    9  A    between atoms: C_12  and  C_14
REMARK                            x       y       z     vdW  Elec       q    Type
REMARK                         _______ _______ _______ _____ _____    ______ ____
ROOT
ATOM      1  C   UNL     1      46.942   5.004  13.782  0.00  0.00    +0.000 A 
ATOM      2  C   UNL     1      47.551   5.839  14.726  0.00  0.00    +0.000 A 
ATOM      3  C   UNL     1      48.180   5.289  15.842  0.00  0.00    +0.000 A 
ATOM      4  C   UNL     1      48.213   3.903  15.977  0.00  0.00    +0.000 A 
ATOM      5  N   UNL     1      47.644   3.072  15.071  0.00  0.00    +0.000 NA
ATOM      6  C   UNL     1      47.032   3.637  14.006  0.00  0.00    +0.000 A 
ENDROOT
BRANCH   1   7
ATOM      7  C   UNL     1      46.267   5.596  12.569  0.00  0.00    +0.000 C 
BRANCH   7   8
ATOM      8  N   UNL     1      45.292   4.696  11.961  0.00  0.00    +0.000 NA
ATOM      9  H   UNL     1      45.754   3.868  11.579  0.00  0.00    +0.000 HD
BRANCH   8  10
ATOM     10  C   UNL     1      44.521   5.268  10.837  0.00  0.00    +0.000 C 
BRANCH  10  11
ATOM     11  C   UNL     1      44.682   4.296   9.599  0.00  0.00    +0.000 C 
ATOM     12  C   UNL     1      45.008   2.847  10.026  0.00  0.00    +0.000 C 
ATOM     13  C   UNL     1      45.188   1.927   8.823  0.00  0.00    +0.000 C 
ATOM     14  C   UNL     1      46.216   2.502   7.859  0.00  0.00    +0.000 C 
ATOM     15  C   UNL     1      45.876   3.944   7.495  0.00  0.00    +0.000 C 
ATOM     16  N   UNL     1      45.743   4.792   8.684  0.00  0.00    +0.000 NA
ATOM     17  H   UNL     1      45.515   5.742   8.386  0.00  0.00    +0.000 HD
ENDBRANCH  10  11
BRANCH  10  18
ATOM     18  C   UNL     1      43.013   5.530  11.131  0.00  0.00    +0.000 C 
BRANCH  18  19
ATOM     19  N   UNL     1      42.636   6.944  11.233  0.00  0.00    +0.000 NA
ATOM     20  H   UNL     1      41.906   7.053  11.934  0.00  0.00    +0.000 HD
ATOM     21  H   UNL     1      42.265   7.280  10.348  0.00  0.00    +0.000 HD
ENDBRANCH  18  19
ENDBRANCH  10  18
ENDBRANCH   8  10
ENDBRANCH   7   8
ENDBRANCH   1   7
BRANCH   4  22
ATOM     22  C   UNL     1      48.796   3.266  17.213  0.00  0.00    +0.000 C 
BRANCH  22  23
ATOM     23  N   UNL     1      49.590   4.229  17.941  0.00  0.00    +0.000 N 
ATOM     24  C   UNL     1      49.356   4.542  19.249  0.00  0.00    +0.000 C 
ATOM     25  O   UNL     1      48.482   3.987  19.910  0.00  0.00    +0.000 OA
ATOM     26  H   UNL     1      50.148   4.848  17.360  0.00  0.00    +0.000 HD
BRANCH  24  27
ATOM     27  C   UNL     1      50.267   5.521  19.851  0.00  0.00    +0.000 A 
ATOM     28  C   UNL     1      51.413   5.086  20.504  0.00  0.00    +0.000 A 
ATOM     29  S   UNL     1      52.408   6.355  21.056  0.00  0.00    +0.000 S 
ATOM     30  C   UNL     1      51.318   7.533  20.495  0.00  0.00    +0.000 A 
ATOM     31  N   UNL     1      51.569   8.856  20.659  0.00  0.00    +0.000 NA
ATOM     32  C   UNL     1      50.644   9.638  20.204  0.00  0.00    +0.000 A 
ATOM     33  N   UNL     1      49.487   9.211  19.607  0.00  0.00    +0.000 N 
ATOM     34  C   UNL     1      49.192   7.882  19.412  0.00  0.00    +0.000 A 
ATOM     35  O   UNL     1      48.151   7.536  18.866  0.00  0.00    +0.000 OA
ATOM     36  C   UNL     1      50.207   6.963  19.892  0.00  0.00    +0.000 A 
ATOM     37  H   UNL     1      48.800   9.870  19.273  0.00  0.00    +0.000 HD
ENDBRANCH  24  27
ENDBRANCH  22  23
ENDBRANCH   4  22
TORSDOF 9
ENDMDL
MODEL 8
REMARK VINA RESULT:    -6.304      2.806      5.473
REMARK INTER + INTRA:         -10.334
REMARK INTER:                  -8.726
REMARK INTRA:                  -1.608
REMARK UNBOUND:                -0.897
REMARK  Name = 
REMARK  9 active torsions:
REMARK  status: ('A' for Active; 'I' for Inactive)
REMARK    1  A    between atoms: N_1  and  C_2
REMARK    2  A    between atoms: C_2  and  C_3
REMARK    3  A    between atoms: C_3  and  N_4
REMARK    4  A    between atoms: C_3  and  C_26
REMARK    5  A    between atoms: N_4  and  C_5
REMARK    6  A    between atoms: C_5  and  C_6
REMARK    7  A    between atoms: C_9  and  C_10
REMARK    8  A    between atoms: C_10  and  N_11
REMARK    9  A    between atoms: C_12  and  C_14
REMARK                            x       y       z     vdW  Elec       q    Type
REMARK                         _______ _______ _______ _____ _____    ______ ____
ROOT
ATOM      1  C   UNL     1      44.158   6.360  11.790  0.00  0.00    +0.000 A 
ATOM      2  C   UNL     1      45.418   6.083  11.247  0.00  0.00    +0.000 A 
ATOM      3  C   UNL     1      46.241   5.131  11.845  0.00  0.00    +0.000 A 
ATOM      4  C   UNL     1      45.773   4.448  12.964  0.00  0.00    +0.000 A 
ATOM      5  N   UNL     1      44.552   4.686  13.501  0.00  0.00    +0.000 NA
ATOM      6  C   UNL     1      43.781   5.624  12.905  0.00  0.00    +0.000 A 
ENDROOT
BRANCH   1   7
ATOM      7  C   UNL     1      43.260   7.385  11.140  0.00  0.00    +0.000 C 
BRANCH   7   8
ATOM      8  N   UNL     1      43.978   8.576  10.699  0.00  0.00    +0.000 NA
ATOM      9  H   UNL     1      44.897   8.326  10.326  0.00  0.00    +0.000 HD
BRANCH   8  10
ATOM     10  C   UNL     1      44.242   9.579  11.752  0.00  0.00    +0.000 C 
BRANCH  10  11
ATOM     11  C   UNL     1      45.809   9.783  11.840  0.00  0.00    +0.000 C 
ATOM     12  C   UNL     1      46.450   8.948  12.971  0.00  0.00    +0.000 C 
ATOM     13  C   UNL     1      47.955   9.174  13.063  0.00  0.00    +0.000 C 
ATOM     14  C   UNL     1      48.266  10.660  13.180  0.00  0.00    +0.000 C 
ATOM     15  C   UNL     1      47.583  11.449  12.067  0.00  0.00    +0.000 C 
ATOM     16  N   UNL     1      46.135  11.220  12.041  0.00  0.00    +0.000 NA
ATOM     17  H   UNL     1      45.729  11.767  11.282  0.00  0.00    +0.000 HD
ENDBRANCH  10  11
BRANCH  10  18
ATOM     18  C   UNL     1      43.525  10.950  11.559  0.00  0.00    +0.000 C 
BRANCH  18  19
ATOM     19  N   UNL     1      42.210  11.058  12.202  0.00  0.00    +0.000 NA
ATOM     20  H   UNL     1      41.527  11.394  11.526  0.00  0.00    +0.000 HD
ATOM     21  H   UNL     1      42.240  11.728  12.967  0.00  0.00    +0.000 HD
ENDBRANCH  18  19
ENDBRANCH  10  18
ENDBRANCH   8  10
ENDBRANCH   7   8
ENDBRANCH   1   7
BRANCH   4  22
ATOM     22  C   UNL     1      46.662   3.479  13.701  0.00  0.00    +0.000 C 
BRANCH  22  23
ATOM     23  N   UNL     1      47.104   4.060  14.948  0.00  0.00    +0.000 N 
ATOM     24  C   UNL     1      47.944   3.413  15.808  0.00  0.00    +0.000 C 
ATOM     25  O   UNL     1      48.421   2.311  15.555  0.00  0.00    +0.000 OA
ATOM     26  H   UNL     1      46.549   4.847  15.271  0.00  0.00    +0.000 HD
BRANCH  24  27
ATOM     27  C   UNL     1      48.317   4.150  17.021  0.00  0.00    +0.000 A 
ATOM     28  C   UNL     1      48.140   3.563  18.267  0.00  0.00    +0.000 A 
ATOM     29  S   UNL     1      48.716   4.514  19.558  0.00  0.00    +0.000 S 
ATOM     30  C   UNL     1      49.171   5.772  18.508  0.00  0.00    +0.000 A 
ATOM     31  N   UNL     1      49.734   6.912  18.980  0.00  0.00    +0.000 NA
ATOM     32  C   UNL     1      50.008   7.791  18.071  0.00  0.00    +0.000 A 
ATOM     33  N   UNL     1      49.760   7.631  16.733  0.00  0.00    +0.000 N 
ATOM     34  C   UNL     1      49.199   6.492  16.207  0.00  0.00    +0.000 A 
ATOM     35  O   UNL     1      49.000   6.380  15.002  0.00  0.00    +0.000 OA
ATOM     36  C   UNL     1      48.887   5.467  17.185  0.00  0.00    +0.000 A 
ATOM     37  H   UNL     1      49.996   8.356  16.070  0.00  0.00    +0.000 HD
ENDBRANCH  24  27
ENDBRANCH  22  23
ENDBRANCH   4  22
TORSDOF 9
ENDMDL
MODEL 9
REMARK VINA RESULT:    -5.791      3.021      5.060
REMARK INTER + INTRA:          -9.566
REMARK INTER:                  -8.252
REMARK INTRA:                  -1.314
REMARK UNBOUND:                -0.897
REMARK  Name = 
REMARK  9 active torsions:
REMARK  status: ('A' for Active; 'I' for Inactive)
REMARK    1  A    between atoms: N_1  and  C_2
REMARK    2  A    between atoms: C_2  and  C_3
REMARK    3  A    between atoms: C_3  and  N_4
REMARK    4  A    between atoms: C_3  and  C_26
REMARK    5  A    between atoms: N_4  and  C_5
REMARK    6  A    between atoms: C_5  and  C_6
REMARK    7  A    between atoms: C_9  and  C_10
REMARK    8  A    between atoms: C_10  and  N_11
REMARK    9  A    between atoms: C_12  and  C_14
REMARK                            x       y       z     vdW  Elec       q    Type
REMARK                         _______ _______ _______ _____ _____    ______ ____
ROOT
ATOM      1  C   UNL     1      48.735   8.301  13.965  0.00  0.00    +0.000 A 
ATOM      2  C   UNL     1      48.684   9.388  14.846  0.00  0.00    +0.000 A 
ATOM      3  C   UNL     1      49.239   9.281  16.120  0.00  0.00    +0.000 A 
ATOM      4  C   UNL     1      49.866   8.091  16.479  0.00  0.00    +0.000 A 
ATOM      5  N   UNL     1      49.943   7.029  15.641  0.00  0.00    +0.000 NA
ATOM      6  C   UNL     1      49.384   7.160  14.416  0.00  0.00    +0.000 A 
ENDROOT
BRANCH   1   7
ATOM      7  C   UNL     1      48.141   8.416  12.582  0.00  0.00    +0.000 C 
BRANCH   7   8
ATOM      8  N   UNL     1      47.428   7.214  12.165  0.00  0.00    +0.000 NA
ATOM      9  H   UNL     1      47.871   6.798  11.343  0.00  0.00    +0.000 HD
BRANCH   8  10
ATOM     10  C   UNL     1      46.014   7.420  11.785  0.00  0.00    +0.000 C 
BRANCH  10  11
ATOM     11  C   UNL     1      45.253   6.051  12.006  0.00  0.00    +0.000 C 
ATOM     12  C   UNL     1      45.073   5.256  10.693  0.00  0.00    +0.000 C 
ATOM     13  C   UNL     1      44.315   3.953  10.916  0.00  0.00    +0.000 C 
ATOM     14  C   UNL     1      42.996   4.216  11.629  0.00  0.00    +0.000 C 
ATOM     15  C   UNL     1      43.216   5.034  12.898  0.00  0.00    +0.000 C 
ATOM     16  N   UNL     1      43.922   6.290  12.625  0.00  0.00    +0.000 NA
ATOM     17  H   UNL     1      44.044   6.796  13.503  0.00  0.00    +0.000 HD
ENDBRANCH  10  11
BRANCH  10  18
ATOM     18  C   UNL     1      45.285   8.575  12.535  0.00  0.00    +0.000 C 
BRANCH  18  19
ATOM     19  N   UNL     1      44.213   9.229  11.777  0.00  0.00    +0.000 NA
ATOM     20  H   UNL     1      44.577  10.064  11.323  0.00  0.00    +0.000 HD
ATOM     21  H   UNL     1      43.462   9.520  12.398  0.00  0.00    +0.000 HD
ENDBRANCH  18  19
ENDBRANCH  10  18
ENDBRANCH   8  10
ENDBRANCH   7   8
ENDBRANCH   1   7
BRANCH   4  22
ATOM     22  C   UNL     1      50.397   7.894  17.876  0.00  0.00    +0.000 C 
BRANCH  22  23
ATOM     23  N   UNL     1      51.156   6.667  17.952  0.00  0.00    +0.000 N 
ATOM     24  C   UNL     1      51.380   6.007  19.126  0.00  0.00    +0.000 C 
ATOM     25  O   UNL     1      50.907   6.389  20.193  0.00  0.00    +0.000 OA
ATOM     26  H   UNL     1      51.732   6.472  17.139  0.00  0.00    +0.000 HD
BRANCH  24  27
ATOM     27  C   UNL     1      52.148   4.761  19.029  0.00  0.00    +0.000 A 
ATOM     28  C   UNL     1      53.380   4.660  19.662  0.00  0.00    +0.000 A 
ATOM     29  S   UNL     1      54.090   3.116  19.531  0.00  0.00    +0.000 S 
ATOM     30  C   UNL     1      52.807   2.541  18.574  0.00  0.00    +0.000 A 
ATOM     31  N   UNL     1      52.795   1.268  18.108  0.00  0.00    +0.000 NA
ATOM     32  C   UNL     1      51.769   0.974  17.376  0.00  0.00    +0.000 A 
ATOM     33  N   UNL     1      50.759   1.847  17.064  0.00  0.00    +0.000 N 
ATOM     34  C   UNL     1      50.724   3.144  17.520  0.00  0.00    +0.000 A 
ATOM     35  O   UNL     1      49.799   3.894  17.228  0.00  0.00    +0.000 OA
ATOM     36  C   UNL     1      51.846   3.518  18.359  0.00  0.00    +0.000 A 
ATOM     37  H   UNL     1      49.983   1.560  16.486  0.00  0.00    +0.000 HD
ENDBRANCH  24  27
ENDBRANCH  22  23
ENDBRANCH   4  22
TORSDOF 9
ENDMDL
