MODEL 1
REMARK VINA RESULT:    -6.985      0.000      0.000
REMARK INTER + INTRA:          -9.443
REMARK INTER:                  -8.823
REMARK INTRA:                  -0.620
REMARK UNBOUND:                -0.620
REMARK  Name = 
REMARK  5 active torsions:
REMARK  status: ('A' for Active; 'I' for Inactive)
REMARK    1  A    between atoms: N_1  and  C_2
REMARK    2  A    between atoms: C_2  and  C_3
REMARK    3  A    between atoms: C_6  and  O_7
REMARK    4  A    between atoms: O_7  and  C_8
REMARK    5  A    between atoms: C_8  and  C_9
REMARK                            x       y       z     vdW  Elec       q    Type
REMARK                         _______ _______ _______ _____ _____    ______ ____
ROOT
ATOM      1  C   UNL     1      46.610   2.317   7.588  0.00  0.00    +0.000 A 
ATOM      2  C   UNL     1      46.435   3.707   7.532  0.00  0.00    +0.000 A 
ATOM      3  C   UNL     1      45.462   4.333   8.313  0.00  0.00    +0.000 A 
ATOM      4  C   UNL     1      44.642   3.579   9.153  0.00  0.00    +0.000 A 
ATOM      5  C   UNL     1      44.844   2.201   9.250  0.00  0.00    +0.000 A 
ATOM      6  C   UNL     1      45.811   1.573   8.463  0.00  0.00    +0.000 A 
ENDROOT
BRANCH   1   7
ATOM      7  C   UNL     1      47.622   1.624   6.712  0.00  0.00    +0.000 C 
BRANCH   7   8
ATOM      8  N   UNL     1      48.658   2.542   6.260  0.00  0.00    +0.000 NA
ATOM      9  H   UNL     1      49.008   2.229   5.357  0.00  0.00    +0.000 HD
ATOM     10  H   UNL     1      49.444   2.492   6.907  0.00  0.00    +0.000 HD
ENDBRANCH   7   8
ENDBRANCH   1   7
BRANCH   4  11
ATOM     11  O   UNL     1      43.679   4.279   9.831  0.00  0.00    +0.000 OA
BRANCH  11  12
ATOM     12  C   UNL     1      43.531   3.914  11.205  0.00  0.00    +0.000 C 
BRANCH  12  13
ATOM     13  C   UNL     1      44.597   4.593  12.022  0.00  0.00    +0.000 A 
ATOM     14  C   UNL     1      45.565   3.841  12.692  0.00  0.00    +0.000 A 
ATOM     15  C   UNL     1      46.540   4.507  13.415  0.00  0.00    +0.000 A 
ATOM     16  N   UNL     1      46.613   5.850  13.514  0.00  0.00    +0.000 NA
ATOM     17  C   UNL     1      45.662   6.559  12.867  0.00  0.00    +0.000 A 
ATOM     18  C   UNL     1      44.647   5.985  12.118  0.00  0.00    +0.000 A 
ENDBRANCH  12  13
ENDBRANCH  11  12
ENDBRANCH   4  11
TORSDOF 5
ENDMDL
MODEL 2
REMARK VINA RESULT:    -6.812      1.265      5.696
REMARK INTER + INTRA:          -9.224
REMARK INTER:                  -8.717
REMARK INTRA:                  -0.506
REMARK UNBOUND:                -0.620
REMARK  Name = 
REMARK  5 active torsions:
REMARK  status: ('A' for Active; 'I' for Inactive)
REMARK    1  A    between atoms: N_1  and  C_2
REMARK    2  A    between atoms: C_2  and  C_3
REMARK    3  A    between atoms: C_6  and  O_7
REMARK    4  A    between atoms: O_7  and  C_8
REMARK    5  A    between atoms: C_8  and  C_9
REMARK                            x       y       z     vdW  Elec       q    Type
REMARK                         _______ _______ _______ _____ _____    ______ ____
ROOT
ATOM      1  C   UNL     1      46.359   5.508  12.672  0.00  0.00    +0.000 A 
ATOM      2  C   UNL     1      46.059   6.043  11.410  0.00  0.00    +0.000 A 
ATOM      3  C   UNL     1      45.355   5.290  10.469  0.00  0.00    +0.000 A 
ATOM      4  C   UNL     1      44.951   3.989  10.768  0.00  0.00    +0.000 A 
ATOM      5  C   UNL     1      45.204   3.469  12.039  0.00  0.00    +0.000 A 
ATOM      6  C   UNL     1      45.914   4.217  12.978  0.00  0.00    +0.000 A 
ENDROOT
BRANCH   1   7
ATOM      7  C   UNL     1      47.162   6.292  13.678  0.00  0.00    +0.000 C 
BRANCH   7   8
ATOM      8  N   UNL     1      47.609   5.453  14.780  0.00  0.00    +0.000 NA
ATOM      9  H   UNL     1      48.164   6.015  15.422  0.00  0.00    +0.000 HD
ATOM     10  H   UNL     1      48.232   4.735  14.413  0.00  0.00    +0.000 HD
ENDBRANCH   7   8
ENDBRANCH   1   7
BRANCH   4  11
ATOM     11  O   UNL     1      44.321   3.312   9.756  0.00  0.00    +0.000 OA
BRANCH  11  12
ATOM     12  C   UNL     1      44.673   3.744   8.440  0.00  0.00    +0.000 C 
BRANCH  12  13
ATOM     13  C   UNL     1      45.802   2.896   7.919  0.00  0.00    +0.000 A 
ATOM     14  C   UNL     1      45.864   1.533   8.219  0.00  0.00    +0.000 A 
ATOM     15  C   UNL     1      46.908   0.786   7.701  0.00  0.00    +0.000 A 
ATOM     16  N   UNL     1      47.880   1.298   6.917  0.00  0.00    +0.000 NA
ATOM     17  C   UNL     1      47.807   2.620   6.647  0.00  0.00    +0.000 A 
ATOM     18  C   UNL     1      46.801   3.450   7.116  0.00  0.00    +0.000 A 
ENDBRANCH  12  13
ENDBRANCH  11  12
ENDBRANCH   4  11
TORSDOF 5
ENDMDL
MODEL 3
REMARK VINA RESULT:    -6.069      1.464      6.169
REMARK INTER + INTRA:          -8.285
REMARK INTER:                  -7.825
REMARK INTRA:                  -0.460
REMARK UNBOUND:                -0.620
REMARK  Name = 
REMARK  5 active torsions:
REMARK  status: ('A' for Active; 'I' for Inactive)
REMARK    1  A    between atoms: N_1  and  C_2
REMARK    2  A    between atoms: C_2  and  C_3
REMARK    3  A    between atoms: C_6  and  O_7
REMARK    4  A    between atoms: O_7  and  C_8
REMARK    5  A    between atoms: C_8  and  C_9
REMARK                            x       y       z     vdW  Elec       q    Type
REMARK                         _______ _______ _______ _____ _____    ______ ____
ROOT
ATOM      1  C   UNL     1      45.799   6.854  12.520  0.00  0.00    +0.000 A 
ATOM      2  C   UNL     1      46.092   5.579  13.028  0.00  0.00    +0.000 A 
ATOM      3  C   UNL     1      45.785   4.434  12.291  0.00  0.00    +0.000 A 
ATOM      4  C   UNL     1      45.171   4.543  11.043  0.00  0.00    +0.000 A 
ATOM      5  C   UNL     1      44.922   5.810  10.512  0.00  0.00    +0.000 A 
ATOM      6  C   UNL     1      45.221   6.956  11.250  0.00  0.00    +0.000 A 
ENDROOT
BRANCH   1   7
ATOM      7  C   UNL     1      46.080   8.095  13.328  0.00  0.00    +0.000 C 
BRANCH   7   8
ATOM      8  N   UNL     1      45.162   9.174  12.992  0.00  0.00    +0.000 NA
ATOM      9  H   UNL     1      44.731   8.976  12.091  0.00  0.00    +0.000 HD
ATOM     10  H   UNL     1      45.696  10.034  12.873  0.00  0.00    +0.000 HD
ENDBRANCH   7   8
ENDBRANCH   1   7
BRANCH   4  11
ATOM     11  O   UNL     1      44.855   3.360  10.429  0.00  0.00    +0.000 OA
BRANCH  11  12
ATOM     12  C   UNL     1      44.610   3.463   9.025  0.00  0.00    +0.000 C 
BRANCH  12  13
ATOM     13  C   UNL     1      45.698   2.746   8.272  0.00  0.00    +0.000 A 
ATOM     14  C   UNL     1      46.560   3.450   7.427  0.00  0.00    +0.000 A 
ATOM     15  C   UNL     1      47.561   2.753   6.770  0.00  0.00    +0.000 A 
ATOM     16  N   UNL     1      47.756   1.424   6.896  0.00  0.00    +0.000 NA
ATOM     17  C   UNL     1      46.905   0.760   7.709  0.00  0.00    +0.000 A 
ATOM     18  C   UNL     1      45.875   1.368   8.411  0.00  0.00    +0.000 A 
ENDBRANCH  12  13
ENDBRANCH  11  12
ENDBRANCH   4  11
TORSDOF 5
ENDMDL
MODEL 4
REMARK VINA RESULT:    -5.197      4.147      7.997
REMARK INTER + INTRA:          -7.184
REMARK INTER:                  -6.806
REMARK INTRA:                  -0.378
REMARK UNBOUND:                -0.620
REMARK  Name = 
REMARK  5 active torsions:
REMARK  status: ('A' for Active; 'I' for Inactive)
REMARK    1  A    between atoms: N_1  and  C_2
REMARK    2  A    between atoms: C_2  and  C_3
REMARK    3  A    between atoms: C_6  and  O_7
REMARK    4  A    between atoms: O_7  and  C_8
REMARK    5  A    between atoms: C_8  and  C_9
REMARK                            x       y       z     vdW  Elec       q    Type
REMARK                         _______ _______ _______ _____ _____    ______ ____
ROOT
ATOM      1  C   UNL     1      48.598   4.445  18.372  0.00  0.00    +0.000 A 
ATOM      2  C   UNL     1      48.426   5.449  17.408  0.00  0.00    +0.000 A 
ATOM      3  C   UNL     1      47.922   5.138  16.143  0.00  0.00    +0.000 A 
ATOM      4  C   UNL     1      47.594   3.822  15.819  0.00  0.00    +0.000 A 
ATOM      5  C   UNL     1      47.717   2.828  16.792  0.00  0.00    +0.000 A 
ATOM      6  C   UNL     1      48.227   3.134  18.054  0.00  0.00    +0.000 A 
ENDROOT
BRANCH   1   7
ATOM      7  C   UNL     1      49.188   4.759  19.724  0.00  0.00    +0.000 C 
BRANCH   7   8
ATOM      8  N   UNL     1      48.576   3.960  20.776  0.00  0.00    +0.000 NA
ATOM      9  H   UNL     1      47.659   3.646  20.465  0.00  0.00    +0.000 HD
ATOM     10  H   UNL     1      48.417   4.555  21.588  0.00  0.00    +0.000 HD
ENDBRANCH   7   8
ENDBRANCH   1   7
BRANCH   4  11
ATOM     11  O   UNL     1      47.167   3.612  14.535  0.00  0.00    +0.000 OA
BRANCH  11  12
ATOM     12  C   UNL     1      46.758   4.792  13.841  0.00  0.00    +0.000 C 
BRANCH  12  13
ATOM     13  C   UNL     1      45.466   4.527  13.117  0.00  0.00    +0.000 A 
ATOM     14  C   UNL     1      44.418   5.450  13.171  0.00  0.00    +0.000 A 
ATOM     15  C   UNL     1      43.255   5.175  12.472  0.00  0.00    +0.000 A 
ATOM     16  N   UNL     1      43.068   4.061  11.735  0.00  0.00    +0.000 NA
ATOM     17  C   UNL     1      44.089   3.176  11.704  0.00  0.00    +0.000 A 
ATOM     18  C   UNL     1      45.292   3.361  12.367  0.00  0.00    +0.000 A 
ENDBRANCH  12  13
ENDBRANCH  11  12
ENDBRANCH   4  11
TORSDOF 5
ENDMDL
MODEL 5
REMARK VINA RESULT:    -4.781      3.835      5.522
REMARK INTER + INTRA:          -6.659
REMARK INTER:                  -6.240
REMARK INTRA:                  -0.419
REMARK UNBOUND:                -0.620
REMARK  Name = 
REMARK  5 active torsions:
REMARK  status: ('A' for Active; 'I' for Inactive)
REMARK    1  A    between atoms: N_1  and  C_2
REMARK    2  A    between atoms: C_2  and  C_3
REMARK    3  A    between atoms: C_6  and  O_7
REMARK    4  A    between atoms: O_7  and  C_8
REMARK    5  A    between atoms: C_8  and  C_9
REMARK                            x       y       z     vdW  Elec       q    Type
REMARK                         _______ _______ _______ _____ _____    ______ ____
ROOT
ATOM      1  C   UNL     1      44.787   3.903  11.233  0.00  0.00    +0.000 A 
ATOM      2  C   UNL     1      45.092   5.089  10.549  0.00  0.00    +0.000 A 
ATOM      3  C   UNL     1      45.906   6.059  11.138  0.00  0.00    +0.000 A 
ATOM      4  C   UNL     1      46.418   5.864  12.421  0.00  0.00    +0.000 A 
ATOM      5  C   UNL     1      46.157   4.665  13.087  0.00  0.00    +0.000 A 
ATOM      6  C   UNL     1      45.337   3.698  12.503  0.00  0.00    +0.000 A 
ENDROOT
BRANCH   1   7
ATOM      7  C   UNL     1      43.868   2.872  10.629  0.00  0.00    +0.000 C 
BRANCH   7   8
ATOM      8  N   UNL     1      43.077   2.195  11.646  0.00  0.00    +0.000 NA
ATOM      9  H   UNL     1      43.416   1.241  11.752  0.00  0.00    +0.000 HD
ATOM     10  H   UNL     1      42.114   2.124  11.319  0.00  0.00    +0.000 HD
ENDBRANCH   7   8
ENDBRANCH   1   7
BRANCH   4  11
ATOM     11  O   UNL     1      47.154   6.900  12.933  0.00  0.00    +0.000 OA
BRANCH  11  12
ATOM     12  C   UNL     1      48.569   6.748  12.806  0.00  0.00    +0.000 C 
BRANCH  12  13
ATOM     13  C   UNL     1      49.149   7.976  12.158  0.00  0.00    +0.000 A 
ATOM     14  C   UNL     1      48.360   9.111  11.951  0.00  0.00    +0.000 A 
ATOM     15  C   UNL     1      48.940  10.226  11.372  0.00  0.00    +0.000 A 
ATOM     16  N   UNL     1      50.233  10.286  10.990  0.00  0.00    +0.000 NA
ATOM     17  C   UNL     1      50.976   9.176  11.190  0.00  0.00    +0.000 A 
ATOM     18  C   UNL     1      50.488   8.012  11.763  0.00  0.00    +0.000 A 
ENDBRANCH  12  13
ENDBRANCH  11  12
ENDBRANCH   4  11
TORSDOF 5
ENDMDL
MODEL 6
REMARK VINA RESULT:    -4.673      2.723      4.029
REMARK INTER + INTRA:          -6.522
REMARK INTER:                  -6.074
REMARK INTRA:                  -0.448
REMARK UNBOUND:                -0.620
REMARK  Name = 
REMARK  5 active torsions:
REMARK  status: ('A' for Active; 'I' for Inactive)
REMARK    1  A    between atoms: N_1  and  C_2
REMARK    2  A    between atoms: C_2  and  C_3
REMARK    3  A    between atoms: C_6  and  O_7
REMARK    4  A    between atoms: O_7  and  C_8
REMARK    5  A    between atoms: C_8  and  C_9
REMARK                            x       y       z     vdW  Elec       q    Type
REMARK                         _______ _______ _______ _____ _____    ______ ____
ROOT
ATOM      1  C   UNL     1      44.769   3.413   9.896  0.00  0.00    +0.000 A 
ATOM      2  C   UNL     1      44.481   3.159  11.245  0.00  0.00    +0.000 A 
ATOM      3  C   UNL     1      44.731   4.127  12.219  0.00  0.00    +0.000 A 
ATOM      4  C   UNL     1      45.281   5.359  11.863  0.00  0.00    +0.000 A 
ATOM      5  C   UNL     1      45.523   5.636  10.516  0.00  0.00    +0.000 A 
ATOM      6  C   UNL     1      45.282   4.666   9.542  0.00  0.00    +0.000 A 
ENDROOT
BRANCH   1   7
ATOM      7  C   UNL     1      44.551   2.358   8.842  0.00  0.00    +0.000 C 
BRANCH   7   8
ATOM      8  N   UNL     1      45.632   1.383   8.826  0.00  0.00    +0.000 NA
ATOM      9  H   UNL     1      45.902   1.170   9.784  0.00  0.00    +0.000 HD
ATOM     10  H   UNL     1      46.448   1.806   8.384  0.00  0.00    +0.000 HD
ENDBRANCH   7   8
ENDBRANCH   1   7
BRANCH   4  11
ATOM     11  O   UNL     1      45.545   6.216  12.898  0.00  0.00    +0.000 OA
BRANCH  11  12
ATOM     12  C   UNL     1      46.006   7.509  12.501  0.00  0.00    +0.000 C 
BRANCH  12  13
ATOM     13  C   UNL     1      47.486   7.612  12.752  0.00  0.00    +0.000 A 
ATOM     14  C   UNL     1      47.991   7.576  14.054  0.00  0.00    +0.000 A 
ATOM     15  C   UNL     1      49.361   7.652  14.238  0.00  0.00    +0.000 A 
ATOM     16  N   UNL     1      50.248   7.761  13.227  0.00  0.00    +0.000 NA
ATOM     17  C   UNL     1      49.739   7.805  11.975  0.00  0.00    +0.000 A 
ATOM     18  C   UNL     1      48.385   7.733  11.690  0.00  0.00    +0.000 A 
ENDBRANCH  12  13
ENDBRANCH  11  12
ENDBRANCH   4  11
TORSDOF 5
ENDMDL
MODEL 7
REMARK VINA RESULT:    -4.627      3.357      6.072
REMARK INTER + INTRA:          -6.465
REMARK INTER:                  -6.047
REMARK INTRA:                  -0.418
REMARK UNBOUND:                -0.620
REMARK  Name = 
REMARK  5 active torsions:
REMARK  status: ('A' for Active; 'I' for Inactive)
REMARK    1  A    between atoms: N_1  and  C_2
REMARK    2  A    between atoms: C_2  and  C_3
REMARK    3  A    between atoms: C_6  and  O_7
REMARK    4  A    between atoms: O_7  and  C_8
REMARK    5  A    between atoms: C_8  and  C_9
REMARK                            x       y       z     vdW  Elec       q    Type
REMARK                         _______ _______ _______ _____ _____    ______ ____
ROOT
ATOM      1  C   UNL     1      49.638   7.793  12.796  0.00  0.00    +0.000 A 
ATOM      2  C   UNL     1      49.355   7.201  14.036  0.00  0.00    +0.000 A 
ATOM      3  C   UNL     1      48.148   6.528  14.242  0.00  0.00    +0.000 A 
ATOM      4  C   UNL     1      47.204   6.447  13.218  0.00  0.00    +0.000 A 
ATOM      5  C   UNL     1      47.502   6.992  11.968  0.00  0.00    +0.000 A 
ATOM      6  C   UNL     1      48.703   7.671  11.762  0.00  0.00    +0.000 A 
ENDROOT
BRANCH   1   7
ATOM      7  C   UNL     1      50.915   8.565  12.578  0.00  0.00    +0.000 C 
BRANCH   7   8
ATOM      8  N   UNL     1      51.970   8.125  13.480  0.00  0.00    +0.000 NA
ATOM      9  H   UNL     1      52.645   8.878  13.593  0.00  0.00    +0.000 HD
ATOM     10  H   UNL     1      52.470   7.351  13.045  0.00  0.00    +0.000 HD
ENDBRANCH   7   8
ENDBRANCH   1   7
BRANCH   4  11
ATOM     11  O   UNL     1      46.029   5.820  13.539  0.00  0.00    +0.000 OA
BRANCH  11  12
ATOM     12  C   UNL     1      44.932   6.131  12.679  0.00  0.00    +0.000 C 
BRANCH  12  13
ATOM     13  C   UNL     1      44.519   4.895  11.926  0.00  0.00    +0.000 A 
ATOM     14  C   UNL     1      43.747   3.909  12.547  0.00  0.00    +0.000 A 
ATOM     15  C   UNL     1      43.372   2.798  11.811  0.00  0.00    +0.000 A 
ATOM     16  N   UNL     1      43.708   2.606  10.518  0.00  0.00    +0.000 NA
ATOM     17  C   UNL     1      44.462   3.566   9.939  0.00  0.00    +0.000 A 
ATOM     18  C   UNL     1      44.886   4.714  10.591  0.00  0.00    +0.000 A 
ENDBRANCH  12  13
ENDBRANCH  11  12
ENDBRANCH   4  11
TORSDOF 5
ENDMDL
MODEL 8
REMARK VINA RESULT:    -4.613      4.104      6.165
REMARK INTER + INTRA:          -6.447
REMARK INTER:                  -6.153
REMARK INTRA:                  -0.294
REMARK UNBOUND:                -0.620
REMARK  Name = 
REMARK  5 active torsions:
REMARK  status: ('A' for Active; 'I' for Inactive)
REMARK    1  A    between atoms: N_1  and  C_2
REMARK    2  A    between atoms: C_2  and  C_3
REMARK    3  A    between atoms: C_6  and  O_7
REMARK    4  A    between atoms: O_7  and  C_8
REMARK    5  A    between atoms: C_8  and  C_9
REMARK                            x       y       z     vdW  Elec       q    Type
REMARK                         _______ _______ _______ _____ _____    ______ ____
ROOT
ATOM      1  C   UNL     1      45.146   4.510  11.658  0.00  0.00    +0.000 A 
ATOM      2  C   UNL     1      45.585   3.375  12.356  0.00  0.00    +0.000 A 
ATOM      3  C   UNL     1      46.416   3.505  13.471  0.00  0.00    +0.000 A 
ATOM      4  C   UNL     1      46.830   4.767  13.898  0.00  0.00    +0.000 A 
ATOM      5  C   UNL     1      46.356   5.901  13.237  0.00  0.00    +0.000 A 
ATOM      6  C   UNL     1      45.533   5.774  12.118  0.00  0.00    +0.000 A 
ENDROOT
BRANCH   1   7
ATOM      7  C   UNL     1      44.291   4.380  10.424  0.00  0.00    +0.000 C 
BRANCH   7   8
ATOM      8  N   UNL     1      43.297   5.441  10.346  0.00  0.00    +0.000 NA
ATOM      9  H   UNL     1      42.792   5.490  11.228  0.00  0.00    +0.000 HD
ATOM     10  H   UNL     1      42.610   5.194   9.634  0.00  0.00    +0.000 HD
ENDBRANCH   7   8
ENDBRANCH   1   7
BRANCH   4  11
ATOM     11  O   UNL     1      47.692   4.783  14.962  0.00  0.00    +0.000 OA
BRANCH  11  12
ATOM     12  C   UNL     1      47.271   4.008  16.085  0.00  0.00    +0.000 C 
BRANCH  12  13
ATOM     13  C   UNL     1      48.050   4.424  17.304  0.00  0.00    +0.000 A 
ATOM     14  C   UNL     1      47.447   5.187  18.307  0.00  0.00    +0.000 A 
ATOM     15  C   UNL     1      48.194   5.529  19.421  0.00  0.00    +0.000 A 
ATOM     16  N   UNL     1      49.482   5.169  19.599  0.00  0.00    +0.000 NA
ATOM     17  C   UNL     1      50.050   4.440  18.613  0.00  0.00    +0.000 A 
ATOM     18  C   UNL     1      49.385   4.046  17.462  0.00  0.00    +0.000 A 
ENDBRANCH  12  13
ENDBRANCH  11  12
ENDBRANCH   4  11
TORSDOF 5
ENDMDL
MODEL 9
REMARK VINA RESULT:    -4.549      2.689      5.695
REMARK INTER + INTRA:          -6.366
REMARK INTER:                  -5.778
REMARK INTRA:                  -0.588
REMARK UNBOUND:                -0.620
REMARK  Name = 
REMARK  5 active torsions:
REMARK  status: ('A' for Active; 'I' for Inactive)
REMARK    1  A    between atoms: N_1  and  C_2
REMARK    2  A    between atoms: C_2  and  C_3
REMARK    3  A    between atoms: C_6  and  O_7
REMARK    4  A    between atoms: O_7  and  C_8
REMARK    5  A    between atoms: C_8  and  C_9
REMARK                            x       y       z     vdW  Elec       q    Type
REMARK                         _______ _______ _______ _____ _____    ______ ____
ROOT
ATOM      1  C   UNL     1      48.458   7.916  12.414  0.00  0.00    +0.000 A 
ATOM      2  C   UNL     1      47.192   8.459  12.151  0.00  0.00    +0.000 A 
ATOM      3  C   UNL     1      46.041   7.684  12.310  0.00  0.00    +0.000 A 
ATOM      4  C   UNL     1      46.138   6.355  12.721  0.00  0.00    +0.000 A 
ATOM      5  C   UNL     1      47.391   5.824  13.031  0.00  0.00    +0.000 A 
ATOM      6  C   UNL     1      48.544   6.594  12.865  0.00  0.00    +0.000 A 
ENDROOT
BRANCH   1   7
ATOM      7  C   UNL     1      49.711   8.726  12.198  0.00  0.00    +0.000 C 
BRANCH   7   8
ATOM      8  N   UNL     1      49.437   9.955  11.468  0.00  0.00    +0.000 NA
ATOM      9  H   UNL     1      49.307   9.734  10.483  0.00  0.00    +0.000 HD
ATOM     10  H   UNL     1      50.258  10.557  11.522  0.00  0.00    +0.000 HD
ENDBRANCH   7   8
ENDBRANCH   1   7
BRANCH   4  11
ATOM     11  O   UNL     1      44.957   5.663  12.787  0.00  0.00    +0.000 OA
BRANCH  11  12
ATOM     12  C   UNL     1      44.119   5.802  11.638  0.00  0.00    +0.000 C 
BRANCH  12  13
ATOM     13  C   UNL     1      44.523   4.793  10.597  0.00  0.00    +0.000 A 
ATOM     14  C   UNL     1      44.125   3.458  10.710  0.00  0.00    +0.000 A 
ATOM     15  C   UNL     1      44.501   2.567   9.718  0.00  0.00    +0.000 A 
ATOM     16  N   UNL     1      45.235   2.912   8.640  0.00  0.00    +0.000 NA
ATOM     17  C   UNL     1      45.617   4.206   8.555  0.00  0.00    +0.000 A 
ATOM     18  C   UNL     1      45.290   5.171   9.494  0.00  0.00    +0.000 A 
ENDBRANCH  12  13
ENDBRANCH  11  12
ENDBRANCH   4  11
TORSDOF 5
ENDMDL
