MODEL 1
REMARK VINA RESULT:    -8.989      0.000      0.000
REMARK INTER + INTRA:         -12.764
REMARK INTER:                 -12.142
REMARK INTRA:                  -0.622
REMARK UNBOUND:                -0.622
REMARK  Name = 
REMARK  8 active torsions:
REMARK  status: ('A' for Active; 'I' for Inactive)
REMARK    1  A    between atoms: C_1  and  C_2
REMARK    2  A    between atoms: C_2  and  C_3
REMARK    3  A    between atoms: C_5  and  N_6
REMARK    4  A    between atoms: N_6  and  C_7
REMARK    5  A    between atoms: C_11  and  C_12
REMARK    6  A    between atoms: C_12  and  C_13
REMARK    7  A    between atoms: C_13  and  N_14
REMARK    8  A    between atoms: C_18  and  C_19
REMARK                            x       y       z     vdW  Elec       q    Type
REMARK                         _______ _______ _______ _____ _____    ______ ____
ROOT
ATOM      1  C   UNL     1      43.103   5.292  12.245  0.00  0.00    +0.000 C 
ENDROOT
BRANCH   1   6
ATOM      2  C   UNL     1      46.507   4.869  14.016  0.00  0.00    +0.000 A 
ATOM      3  C   UNL     1      47.162   6.017  13.581  0.00  0.00    +0.000 A 
ATOM      4  C   UNL     1      46.490   6.963  12.804  0.00  0.00    +0.000 A 
ATOM      5  C   UNL     1      45.171   6.738  12.399  0.00  0.00    +0.000 A 
ATOM      6  C   UNL     1      44.505   5.563  12.772  0.00  0.00    +0.000 A 
ATOM      7  C   UNL     1      45.187   4.654  13.600  0.00  0.00    +0.000 A 
BRANCH   2   8
ATOM      8  N   UNL     1      47.151   3.843  14.728  0.00  0.00    +0.000 N 
ATOM      9  H   UNL     1      47.239   2.974  14.206  0.00  0.00    +0.000 HD
BRANCH   8  14
ATOM     10  C   UNL     1      48.397   3.621  18.948  0.00  0.00    +0.000 C 
ATOM     11  C   UNL     1      48.971   3.650  17.532  0.00  0.00    +0.000 C 
ATOM     12  C   UNL     1      50.495   3.601  17.541  0.00  0.00    +0.000 C 
ATOM     13  C   UNL     1      48.382   4.780  16.643  0.00  0.00    +0.000 C 
ATOM     14  C   UNL     1      47.327   3.764  16.136  0.00  0.00    +0.000 C 
ATOM     15  C   UNL     1      48.308   2.642  16.547  0.00  0.00    +0.000 C 
ENDBRANCH   8  14
ENDBRANCH   2   8
ENDBRANCH   1   6
BRANCH   1  16
ATOM     16  C   UNL     1      43.074   4.476  10.947  0.00  0.00    +0.000 C 
BRANCH  16  17
ATOM     17  N   UNL     1      43.911   5.040   9.884  0.00  0.00    +0.000 N 
ATOM     18  C   UNL     1      44.676   4.030   9.254  0.00  0.00    +0.000 A 
ATOM     19  C   UNL     1      45.526   4.376   8.210  0.00  0.00    +0.000 A 
ATOM     20  C   UNL     1      46.287   3.381   7.586  0.00  0.00    +0.000 A 
ATOM     21  C   UNL     1      46.192   2.057   8.018  0.00  0.00    +0.000 A 
ATOM     22  C   UNL     1      45.314   1.801   9.054  0.00  0.00    +0.000 A 
ATOM     23  N   UNL     1      44.563   2.748   9.663  0.00  0.00    +0.000 NA
ATOM     24  H   UNL     1      44.553   5.746  10.236  0.00  0.00    +0.000 HD
BRANCH  21  25
ATOM     25  C   UNL     1      47.017   1.009   7.374  0.00  0.00    +0.000 C 
ATOM     26  N   UNL     1      46.747  -0.306   7.627  0.00  0.00    +0.000 N 
ATOM     27  O   UNL     1      47.944   1.306   6.625  0.00  0.00    +0.000 OA
ATOM     28  H   UNL     1      46.022  -0.665   8.229  0.00  0.00    +0.000 HD
ATOM     29  H   UNL     1      47.349  -0.982   7.173  0.00  0.00    +0.000 HD
ENDBRANCH  21  25
ENDBRANCH  16  17
ENDBRANCH   1  16
TORSDOF 6
ENDMDL
MODEL 2
REMARK VINA RESULT:    -7.730      2.823      8.159
REMARK INTER + INTRA:         -11.063
REMARK INTER:                 -10.326
REMARK INTRA:                  -0.737
REMARK UNBOUND:                -0.622
REMARK  Name = 
REMARK  8 active torsions:
REMARK  status: ('A' for Active; 'I' for Inactive)
REMARK    1  A    between atoms: C_1  and  C_2
REMARK    2  A    between atoms: C_2  and  C_3
REMARK    3  A    between atoms: C_5  and  N_6
REMARK    4  A    between atoms: N_6  and  C_7
REMARK    5  A    between atoms: C_11  and  C_12
REMARK    6  A    between atoms: C_12  and  C_13
REMARK    7  A    between atoms: C_13  and  N_14
REMARK    8  A    between atoms: C_18  and  C_19
REMARK                            x       y       z     vdW  Elec       q    Type
REMARK                         _______ _______ _______ _____ _____    ______ ____
ROOT
ATOM      1  C   UNL     1      46.688   7.528  12.323  0.00  0.00    +0.000 C 
ENDROOT
BRANCH   1   6
ATOM      2  C   UNL     1      44.633   5.093  10.144  0.00  0.00    +0.000 A 
ATOM      3  C   UNL     1      43.667   4.689  11.060  0.00  0.00    +0.000 A 
ATOM      4  C   UNL     1      43.617   5.260  12.334  0.00  0.00    +0.000 A 
ATOM      5  C   UNL     1      44.577   6.197  12.727  0.00  0.00    +0.000 A 
ATOM      6  C   UNL     1      45.598   6.579  11.847  0.00  0.00    +0.000 A 
ATOM      7  C   UNL     1      45.591   6.029  10.552  0.00  0.00    +0.000 A 
BRANCH   2   8
ATOM      8  N   UNL     1      44.786   4.498   8.881  0.00  0.00    +0.000 N 
ATOM      9  H   UNL     1      43.979   4.615   8.272  0.00  0.00    +0.000 HD
BRANCH   8  14
ATOM     10  C   UNL     1      47.617   1.625   7.110  0.00  0.00    +0.000 C 
ATOM     11  C   UNL     1      46.685   2.774   6.728  0.00  0.00    +0.000 C 
ATOM     12  C   UNL     1      46.734   3.066   5.233  0.00  0.00    +0.000 C 
ATOM     13  C   UNL     1      46.850   4.034   7.622  0.00  0.00    +0.000 C 
ATOM     14  C   UNL     1      45.714   3.484   8.523  0.00  0.00    +0.000 C 
ATOM     15  C   UNL     1      45.243   2.654   7.306  0.00  0.00    +0.000 C 
ENDBRANCH   8  14
ENDBRANCH   2   8
ENDBRANCH   1   6
BRANCH   1  16
ATOM     16  C   UNL     1      48.031   6.843  12.599  0.00  0.00    +0.000 C 
BRANCH  16  17
ATOM     17  N   UNL     1      48.625   7.221  13.885  0.00  0.00    +0.000 N 
ATOM     18  C   UNL     1      48.360   6.241  14.871  0.00  0.00    +0.000 A 
ATOM     19  C   UNL     1      48.854   6.423  16.157  0.00  0.00    +0.000 A 
ATOM     20  C   UNL     1      48.592   5.457  17.135  0.00  0.00    +0.000 A 
ATOM     21  C   UNL     1      47.835   4.329  16.816  0.00  0.00    +0.000 A 
ATOM     22  C   UNL     1      47.393   4.222  15.511  0.00  0.00    +0.000 A 
ATOM     23  N   UNL     1      47.645   5.141  14.549  0.00  0.00    +0.000 NA
ATOM     24  H   UNL     1      48.269   8.111  14.225  0.00  0.00    +0.000 HD
BRANCH  21  25
ATOM     25  C   UNL     1      47.536   3.320  17.859  0.00  0.00    +0.000 C 
ATOM     26  N   UNL     1      48.317   3.260  18.978  0.00  0.00    +0.000 N 
ATOM     27  O   UNL     1      46.602   2.532  17.727  0.00  0.00    +0.000 OA
ATOM     28  H   UNL     1      49.110   3.846  19.187  0.00  0.00    +0.000 HD
ATOM     29  H   UNL     1      48.078   2.544  19.653  0.00  0.00    +0.000 HD
ENDBRANCH  21  25
ENDBRANCH  16  17
ENDBRANCH   1  16
TORSDOF 6
ENDMDL
MODEL 3
REMARK VINA RESULT:    -7.610      3.237      8.770
REMARK INTER + INTRA:         -10.900
REMARK INTER:                 -10.246
REMARK INTRA:                  -0.654
REMARK UNBOUND:                -0.622
REMARK  Name = 
REMARK  8 active torsions:
REMARK  status: ('A' for Active; 'I' for Inactive)
REMARK    1  A    between atoms: C_1  and  C_2
REMARK    2  A    between atoms: C_2  and  C_3
REMARK    3  A    between atoms: C_5  and  N_6
REMARK    4  A    between atoms: N_6  and  C_7
REMARK    5  A    between atoms: C_11  and  C_12
REMARK    6  A    between atoms: C_12  and  C_13
REMARK    7  A    between atoms: C_13  and  N_14
REMARK    8  A    between atoms: C_18  and  C_19
REMARK                            x       y       z     vdW  Elec       q    Type
REMARK                         _______ _______ _______ _____ _____    ______ ____
ROOT
ATOM      1  C   UNL     1      46.346   6.083  13.298  0.00  0.00    +0.000 C 
ENDROOT
BRANCH   1   6
ATOM      2  C   UNL     1      44.364   4.886  10.209  0.00  0.00    +0.000 A 
ATOM      3  C   UNL     1      43.093   4.756  10.759  0.00  0.00    +0.000 A 
ATOM      4  C   UNL     1      42.853   5.135  12.082  0.00  0.00    +0.000 A 
ATOM      5  C   UNL     1      43.901   5.590  12.889  0.00  0.00    +0.000 A 
ATOM      6  C   UNL     1      45.202   5.676  12.380  0.00  0.00    +0.000 A 
ATOM      7  C   UNL     1      45.405   5.339  11.029  0.00  0.00    +0.000 A 
BRANCH   2   8
ATOM      8  N   UNL     1      44.686   4.446   8.915  0.00  0.00    +0.000 N 
ATOM      9  H   UNL     1      43.963   4.636   8.224  0.00  0.00    +0.000 HD
BRANCH   8  14
ATOM     10  C   UNL     1      47.658   1.707   7.160  0.00  0.00    +0.000 C 
ATOM     11  C   UNL     1      46.660   2.796   6.770  0.00  0.00    +0.000 C 
ATOM     12  C   UNL     1      46.680   3.067   5.270  0.00  0.00    +0.000 C 
ATOM     13  C   UNL     1      46.762   4.077   7.644  0.00  0.00    +0.000 C 
ATOM     14  C   UNL     1      45.667   3.479   8.563  0.00  0.00    +0.000 C 
ATOM     15  C   UNL     1      45.232   2.605   7.363  0.00  0.00    +0.000 C 
ENDBRANCH   8  14
ENDBRANCH   2   8
ENDBRANCH   1   6
BRANCH   1  16
ATOM     16  C   UNL     1      47.308   4.938  13.637  0.00  0.00    +0.000 C 
BRANCH  16  17
ATOM     17  N   UNL     1      46.797   4.033  14.671  0.00  0.00    +0.000 N 
ATOM     18  C   UNL     1      47.517   4.190  15.879  0.00  0.00    +0.000 A 
ATOM     19  C   UNL     1      47.168   3.418  16.981  0.00  0.00    +0.000 A 
ATOM     20  C   UNL     1      47.879   3.568  18.177  0.00  0.00    +0.000 A 
ATOM     21  C   UNL     1      48.933   4.480  18.252  0.00  0.00    +0.000 A 
ATOM     22  C   UNL     1      49.205   5.214  17.113  0.00  0.00    +0.000 A 
ATOM     23  N   UNL     1      48.522   5.090  15.951  0.00  0.00    +0.000 NA
ATOM     24  H   UNL     1      46.863   3.057  14.392  0.00  0.00    +0.000 HD
BRANCH  21  25
ATOM     25  C   UNL     1      49.702   4.619  19.510  0.00  0.00    +0.000 C 
ATOM     26  N   UNL     1      49.127   4.248  20.693  0.00  0.00    +0.000 N 
ATOM     27  O   UNL     1      50.844   5.072  19.506  0.00  0.00    +0.000 OA
ATOM     28  H   UNL     1      48.198   3.876  20.817  0.00  0.00    +0.000 HD
ATOM     29  H   UNL     1      49.690   4.376  21.525  0.00  0.00    +0.000 HD
ENDBRANCH  21  25
ENDBRANCH  16  17
ENDBRANCH   1  16
TORSDOF 6
ENDMDL
MODEL 4
REMARK VINA RESULT:    -7.156      2.543      3.004
REMARK INTER + INTRA:         -10.287
REMARK INTER:                  -9.636
REMARK INTRA:                  -0.652
REMARK UNBOUND:                -0.622
REMARK  Name = 
REMARK  8 active torsions:
REMARK  status: ('A' for Active; 'I' for Inactive)
REMARK    1  A    between atoms: C_1  and  C_2
REMARK    2  A    between atoms: C_2  and  C_3
REMARK    3  A    between atoms: C_5  and  N_6
REMARK    4  A    between atoms: N_6  and  C_7
REMARK    5  A    between atoms: C_11  and  C_12
REMARK    6  A    between atoms: C_12  and  C_13
REMARK    7  A    between atoms: C_13  and  N_14
REMARK    8  A    between atoms: C_18  and  C_19
REMARK                            x       y       z     vdW  Elec       q    Type
REMARK                         _______ _______ _______ _____ _____    ______ ____
ROOT
ATOM      1  C   UNL     1      43.904   4.570  12.384  0.00  0.00    +0.000 C 
ENDROOT
BRANCH   1   6
ATOM      2  C   UNL     1      46.918   6.982  12.329  0.00  0.00    +0.000 A 
ATOM      3  C   UNL     1      46.281   8.173  11.995  0.00  0.00    +0.000 A 
ATOM      4  C   UNL     1      44.891   8.224  11.879  0.00  0.00    +0.000 A 
ATOM      5  C   UNL     1      44.125   7.063  12.035  0.00  0.00    +0.000 A 
ATOM      6  C   UNL     1      44.743   5.838  12.312  0.00  0.00    +0.000 A 
ATOM      7  C   UNL     1      46.140   5.827  12.477  0.00  0.00    +0.000 A 
BRANCH   2   8
ATOM      8  N   UNL     1      48.315   6.849  12.378  0.00  0.00    +0.000 N 
ATOM      9  H   UNL     1      48.721   6.460  11.529  0.00  0.00    +0.000 HD
BRANCH   8  14
ATOM     10  C   UNL     1      50.666   7.470  16.052  0.00  0.00    +0.000 C 
ATOM     11  C   UNL     1      49.814   8.229  15.036  0.00  0.00    +0.000 C 
ATOM     12  C   UNL     1      49.702   9.708  15.387  0.00  0.00    +0.000 C 
ATOM     13  C   UNL     1      48.450   7.548  14.734  0.00  0.00    +0.000 C 
ATOM     14  C   UNL     1      49.129   6.826  13.542  0.00  0.00    +0.000 C 
ATOM     15  C   UNL     1      50.186   7.955  13.548  0.00  0.00    +0.000 C 
ENDBRANCH   8  14
ENDBRANCH   2   8
ENDBRANCH   1   6
BRANCH   1  16
ATOM     16  C   UNL     1      43.335   4.124  11.033  0.00  0.00    +0.000 C 
BRANCH  16  17
ATOM     17  N   UNL     1      43.941   4.811   9.888  0.00  0.00    +0.000 N 
ATOM     18  C   UNL     1      44.781   3.935   9.161  0.00  0.00    +0.000 A 
ATOM     19  C   UNL     1      45.438   4.408   8.031  0.00  0.00    +0.000 A 
ATOM     20  C   UNL     1      46.272   3.546   7.310  0.00  0.00    +0.000 A 
ATOM     21  C   UNL     1      46.442   2.226   7.732  0.00  0.00    +0.000 A 
ATOM     22  C   UNL     1      45.741   1.836   8.858  0.00  0.00    +0.000 A 
ATOM     23  N   UNL     1      44.923   2.653   9.562  0.00  0.00    +0.000 NA
ATOM     24  H   UNL     1      44.498   5.613  10.175  0.00  0.00    +0.000 HD
BRANCH  21  25
ATOM     25  C   UNL     1      47.344   1.321   6.983  0.00  0.00    +0.000 C 
ATOM     26  N   UNL     1      48.375   1.850   6.259  0.00  0.00    +0.000 N 
ATOM     27  O   UNL     1      47.173   0.105   6.997  0.00  0.00    +0.000 OA
ATOM     28  H   UNL     1      48.603   2.828   6.168  0.00  0.00    +0.000 HD
ATOM     29  H   UNL     1      48.954   1.190   5.755  0.00  0.00    +0.000 HD
ENDBRANCH  21  25
ENDBRANCH  16  17
ENDBRANCH   1  16
TORSDOF 6
ENDMDL
MODEL 5
REMARK VINA RESULT:    -7.111      3.596      4.933
REMARK INTER + INTRA:         -10.227
REMARK INTER:                  -9.764
REMARK INTRA:                  -0.463
REMARK UNBOUND:                -0.622
REMARK  Name = 
REMARK  8 active torsions:
REMARK  status: ('A' for Active; 'I' for Inactive)
REMARK    1  A    between atoms: C_1  and  C_2
REMARK    2  A    between atoms: C_2  and  C_3
REMARK    3  A    between atoms: C_5  and  N_6
REMARK    4  A    between atoms: N_6  and  C_7
REMARK    5  A    between atoms: C_11  and  C_12
REMARK    6  A    between atoms: C_12  and  C_13
REMARK    7  A    between atoms: C_13  and  N_14
REMARK    8  A    between atoms: C_18  and  C_19
REMARK                            x       y       z     vdW  Elec       q    Type
REMARK                         _______ _______ _______ _____ _____    ______ ____
ROOT
ATOM      1  C   UNL     1      44.986   5.216  11.933  0.00  0.00    +0.000 C 
ENDROOT
BRANCH   1   6
ATOM      2  C   UNL     1      46.040   8.791  12.939  0.00  0.00    +0.000 A 
ATOM      3  C   UNL     1      45.258   9.539  12.065  0.00  0.00    +0.000 A 
ATOM      4  C   UNL     1      44.335   8.911  11.226  0.00  0.00    +0.000 A 
ATOM      5  C   UNL     1      44.230   7.516  11.208  0.00  0.00    +0.000 A 
ATOM      6  C   UNL     1      45.047   6.733  12.034  0.00  0.00    +0.000 A 
ATOM      7  C   UNL     1      45.928   7.395  12.907  0.00  0.00    +0.000 A 
BRANCH   2   8
ATOM      8  N   UNL     1      47.042   9.356  13.745  0.00  0.00    +0.000 N 
ATOM      9  H   UNL     1      46.685   9.842  14.564  0.00  0.00    +0.000 HD
BRANCH   8  14
ATOM     10  C   UNL     1      50.894  10.608  12.010  0.00  0.00    +0.000 C 
ATOM     11  C   UNL     1      49.390  10.656  11.742  0.00  0.00    +0.000 C 
ATOM     12  C   UNL     1      49.072  11.396  10.447  0.00  0.00    +0.000 C 
ATOM     13  C   UNL     1      48.554  11.134  12.962  0.00  0.00    +0.000 C 
ATOM     14  C   UNL     1      48.379   9.646  13.363  0.00  0.00    +0.000 C 
ATOM     15  C   UNL     1      48.664   9.285  11.886  0.00  0.00    +0.000 C 
ENDBRANCH   8  14
ENDBRANCH   2   8
ENDBRANCH   1   6
BRANCH   1  16
ATOM     16  C   UNL     1      43.829   4.696  11.072  0.00  0.00    +0.000 C 
BRANCH  16  17
ATOM     17  N   UNL     1      43.973   3.288  10.689  0.00  0.00    +0.000 N 
ATOM     18  C   UNL     1      44.822   3.156   9.564  0.00  0.00    +0.000 A 
ATOM     19  C   UNL     1      45.087   1.888   9.060  0.00  0.00    +0.000 A 
ATOM     20  C   UNL     1      45.923   1.754   7.946  0.00  0.00    +0.000 A 
ATOM     21  C   UNL     1      46.477   2.887   7.349  0.00  0.00    +0.000 A 
ATOM     22  C   UNL     1      46.171   4.107   7.922  0.00  0.00    +0.000 A 
ATOM     23  N   UNL     1      45.372   4.256   9.005  0.00  0.00    +0.000 NA
ATOM     24  H   UNL     1      43.080   2.860  10.458  0.00  0.00    +0.000 HD
BRANCH  21  25
ATOM     25  C   UNL     1      47.341   2.745   6.154  0.00  0.00    +0.000 C 
ATOM     26  N   UNL     1      48.681   2.531   6.317  0.00  0.00    +0.000 N 
ATOM     27  O   UNL     1      46.872   2.828   5.022  0.00  0.00    +0.000 OA
ATOM     28  H   UNL     1      49.174   2.456   7.193  0.00  0.00    +0.000 HD
ATOM     29  H   UNL     1      49.228   2.455   5.468  0.00  0.00    +0.000 HD
ENDBRANCH  21  25
ENDBRANCH  16  17
ENDBRANCH   1  16
TORSDOF 6
ENDMDL
MODEL 6
REMARK VINA RESULT:    -6.630      3.941      7.648
REMARK INTER + INTRA:          -9.577
REMARK INTER:                  -8.567
REMARK INTRA:                  -1.010
REMARK UNBOUND:                -0.622
REMARK  Name = 
REMARK  8 active torsions:
REMARK  status: ('A' for Active; 'I' for Inactive)
REMARK    1  A    between atoms: C_1  and  C_2
REMARK    2  A    between atoms: C_2  and  C_3
REMARK    3  A    between atoms: C_5  and  N_6
REMARK    4  A    between atoms: N_6  and  C_7
REMARK    5  A    between atoms: C_11  and  C_12
REMARK    6  A    between atoms: C_12  and  C_13
REMARK    7  A    between atoms: C_13  and  N_14
REMARK    8  A    between atoms: C_18  and  C_19
REMARK                            x       y       z     vdW  Elec       q    Type
REMARK                         _______ _______ _______ _____ _____    ______ ____
ROOT
ATOM      1  C   UNL     1      49.398   9.300  12.328  0.00  0.00    +0.000 C 
ENDROOT
BRANCH   1   6
ATOM      2  C   UNL     1      45.597   8.629  12.311  0.00  0.00    +0.000 A 
ATOM      3  C   UNL     1      45.117   9.904  12.027  0.00  0.00    +0.000 A 
ATOM      4  C   UNL     1      46.003  10.948  11.753  0.00  0.00    +0.000 A 
ATOM      5  C   UNL     1      47.385  10.741  11.823  0.00  0.00    +0.000 A 
ATOM      6  C   UNL     1      47.896   9.483  12.165  0.00  0.00    +0.000 A 
ATOM      7  C   UNL     1      46.982   8.437  12.382  0.00  0.00    +0.000 A 
BRANCH   2   8
ATOM      8  N   UNL     1      44.761   7.561  12.676  0.00  0.00    +0.000 N 
ATOM      9  H   UNL     1      43.916   7.849  13.165  0.00  0.00    +0.000 HD
BRANCH   8  14
ATOM     10  C   UNL     1      45.423   3.209  12.484  0.00  0.00    +0.000 C 
ATOM     11  C   UNL     1      44.557   4.315  11.880  0.00  0.00    +0.000 C 
ATOM     12  C   UNL     1      43.588   3.766  10.839  0.00  0.00    +0.000 C 
ATOM     13  C   UNL     1      45.369   5.548  11.396  0.00  0.00    +0.000 C 
ATOM     14  C   UNL     1      45.126   6.192  12.785  0.00  0.00    +0.000 C 
ATOM     15  C   UNL     1      43.898   5.262  12.926  0.00  0.00    +0.000 C 
ENDBRANCH   8  14
ENDBRANCH   2   8
ENDBRANCH   1   6
BRANCH   1  16
ATOM     16  C   UNL     1      49.802   7.915  12.848  0.00  0.00    +0.000 C 
BRANCH  16  17
ATOM     17  N   UNL     1      50.300   7.932  14.227  0.00  0.00    +0.000 N 
ATOM     18  C   UNL     1      49.599   7.001  15.028  0.00  0.00    +0.000 A 
ATOM     19  C   UNL     1      49.941   6.868  16.369  0.00  0.00    +0.000 A 
ATOM     20  C   UNL     1      49.248   5.950  17.166  0.00  0.00    +0.000 A 
ATOM     21  C   UNL     1      48.220   5.183  16.614  0.00  0.00    +0.000 A 
ATOM     22  C   UNL     1      47.955   5.370  15.270  0.00  0.00    +0.000 A 
ATOM     23  N   UNL     1      48.621   6.246  14.482  0.00  0.00    +0.000 NA
ATOM     24  H   UNL     1      50.205   8.849  14.657  0.00  0.00    +0.000 HD
BRANCH  21  25
ATOM     25  C   UNL     1      47.470   4.230  17.464  0.00  0.00    +0.000 C 
ATOM     26  N   UNL     1      47.822   4.081  18.776  0.00  0.00    +0.000 N 
ATOM     27  O   UNL     1      46.544   3.567  17.004  0.00  0.00    +0.000 OA
ATOM     28  H   UNL     1      48.566   4.562  19.255  0.00  0.00    +0.000 HD
ATOM     29  H   UNL     1      47.286   3.407  19.309  0.00  0.00    +0.000 HD
ENDBRANCH  21  25
ENDBRANCH  16  17
ENDBRANCH   1  16
TORSDOF 6
ENDMDL
MODEL 7
REMARK VINA RESULT:    -6.423      3.194      5.785
REMARK INTER + INTRA:          -9.297
REMARK INTER:                  -8.534
REMARK INTRA:                  -0.764
REMARK UNBOUND:                -0.622
REMARK  Name = 
REMARK  8 active torsions:
REMARK  status: ('A' for Active; 'I' for Inactive)
REMARK    1  A    between atoms: C_1  and  C_2
REMARK    2  A    between atoms: C_2  and  C_3
REMARK    3  A    between atoms: C_5  and  N_6
REMARK    4  A    between atoms: N_6  and  C_7
REMARK    5  A    between atoms: C_11  and  C_12
REMARK    6  A    between atoms: C_12  and  C_13
REMARK    7  A    between atoms: C_13  and  N_14
REMARK    8  A    between atoms: C_18  and  C_19
REMARK                            x       y       z     vdW  Elec       q    Type
REMARK                         _______ _______ _______ _____ _____    ______ ____
ROOT
ATOM      1  C   UNL     1      48.633   6.718  16.031  0.00  0.00    +0.000 C 
ENDROOT
BRANCH   1   6
ATOM      2  C   UNL     1      49.961   3.598  17.877  0.00  0.00    +0.000 A 
ATOM      3  C   UNL     1      48.779   2.885  18.048  0.00  0.00    +0.000 A 
ATOM      4  C   UNL     1      47.584   3.352  17.498  0.00  0.00    +0.000 A 
ATOM      5  C   UNL     1      47.548   4.577  16.823  0.00  0.00    +0.000 A 
ATOM      6  C   UNL     1      48.710   5.346  16.686  0.00  0.00    +0.000 A 
ATOM      7  C   UNL     1      49.909   4.824  17.202  0.00  0.00    +0.000 A 
BRANCH   2   8
ATOM      8  N   UNL     1      51.175   3.223  18.475  0.00  0.00    +0.000 N 
ATOM      9  H   UNL     1      51.289   3.569  19.425  0.00  0.00    +0.000 HD
BRANCH   8  14
ATOM     10  C   UNL     1      54.766   1.269  16.832  0.00  0.00    +0.000 C 
ATOM     11  C   UNL     1      53.693   1.090  17.905  0.00  0.00    +0.000 C 
ATOM     12  C   UNL     1      53.888  -0.205  18.686  0.00  0.00    +0.000 C 
ATOM     13  C   UNL     1      52.245   1.296  17.379  0.00  0.00    +0.000 C 
ATOM     14  C   UNL     1      52.351   2.781  17.812  0.00  0.00    +0.000 C 
ATOM     15  C   UNL     1      53.458   2.343  18.799  0.00  0.00    +0.000 C 
ENDBRANCH   8  14
ENDBRANCH   2   8
ENDBRANCH   1   6
BRANCH   1  16
ATOM     16  C   UNL     1      48.583   6.673  14.499  0.00  0.00    +0.000 C 
BRANCH  16  17
ATOM     17  N   UNL     1      47.396   7.324  13.935  0.00  0.00    +0.000 N 
ATOM     18  C   UNL     1      46.483   6.364  13.440  0.00  0.00    +0.000 A 
ATOM     19  C   UNL     1      45.288   6.795  12.873  0.00  0.00    +0.000 A 
ATOM     20  C   UNL     1      44.383   5.849  12.379  0.00  0.00    +0.000 A 
ATOM     21  C   UNL     1      44.686   4.488  12.452  0.00  0.00    +0.000 A 
ATOM     22  C   UNL     1      45.889   4.148  13.041  0.00  0.00    +0.000 A 
ATOM     23  N   UNL     1      46.773   5.048  13.534  0.00  0.00    +0.000 NA
ATOM     24  H   UNL     1      47.632   7.955  13.173  0.00  0.00    +0.000 HD
BRANCH  21  25
ATOM     25  C   UNL     1      43.739   3.489  11.906  0.00  0.00    +0.000 C 
ATOM     26  N   UNL     1      43.707   2.233  12.440  0.00  0.00    +0.000 N 
ATOM     27  O   UNL     1      42.991   3.773  10.974  0.00  0.00    +0.000 OA
ATOM     28  H   UNL     1      44.279   1.888  13.195  0.00  0.00    +0.000 HD
ATOM     29  H   UNL     1      43.051   1.584  12.021  0.00  0.00    +0.000 HD
ENDBRANCH  21  25
ENDBRANCH  16  17
ENDBRANCH   1  16
TORSDOF 6
ENDMDL
MODEL 8
REMARK VINA RESULT:    -6.421      2.974      6.092
REMARK INTER + INTRA:          -9.295
REMARK INTER:                  -8.673
REMARK INTRA:                  -0.622
REMARK UNBOUND:                -0.622
REMARK  Name = 
REMARK  8 active torsions:
REMARK  status: ('A' for Active; 'I' for Inactive)
REMARK    1  A    between atoms: C_1  and  C_2
REMARK    2  A    between atoms: C_2  and  C_3
REMARK    3  A    between atoms: C_5  and  N_6
REMARK    4  A    between atoms: N_6  and  C_7
REMARK    5  A    between atoms: C_11  and  C_12
REMARK    6  A    between atoms: C_12  and  C_13
REMARK    7  A    between atoms: C_13  and  N_14
REMARK    8  A    between atoms: C_18  and  C_19
REMARK                            x       y       z     vdW  Elec       q    Type
REMARK                         _______ _______ _______ _____ _____    ______ ____
ROOT
ATOM      1  C   UNL     1      47.376   3.749  17.380  0.00  0.00    +0.000 C 
ENDROOT
BRANCH   1   6
ATOM      2  C   UNL     1      51.122   3.775  18.309  0.00  0.00    +0.000 A 
ATOM      3  C   UNL     1      51.120   4.710  19.340  0.00  0.00    +0.000 A 
ATOM      4  C   UNL     1      49.919   5.258  19.795  0.00  0.00    +0.000 A 
ATOM      5  C   UNL     1      48.709   4.923  19.178  0.00  0.00    +0.000 A 
ATOM      6  C   UNL     1      48.687   4.030  18.099  0.00  0.00    +0.000 A 
ATOM      7  C   UNL     1      49.905   3.452  17.698  0.00  0.00    +0.000 A 
BRANCH   2   8
ATOM      8  N   UNL     1      52.301   3.252  17.754  0.00  0.00    +0.000 N 
ATOM      9  H   UNL     1      52.407   3.443  16.760  0.00  0.00    +0.000 HD
BRANCH   8  14
ATOM     10  C   UNL     1      54.893  -0.168  18.754  0.00  0.00    +0.000 C 
ATOM     11  C   UNL     1      54.185   0.489  17.570  0.00  0.00    +0.000 C 
ATOM     12  C   UNL     1      54.455  -0.256  16.268  0.00  0.00    +0.000 C 
ATOM     13  C   UNL     1      54.416   2.023  17.478  0.00  0.00    +0.000 C 
ATOM     14  C   UNL     1      53.114   2.220  18.295  0.00  0.00    +0.000 C 
ATOM     15  C   UNL     1      52.681   0.814  17.816  0.00  0.00    +0.000 C 
ENDBRANCH   8  14
ENDBRANCH   2   8
ENDBRANCH   1   6
BRANCH   1  16
ATOM     16  C   UNL     1      47.508   3.672  15.854  0.00  0.00    +0.000 C 
BRANCH  16  17
ATOM     17  N   UNL     1      47.208   4.938  15.178  0.00  0.00    +0.000 N 
ATOM     18  C   UNL     1      46.506   4.712  13.971  0.00  0.00    +0.000 A 
ATOM     19  C   UNL     1      46.126   5.800  13.194  0.00  0.00    +0.000 A 
ATOM     20  C   UNL     1      45.434   5.581  11.998  0.00  0.00    +0.000 A 
ATOM     21  C   UNL     1      45.138   4.278  11.592  0.00  0.00    +0.000 A 
ATOM     22  C   UNL     1      45.542   3.257  12.431  0.00  0.00    +0.000 A 
ATOM     23  N   UNL     1      46.204   3.450  13.596  0.00  0.00    +0.000 NA
ATOM     24  H   UNL     1      48.051   5.463  14.957  0.00  0.00    +0.000 HD
BRANCH  21  25
ATOM     25  C   UNL     1      44.428   4.046  10.313  0.00  0.00    +0.000 C 
ATOM     26  N   UNL     1      43.642   5.035   9.792  0.00  0.00    +0.000 N 
ATOM     27  O   UNL     1      44.528   2.974   9.721  0.00  0.00    +0.000 OA
ATOM     28  H   UNL     1      43.479   5.944  10.194  0.00  0.00    +0.000 HD
ATOM     29  H   UNL     1      43.169   4.820   8.923  0.00  0.00    +0.000 HD
ENDBRANCH  21  25
ENDBRANCH  16  17
ENDBRANCH   1  16
TORSDOF 6
ENDMDL
MODEL 9
REMARK VINA RESULT:    -6.306      3.365      7.937
REMARK INTER + INTRA:          -9.139
REMARK INTER:                  -8.138
REMARK INTRA:                  -1.002
REMARK UNBOUND:                -0.622
REMARK  Name = 
REMARK  8 active torsions:
REMARK  status: ('A' for Active; 'I' for Inactive)
REMARK    1  A    between atoms: C_1  and  C_2
REMARK    2  A    between atoms: C_2  and  C_3
REMARK    3  A    between atoms: C_5  and  N_6
REMARK    4  A    between atoms: N_6  and  C_7
REMARK    5  A    between atoms: C_11  and  C_12
REMARK    6  A    between atoms: C_12  and  C_13
REMARK    7  A    between atoms: C_13  and  N_14
REMARK    8  A    between atoms: C_18  and  C_19
REMARK                            x       y       z     vdW  Elec       q    Type
REMARK                         _______ _______ _______ _____ _____    ______ ____
ROOT
ATOM      1  C   UNL     1      46.278   3.850  13.637  0.00  0.00    +0.000 C 
ENDROOT
BRANCH   1   6
ATOM      2  C   UNL     1      44.497   3.983  10.215  0.00  0.00    +0.000 A 
ATOM      3  C   UNL     1      43.278   4.541  10.587  0.00  0.00    +0.000 A 
ATOM      4  C   UNL     1      43.061   4.955  11.902  0.00  0.00    +0.000 A 
ATOM      5  C   UNL     1      44.044   4.756  12.877  0.00  0.00    +0.000 A 
ATOM      6  C   UNL     1      45.259   4.143  12.545  0.00  0.00    +0.000 A 
ATOM      7  C   UNL     1      45.470   3.786  11.202  0.00  0.00    +0.000 A 
BRANCH   2   8
ATOM      8  N   UNL     1      44.744   3.471   8.930  0.00  0.00    +0.000 N 
ATOM      9  H   UNL     1      43.904   3.180   8.436  0.00  0.00    +0.000 HD
BRANCH   8  14
ATOM     10  C   UNL     1      48.328   2.138   6.741  0.00  0.00    +0.000 C 
ATOM     11  C   UNL     1      46.930   2.710   6.510  0.00  0.00    +0.000 C 
ATOM     12  C   UNL     1      46.645   2.919   5.027  0.00  0.00    +0.000 C 
ATOM     13  C   UNL     1      46.608   3.947   7.394  0.00  0.00    +0.000 C 
ATOM     14  C   UNL     1      45.981   2.981   8.432  0.00  0.00    +0.000 C 
ATOM     15  C   UNL     1      45.795   1.969   7.278  0.00  0.00    +0.000 C 
ENDBRANCH   8  14
ENDBRANCH   2   8
ENDBRANCH   1   6
BRANCH   1  16
ATOM     16  C   UNL     1      46.880   5.106  14.279  0.00  0.00    +0.000 C 
BRANCH  16  17
ATOM     17  N   UNL     1      47.920   5.737  13.461  0.00  0.00    +0.000 N 
ATOM     18  C   UNL     1      47.505   7.013  13.013  0.00  0.00    +0.000 A 
ATOM     19  C   UNL     1      48.367   7.770  12.228  0.00  0.00    +0.000 A 
ATOM     20  C   UNL     1      47.959   9.032  11.781  0.00  0.00    +0.000 A 
ATOM     21  C   UNL     1      46.694   9.516  12.118  0.00  0.00    +0.000 A 
ATOM     22  C   UNL     1      45.906   8.703  12.911  0.00  0.00    +0.000 A 
ATOM     23  N   UNL     1      46.287   7.485  13.362  0.00  0.00    +0.000 NA
ATOM     24  H   UNL     1      48.155   5.180  12.643  0.00  0.00    +0.000 HD
BRANCH  21  25
ATOM     25  C   UNL     1      46.253  10.840  11.623  0.00  0.00    +0.000 C 
ATOM     26  N   UNL     1      47.034  11.516  10.729  0.00  0.00    +0.000 N 
ATOM     27  O   UNL     1      45.202  11.342  12.012  0.00  0.00    +0.000 OA
ATOM     28  H   UNL     1      47.916  11.208  10.350  0.00  0.00    +0.000 HD
ATOM     29  H   UNL     1      46.693  12.423  10.432  0.00  0.00    +0.000 HD
ENDBRANCH  21  25
ENDBRANCH  16  17
ENDBRANCH   1  16
TORSDOF 6
ENDMDL
