MODEL 1
REMARK VINA RESULT:    -9.751      0.000      0.000
REMARK INTER + INTRA:         -12.818
REMARK INTER:                 -12.031
REMARK INTRA:                  -0.787
REMARK UNBOUND:                -0.787
REMARK  Name = 
REMARK  4 active torsions:
REMARK  status: ('A' for Active; 'I' for Inactive)
REMARK    1  A    between atoms: C_2  and  C_4
REMARK    2  A    between atoms: N_8  and  C_9
REMARK    3  A    between atoms: C_9  and  C_10
REMARK    4  A    between atoms: C_10  and  C_13
REMARK                            x       y       z     vdW  Elec       q    Type
REMARK                         _______ _______ _______ _____ _____    ______ ____
ROOT
ATOM      1  C   UNL     1      43.662   5.539  12.218  0.00  0.00    +0.000 C 
ATOM      2  F   UNL     1      43.512   6.762  11.626  0.00  0.00    +0.000 F 
ATOM      3  F   UNL     1      42.745   5.525  13.236  0.00  0.00    +0.000 F 
ENDROOT
BRANCH   1   4
ATOM      4  C   UNL     1      45.064   5.339  12.747  0.00  0.00    +0.000 A 
ATOM      5  C   UNL     1      45.536   4.103  13.178  0.00  0.00    +0.000 A 
ATOM      6  C   UNL     1      46.849   4.026  13.622  0.00  0.00    +0.000 A 
ATOM      7  N   UNL     1      47.711   5.071  13.650  0.00  0.00    +0.000 NA
ATOM      8  C   UNL     1      47.268   6.260  13.198  0.00  0.00    +0.000 A 
ATOM      9  N   UNL     1      48.104   7.377  13.140  0.00  0.00    +0.000 N 
ATOM     10  C   UNL     1      49.362   7.311  13.904  0.00  0.00    +0.000 C 
ATOM     11  C   UNL     1      49.976   8.728  13.913  0.00  0.00    +0.000 C 
ATOM     12  O   UNL     1      50.198   9.230  12.580  0.00  0.00    +0.000 OA
ATOM     13  C   UNL     1      48.972   9.240  11.829  0.00  0.00    +0.000 C 
ATOM     14  C   UNL     1      48.357   7.836  11.758  0.00  0.00    +0.000 C 
ATOM     15  C   UNL     1      45.945   6.421  12.781  0.00  0.00    +0.000 A 
ENDBRANCH   1   4
BRANCH   1  16
ATOM     16  C   UNL     1      43.270   4.448  11.188  0.00  0.00    +0.000 C 
BRANCH  16  21
ATOM     17  C   UNL     1      46.484   2.543   7.699  0.00  0.00    +0.000 A 
ATOM     18  C   UNL     1      45.648   1.871   8.584  0.00  0.00    +0.000 A 
ATOM     19  C   UNL     1      44.728   2.605   9.335  0.00  0.00    +0.000 A 
ATOM     20  C   UNL     1      44.674   3.988   9.201  0.00  0.00    +0.000 A 
ATOM     21  N   UNL     1      43.729   4.770   9.832  0.00  0.00    +0.000 N 
ATOM     22  N   UNL     1      45.506   4.648   8.374  0.00  0.00    +0.000 NA
ATOM     23  C   UNL     1      46.396   3.922   7.648  0.00  0.00    +0.000 A 
ATOM     24  H   UNL     1      43.961   5.751   9.666  0.00  0.00    +0.000 HD
BRANCH  17  26
ATOM     25  N   UNL     1      48.533   2.557   6.394  0.00  0.00    +0.000 N 
ATOM     26  C   UNL     1      47.448   1.842   6.821  0.00  0.00    +0.000 C 
ATOM     27  O   UNL     1      47.304   0.666   6.527  0.00  0.00    +0.000 OA
ATOM     28  H   UNL     1      49.244   2.033   5.897  0.00  0.00    +0.000 HD
ATOM     29  H   UNL     1      48.814   3.427   6.822  0.00  0.00    +0.000 HD
ENDBRANCH  17  26
ENDBRANCH  16  21
ENDBRANCH   1  16
TORSDOF 4
ENDMDL
MODEL 2
REMARK VINA RESULT:    -8.617      1.288      2.093
REMARK INTER + INTRA:         -11.419
REMARK INTER:                 -11.084
REMARK INTRA:                  -0.335
REMARK UNBOUND:                -0.787
REMARK  Name = 
REMARK  4 active torsions:
REMARK  status: ('A' for Active; 'I' for Inactive)
REMARK    1  A    between atoms: C_2  and  C_4
REMARK    2  A    between atoms: N_8  and  C_9
REMARK    3  A    between atoms: C_9  and  C_10
REMARK    4  A    between atoms: C_10  and  C_13
REMARK                            x       y       z     vdW  Elec       q    Type
REMARK                         _______ _______ _______ _____ _____    ______ ____
ROOT
ATOM      1  C   UNL     1      44.463   4.786  12.236  0.00  0.00    +0.000 C 
ATOM      2  F   UNL     1      43.914   4.590  13.473  0.00  0.00    +0.000 F 
ATOM      3  F   UNL     1      45.441   3.833  12.128  0.00  0.00    +0.000 F 
ENDROOT
BRANCH   1   4
ATOM      4  C   UNL     1      45.041   6.175  12.090  0.00  0.00    +0.000 A 
ATOM      5  C   UNL     1      44.289   7.261  11.654  0.00  0.00    +0.000 A 
ATOM      6  C   UNL     1      44.913   8.499  11.580  0.00  0.00    +0.000 A 
ATOM      7  N   UNL     1      46.204   8.727  11.920  0.00  0.00    +0.000 NA
ATOM      8  C   UNL     1      46.924   7.684  12.379  0.00  0.00    +0.000 A 
ATOM      9  N   UNL     1      48.246   7.840  12.804  0.00  0.00    +0.000 N 
ATOM     10  C   UNL     1      48.931   9.083  12.412  0.00  0.00    +0.000 C 
ATOM     11  C   UNL     1      50.429   8.914  12.749  0.00  0.00    +0.000 C 
ATOM     12  O   UNL     1      50.640   8.616  14.144  0.00  0.00    +0.000 OA
ATOM     13  C   UNL     1      49.922   7.431  14.525  0.00  0.00    +0.000 C 
ATOM     14  C   UNL     1      48.420   7.581  14.249  0.00  0.00    +0.000 C 
ATOM     15  C   UNL     1      46.374   6.402  12.435  0.00  0.00    +0.000 A 
ENDBRANCH   1   4
BRANCH   1  16
ATOM     16  C   UNL     1      43.374   4.497  11.169  0.00  0.00    +0.000 C 
BRANCH  16  21
ATOM     17  C   UNL     1      46.492   2.483   7.655  0.00  0.00    +0.000 A 
ATOM     18  C   UNL     1      45.644   1.840   8.550  0.00  0.00    +0.000 A 
ATOM     19  C   UNL     1      44.754   2.604   9.308  0.00  0.00    +0.000 A 
ATOM     20  C   UNL     1      44.744   3.988   9.171  0.00  0.00    +0.000 A 
ATOM     21  N   UNL     1      43.830   4.801   9.808  0.00  0.00    +0.000 N 
ATOM     22  N   UNL     1      45.588   4.620   8.335  0.00  0.00    +0.000 NA
ATOM     23  C   UNL     1      46.448   3.864   7.602  0.00  0.00    +0.000 A 
ATOM     24  H   UNL     1      44.091   5.774   9.638  0.00  0.00    +0.000 HD
BRANCH  17  26
ATOM     25  N   UNL     1      48.576   2.395   6.409  0.00  0.00    +0.000 N 
ATOM     26  C   UNL     1      47.425   1.750   6.771  0.00  0.00    +0.000 C 
ATOM     27  O   UNL     1      47.199   0.604   6.415  0.00  0.00    +0.000 OA
ATOM     28  H   UNL     1      49.258   1.841   5.905  0.00  0.00    +0.000 HD
ATOM     29  H   UNL     1      48.910   3.219   6.886  0.00  0.00    +0.000 HD
ENDBRANCH  17  26
ENDBRANCH  16  21
ENDBRANCH   1  16
TORSDOF 4
ENDMDL
MODEL 3
REMARK VINA RESULT:    -8.192      2.226      3.337
REMARK INTER + INTRA:         -10.895
REMARK INTER:                 -10.217
REMARK INTRA:                  -0.678
REMARK UNBOUND:                -0.787
REMARK  Name = 
REMARK  4 active torsions:
REMARK  status: ('A' for Active; 'I' for Inactive)
REMARK    1  A    between atoms: C_2  and  C_4
REMARK    2  A    between atoms: N_8  and  C_9
REMARK    3  A    between atoms: C_9  and  C_10
REMARK    4  A    between atoms: C_10  and  C_13
REMARK                            x       y       z     vdW  Elec       q    Type
REMARK                         _______ _______ _______ _____ _____    ______ ____
ROOT
ATOM      1  C   UNL     1      43.760   5.486  12.368  0.00  0.00    +0.000 C 
ATOM      2  F   UNL     1      43.402   6.688  11.822  0.00  0.00    +0.000 F 
ATOM      3  F   UNL     1      42.959   5.345  13.470  0.00  0.00    +0.000 F 
ENDROOT
BRANCH   1   4
ATOM      4  C   UNL     1      45.222   5.456  12.751  0.00  0.00    +0.000 A 
ATOM      5  C   UNL     1      46.184   6.229  12.110  0.00  0.00    +0.000 A 
ATOM      6  C   UNL     1      47.495   6.143  12.559  0.00  0.00    +0.000 A 
ATOM      7  N   UNL     1      47.901   5.368  13.593  0.00  0.00    +0.000 NA
ATOM      8  C   UNL     1      46.965   4.647  14.241  0.00  0.00    +0.000 A 
ATOM      9  N   UNL     1      47.285   3.864  15.351  0.00  0.00    +0.000 N 
ATOM     10  C   UNL     1      48.712   3.574  15.576  0.00  0.00    +0.000 C 
ATOM     11  C   UNL     1      48.800   2.491  16.673  0.00  0.00    +0.000 C 
ATOM     12  O   UNL     1      48.150   2.902  17.893  0.00  0.00    +0.000 OA
ATOM     13  C   UNL     1      46.772   3.232  17.649  0.00  0.00    +0.000 C 
ATOM     14  C   UNL     1      46.648   4.342  16.596  0.00  0.00    +0.000 C 
ATOM     15  C   UNL     1      45.635   4.649  13.813  0.00  0.00    +0.000 A 
ENDBRANCH   1   4
BRANCH   1  16
ATOM     16  C   UNL     1      43.404   4.366  11.355  0.00  0.00    +0.000 C 
BRANCH  16  21
ATOM     17  C   UNL     1      46.482   2.519   7.716  0.00  0.00    +0.000 A 
ATOM     18  C   UNL     1      45.688   1.832   8.627  0.00  0.00    +0.000 A 
ATOM     19  C   UNL     1      44.795   2.552   9.424  0.00  0.00    +0.000 A 
ATOM     20  C   UNL     1      44.728   3.936   9.307  0.00  0.00    +0.000 A 
ATOM     21  N   UNL     1      43.805   4.705   9.984  0.00  0.00    +0.000 N 
ATOM     22  N   UNL     1      45.521   4.610   8.454  0.00  0.00    +0.000 NA
ATOM     23  C   UNL     1      46.385   3.898   7.683  0.00  0.00    +0.000 A 
ATOM     24  H   UNL     1      44.023   5.689   9.820  0.00  0.00    +0.000 HD
BRANCH  17  26
ATOM     25  N   UNL     1      48.463   2.567   6.308  0.00  0.00    +0.000 N 
ATOM     26  C   UNL     1      47.414   1.833   6.792  0.00  0.00    +0.000 C 
ATOM     27  O   UNL     1      47.277   0.654   6.508  0.00  0.00    +0.000 OA
ATOM     28  H   UNL     1      49.157   2.055   5.777  0.00  0.00    +0.000 HD
ATOM     29  H   UNL     1      48.748   3.443   6.719  0.00  0.00    +0.000 HD
ENDBRANCH  17  26
ENDBRANCH  16  21
ENDBRANCH   1  16
TORSDOF 4
ENDMDL
MODEL 4
REMARK VINA RESULT:    -7.652      2.925      7.543
REMARK INTER + INTRA:         -10.228
REMARK INTER:                  -9.745
REMARK INTRA:                  -0.483
REMARK UNBOUND:                -0.787
REMARK  Name = 
REMARK  4 active torsions:
REMARK  status: ('A' for Active; 'I' for Inactive)
REMARK    1  A    between atoms: C_2  and  C_4
REMARK    2  A    between atoms: N_8  and  C_9
REMARK    3  A    between atoms: C_9  and  C_10
REMARK    4  A    between atoms: C_10  and  C_13
REMARK                            x       y       z     vdW  Elec       q    Type
REMARK                         _______ _______ _______ _____ _____    ______ ____
ROOT
ATOM      1  C   UNL     1      44.914   5.978  12.441  0.00  0.00    +0.000 C 
ATOM      2  F   UNL     1      43.919   6.398  13.280  0.00  0.00    +0.000 F 
ATOM      3  F   UNL     1      45.060   6.991  11.532  0.00  0.00    +0.000 F 
ENDROOT
BRANCH   1   4
ATOM      4  C   UNL     1      44.559   4.679  11.754  0.00  0.00    +0.000 A 
ATOM      5  C   UNL     1      43.452   3.916  12.112  0.00  0.00    +0.000 A 
ATOM      6  C   UNL     1      43.204   2.752  11.398  0.00  0.00    +0.000 A 
ATOM      7  N   UNL     1      43.960   2.312  10.363  0.00  0.00    +0.000 NA
ATOM      8  C   UNL     1      45.011   3.069   9.990  0.00  0.00    +0.000 A 
ATOM      9  N   UNL     1      45.810   2.720   8.899  0.00  0.00    +0.000 N 
ATOM     10  C   UNL     1      45.689   1.342   8.395  0.00  0.00    +0.000 C 
ATOM     11  C   UNL     1      46.839   1.111   7.390  0.00  0.00    +0.000 C 
ATOM     12  O   UNL     1      46.817   2.068   6.312  0.00  0.00    +0.000 OA
ATOM     13  C   UNL     1      46.882   3.411   6.822  0.00  0.00    +0.000 C 
ATOM     14  C   UNL     1      45.724   3.692   7.789  0.00  0.00    +0.000 C 
ATOM     15  C   UNL     1      45.346   4.228  10.693  0.00  0.00    +0.000 A 
ENDBRANCH   1   4
BRANCH   1  16
ATOM     16  C   UNL     1      46.224   5.859  13.262  0.00  0.00    +0.000 C 
BRANCH  16  21
ATOM     17  C   UNL     1      49.071   4.069  17.112  0.00  0.00    +0.000 A 
ATOM     18  C   UNL     1      48.870   5.383  16.705  0.00  0.00    +0.000 A 
ATOM     19  C   UNL     1      47.911   5.649  15.725  0.00  0.00    +0.000 A 
ATOM     20  C   UNL     1      47.190   4.601  15.164  0.00  0.00    +0.000 A 
ATOM     21  N   UNL     1      46.160   4.791  14.266  0.00  0.00    +0.000 N 
ATOM     22  N   UNL     1      47.406   3.323  15.526  0.00  0.00    +0.000 NA
ATOM     23  C   UNL     1      48.342   3.077  16.481  0.00  0.00    +0.000 A 
ATOM     24  H   UNL     1      45.863   3.878  13.919  0.00  0.00    +0.000 HD
BRANCH  17  26
ATOM     25  N   UNL     1      50.714   2.530  18.026  0.00  0.00    +0.000 N 
ATOM     26  C   UNL     1      50.024   3.701  18.183  0.00  0.00    +0.000 C 
ATOM     27  O   UNL     1      50.217   4.430  19.143  0.00  0.00    +0.000 OA
ATOM     28  H   UNL     1      51.447   2.351  18.702  0.00  0.00    +0.000 HD
ATOM     29  H   UNL     1      50.773   2.048  17.142  0.00  0.00    +0.000 HD
ENDBRANCH  17  26
ENDBRANCH  16  21
ENDBRANCH   1  16
TORSDOF 4
ENDMDL
MODEL 5
REMARK VINA RESULT:    -7.173      1.796      7.082
REMARK INTER + INTRA:          -9.638
REMARK INTER:                  -9.034
REMARK INTRA:                  -0.604
REMARK UNBOUND:                -0.787
REMARK  Name = 
REMARK  4 active torsions:
REMARK  status: ('A' for Active; 'I' for Inactive)
REMARK    1  A    between atoms: C_2  and  C_4
REMARK    2  A    between atoms: N_8  and  C_9
REMARK    3  A    between atoms: C_9  and  C_10
REMARK    4  A    between atoms: C_10  and  C_13
REMARK                            x       y       z     vdW  Elec       q    Type
REMARK                         _______ _______ _______ _____ _____    ______ ____
ROOT
ATOM      1  C   UNL     1      44.439   6.401  11.485  0.00  0.00    +0.000 C 
ATOM      2  F   UNL     1      43.236   7.048  11.430  0.00  0.00    +0.000 F 
ATOM      3  F   UNL     1      45.251   7.090  10.623  0.00  0.00    +0.000 F 
ENDROOT
BRANCH   1   4
ATOM      4  C   UNL     1      44.317   4.952  11.074  0.00  0.00    +0.000 A 
ATOM      5  C   UNL     1      43.383   4.087  11.634  0.00  0.00    +0.000 A 
ATOM      6  C   UNL     1      43.340   2.781  11.166  0.00  0.00    +0.000 A 
ATOM      7  N   UNL     1      44.138   2.292  10.186  0.00  0.00    +0.000 NA
ATOM      8  C   UNL     1      45.018   3.138   9.615  0.00  0.00    +0.000 A 
ATOM      9  N   UNL     1      45.841   2.734   8.561  0.00  0.00    +0.000 N 
ATOM     10  C   UNL     1      45.967   1.285   8.330  0.00  0.00    +0.000 C 
ATOM     11  C   UNL     1      47.114   1.073   7.318  0.00  0.00    +0.000 C 
ATOM     12  O   UNL     1      46.885   1.784   6.084  0.00  0.00    +0.000 OA
ATOM     13  C   UNL     1      46.710   3.190   6.331  0.00  0.00    +0.000 C 
ATOM     14  C   UNL     1      45.545   3.440   7.297  0.00  0.00    +0.000 C 
ATOM     15  C   UNL     1      45.148   4.452  10.069  0.00  0.00    +0.000 A 
ENDBRANCH   1   4
BRANCH   1  16
ATOM     16  C   UNL     1      45.007   6.550  12.921  0.00  0.00    +0.000 C 
BRANCH  16  21
ATOM     17  C   UNL     1      49.816   8.193  13.474  0.00  0.00    +0.000 A 
ATOM     18  C   UNL     1      49.322   7.174  12.667  0.00  0.00    +0.000 A 
ATOM     19  C   UNL     1      47.940   7.012  12.551  0.00  0.00    +0.000 A 
ATOM     20  C   UNL     1      47.085   7.854  13.253  0.00  0.00    +0.000 A 
ATOM     21  N   UNL     1      45.713   7.821  13.114  0.00  0.00    +0.000 N 
ATOM     22  N   UNL     1      47.556   8.818  14.065  0.00  0.00    +0.000 NA
ATOM     23  C   UNL     1      48.904   8.966  14.169  0.00  0.00    +0.000 A 
ATOM     24  H   UNL     1      45.305   8.452  13.805  0.00  0.00    +0.000 HD
BRANCH  17  26
ATOM     25  N   UNL     1      51.981   7.651  14.433  0.00  0.00    +0.000 N 
ATOM     26  C   UNL     1      51.262   8.474  13.611  0.00  0.00    +0.000 C 
ATOM     27  O   UNL     1      51.799   9.375  12.985  0.00  0.00    +0.000 OA
ATOM     28  H   UNL     1      52.986   7.778  14.424  0.00  0.00    +0.000 HD
ATOM     29  H   UNL     1      51.631   6.759  14.750  0.00  0.00    +0.000 HD
ENDBRANCH  17  26
ENDBRANCH  16  21
ENDBRANCH   1  16
TORSDOF 4
ENDMDL
MODEL 6
REMARK VINA RESULT:    -7.080      5.657      7.225
REMARK INTER + INTRA:          -9.523
REMARK INTER:                  -9.158
REMARK INTRA:                  -0.365
REMARK UNBOUND:                -0.787
REMARK  Name = 
REMARK  4 active torsions:
REMARK  status: ('A' for Active; 'I' for Inactive)
REMARK    1  A    between atoms: C_2  and  C_4
REMARK    2  A    between atoms: N_8  and  C_9
REMARK    3  A    between atoms: C_9  and  C_10
REMARK    4  A    between atoms: C_10  and  C_13
REMARK                            x       y       z     vdW  Elec       q    Type
REMARK                         _______ _______ _______ _____ _____    ______ ____
ROOT
ATOM      1  C   UNL     1      48.193   2.878  16.895  0.00  0.00    +0.000 C 
ATOM      2  F   UNL     1      47.190   2.399  17.692  0.00  0.00    +0.000 F 
ATOM      3  F   UNL     1      48.631   1.790  16.187  0.00  0.00    +0.000 F 
ENDROOT
BRANCH   1   4
ATOM      4  C   UNL     1      49.315   3.484  17.707  0.00  0.00    +0.000 A 
ATOM      5  C   UNL     1      49.090   4.351  18.771  0.00  0.00    +0.000 A 
ATOM      6  C   UNL     1      50.192   4.831  19.465  0.00  0.00    +0.000 A 
ATOM      7  N   UNL     1      51.476   4.501  19.187  0.00  0.00    +0.000 NA
ATOM      8  C   UNL     1      51.695   3.631  18.181  0.00  0.00    +0.000 A 
ATOM      9  N   UNL     1      52.982   3.193  17.861  0.00  0.00    +0.000 N 
ATOM     10  C   UNL     1      54.107   3.965  18.415  0.00  0.00    +0.000 C 
ATOM     11  C   UNL     1      55.396   3.473  17.719  0.00  0.00    +0.000 C 
ATOM     12  O   UNL     1      55.596   2.056  17.892  0.00  0.00    +0.000 OA
ATOM     13  C   UNL     1      54.466   1.317  17.395  0.00  0.00    +0.000 C 
ATOM     14  C   UNL     1      53.173   1.747  18.100  0.00  0.00    +0.000 C 
ATOM     15  C   UNL     1      50.636   3.145  17.410  0.00  0.00    +0.000 A 
ENDBRANCH   1   4
BRANCH   1  16
ATOM     16  C   UNL     1      47.580   3.899  15.901  0.00  0.00    +0.000 C 
BRANCH  16  21
ATOM     17  C   UNL     1      44.634   4.729  11.808  0.00  0.00    +0.000 A 
ATOM     18  C   UNL     1      45.219   5.649  12.670  0.00  0.00    +0.000 A 
ATOM     19  C   UNL     1      46.128   5.195  13.629  0.00  0.00    +0.000 A 
ATOM     20  C   UNL     1      46.417   3.838  13.716  0.00  0.00    +0.000 A 
ATOM     21  N   UNL     1      47.375   3.325  14.567  0.00  0.00    +0.000 N 
ATOM     22  N   UNL     1      45.825   2.937  12.909  0.00  0.00    +0.000 NA
ATOM     23  C   UNL     1      44.944   3.392  11.980  0.00  0.00    +0.000 A 
ATOM     24  H   UNL     1      47.327   2.306  14.528  0.00  0.00    +0.000 HD
BRANCH  17  26
ATOM     25  N   UNL     1      44.013   4.714   9.459  0.00  0.00    +0.000 N 
ATOM     26  C   UNL     1      43.705   5.127  10.726  0.00  0.00    +0.000 C 
ATOM     27  O   UNL     1      42.687   5.759  10.960  0.00  0.00    +0.000 OA
ATOM     28  H   UNL     1      43.310   4.888   8.750  0.00  0.00    +0.000 HD
ATOM     29  H   UNL     1      44.686   3.985   9.273  0.00  0.00    +0.000 HD
ENDBRANCH  17  26
ENDBRANCH  16  21
ENDBRANCH   1  16
TORSDOF 4
ENDMDL
MODEL 7
REMARK VINA RESULT:    -6.888      3.696      7.663
REMARK INTER + INTRA:          -9.286
REMARK INTER:                  -8.482
REMARK INTRA:                  -0.804
REMARK UNBOUND:                -0.787
REMARK  Name = 
REMARK  4 active torsions:
REMARK  status: ('A' for Active; 'I' for Inactive)
REMARK    1  A    between atoms: C_2  and  C_4
REMARK    2  A    between atoms: N_8  and  C_9
REMARK    3  A    between atoms: C_9  and  C_10
REMARK    4  A    between atoms: C_10  and  C_13
REMARK                            x       y       z     vdW  Elec       q    Type
REMARK                         _______ _______ _______ _____ _____    ______ ____
ROOT
ATOM      1  C   UNL     1      48.948   8.226  12.375  0.00  0.00    +0.000 C 
ATOM      2  F   UNL     1      49.601   9.133  11.587  0.00  0.00    +0.000 F 
ATOM      3  F   UNL     1      49.496   7.014  12.047  0.00  0.00    +0.000 F 
ENDROOT
BRANCH   1   4
ATOM      4  C   UNL     1      47.458   8.234  12.124  0.00  0.00    +0.000 A 
ATOM      5  C   UNL     1      46.711   9.405  12.061  0.00  0.00    +0.000 A 
ATOM      6  C   UNL     1      45.352   9.300  11.800  0.00  0.00    +0.000 A 
ATOM      7  N   UNL     1      44.701   8.130  11.587  0.00  0.00    +0.000 NA
ATOM      8  C   UNL     1      45.429   6.997  11.610  0.00  0.00    +0.000 A 
ATOM      9  N   UNL     1      44.851   5.753  11.347  0.00  0.00    +0.000 N 
ATOM     10  C   UNL     1      43.381   5.676  11.390  0.00  0.00    +0.000 C 
ATOM     11  C   UNL     1      42.990   4.183  11.342  0.00  0.00    +0.000 C 
ATOM     12  O   UNL     1      43.516   3.524  10.172  0.00  0.00    +0.000 OA
ATOM     13  C   UNL     1      44.947   3.652  10.115  0.00  0.00    +0.000 C 
ATOM     14  C   UNL     1      45.370   5.127  10.112  0.00  0.00    +0.000 C 
ATOM     15  C   UNL     1      46.792   7.025  11.913  0.00  0.00    +0.000 A 
ENDBRANCH   1   4
BRANCH   1  16
ATOM     16  C   UNL     1      49.288   8.535  13.857  0.00  0.00    +0.000 C 
BRANCH  16  21
ATOM     17  C   UNL     1      48.227   4.568  16.900  0.00  0.00    +0.000 A 
ATOM     18  C   UNL     1      47.480   5.097  15.853  0.00  0.00    +0.000 A 
ATOM     19  C   UNL     1      48.050   6.085  15.048  0.00  0.00    +0.000 A 
ATOM     20  C   UNL     1      49.338   6.534  15.314  0.00  0.00    +0.000 A 
ATOM     21  N   UNL     1      50.005   7.433  14.508  0.00  0.00    +0.000 N 
ATOM     22  N   UNL     1      50.052   6.054  16.349  0.00  0.00    +0.000 NA
ATOM     23  C   UNL     1      49.487   5.091  17.125  0.00  0.00    +0.000 A 
ATOM     24  H   UNL     1      50.882   7.687  14.965  0.00  0.00    +0.000 HD
BRANCH  17  26
ATOM     25  N   UNL     1      48.444   3.205  18.900  0.00  0.00    +0.000 N 
ATOM     26  C   UNL     1      47.726   3.479  17.768  0.00  0.00    +0.000 C 
ATOM     27  O   UNL     1      46.695   2.879  17.508  0.00  0.00    +0.000 OA
ATOM     28  H   UNL     1      48.026   2.544  19.544  0.00  0.00    +0.000 HD
ATOM     29  H   UNL     1      49.134   3.841  19.272  0.00  0.00    +0.000 HD
ENDBRANCH  17  26
ENDBRANCH  16  21
ENDBRANCH   1  16
TORSDOF 4
ENDMDL
