MODEL 1
REMARK VINA RESULT:    -6.759      0.000      0.000
REMARK INTER + INTRA:          -9.100
REMARK INTER:                  -8.340
REMARK INTRA:                  -0.761
REMARK UNBOUND:                -0.761
REMARK  Name = 
REMARK  7 active torsions:
REMARK  status: ('A' for Active; 'I' for Inactive)
REMARK    1  A    between atoms: C_1  and  C_2
REMARK    2  A    between atoms: C_2  and  C_3
REMARK    3  A    between atoms: C_2  and  C_4
REMARK    4  A    between atoms: C_2  and  C_5
REMARK    5  A    between atoms: C_9  and  C_10
REMARK    6  A    between atoms: N_16  and  C_17
REMARK    7  A    between atoms: C_17  and  C_18
REMARK                            x       y       z     vdW  Elec       q    Type
REMARK                         _______ _______ _______ _____ _____    ______ ____
ROOT
ATOM      1  C   UNL     1      44.597   4.024  11.103  0.00  0.00    +0.000 A 
ATOM      2  N   UNL     1      44.834   2.841  10.545  0.00  0.00    +0.000 NA
ATOM      3  C   UNL     1      45.508   3.077   9.386  0.00  0.00    +0.000 A 
ATOM      4  C   UNL     1      45.999   2.191   8.421  0.00  0.00    +0.000 A 
ATOM      5  C   UNL     1      46.671   2.747   7.329  0.00  0.00    +0.000 A 
ATOM      6  C   UNL     1      46.812   4.138   7.271  0.00  0.00    +0.000 A 
ATOM      7  N   UNL     1      46.337   5.036   8.179  0.00  0.00    +0.000 NA
ATOM      8  C   UNL     1      45.697   4.435   9.201  0.00  0.00    +0.000 A 
ATOM      9  N   UNL     1      45.089   5.035  10.284  0.00  0.00    +0.000 N 
ENDROOT
BRANCH   5  10
ATOM     10  C   UNL     1      47.242   1.939   6.223  0.00  0.00    +0.000 C 
ATOM     11  N   UNL     1      47.925   2.577   5.228  0.00  0.00    +0.000 N 
ATOM     12  O   UNL     1      47.111   0.722   6.199  0.00  0.00    +0.000 OA
ATOM     13  H   UNL     1      48.096   3.569   5.172  0.00  0.00    +0.000 HD
ATOM     14  H   UNL     1      48.313   1.993   4.494  0.00  0.00    +0.000 HD
ENDBRANCH   5  10
BRANCH   1  16
ATOM     15  C   UNL     1      44.805   4.641  13.512  0.00  0.00    +0.000 C 
ATOM     16  C   UNL     1      43.826   4.145  12.416  0.00  0.00    +0.000 C 
ATOM     17  C   UNL     1      43.305   2.756  12.821  0.00  0.00    +0.000 C 
ATOM     18  C   UNL     1      42.664   5.144  12.399  0.00  0.00    +0.000 C 
ENDBRANCH   1  16
BRANCH   9  19
ATOM     19  C   UNL     1      44.944   6.479  10.394  0.00  0.00    +0.000 C 
BRANCH  19  20
ATOM     20  C   UNL     1      45.832   7.108  11.444  0.00  0.00    +0.000 A 
ATOM     21  C   UNL     1      47.164   6.727  11.634  0.00  0.00    +0.000 A 
ATOM     22  C   UNL     1      47.901   7.336  12.638  0.00  0.00    +0.000 A 
ATOM     23  N   UNL     1      47.418   8.304  13.444  0.00  0.00    +0.000 NA
ATOM     24  C   UNL     1      46.148   8.695  13.222  0.00  0.00    +0.000 A 
ATOM     25  C   UNL     1      45.334   8.147  12.241  0.00  0.00    +0.000 A 
ENDBRANCH  19  20
ENDBRANCH   9  19
TORSDOF 4
ENDMDL
MODEL 2
REMARK VINA RESULT:    -5.953      4.124      6.476
REMARK INTER + INTRA:          -8.105
REMARK INTER:                  -7.690
REMARK INTRA:                  -0.416
REMARK UNBOUND:                -0.761
REMARK  Name = 
REMARK  7 active torsions:
REMARK  status: ('A' for Active; 'I' for Inactive)
REMARK    1  A    between atoms: C_1  and  C_2
REMARK    2  A    between atoms: C_2  and  C_3
REMARK    3  A    between atoms: C_2  and  C_4
REMARK    4  A    between atoms: C_2  and  C_5
REMARK    5  A    between atoms: C_9  and  C_10
REMARK    6  A    between atoms: N_16  and  C_17
REMARK    7  A    between atoms: C_17  and  C_18
REMARK                            x       y       z     vdW  Elec       q    Type
REMARK                         _______ _______ _______ _____ _____    ______ ____
ROOT
ATOM      1  C   UNL     1      45.972   4.976  12.694  0.00  0.00    +0.000 A 
ATOM      2  N   UNL     1      45.883   4.198  13.769  0.00  0.00    +0.000 NA
ATOM      3  C   UNL     1      46.817   4.640  14.656  0.00  0.00    +0.000 A 
ATOM      4  C   UNL     1      47.143   4.182  15.937  0.00  0.00    +0.000 A 
ATOM      5  C   UNL     1      48.158   4.862  16.616  0.00  0.00    +0.000 A 
ATOM      6  C   UNL     1      48.775   5.946  15.982  0.00  0.00    +0.000 A 
ATOM      7  N   UNL     1      48.498   6.414  14.732  0.00  0.00    +0.000 NA
ATOM      8  C   UNL     1      47.516   5.712  14.133  0.00  0.00    +0.000 A 
ATOM      9  N   UNL     1      46.992   5.903  12.871  0.00  0.00    +0.000 N 
ENDROOT
BRANCH   5  10
ATOM     10  C   UNL     1      48.621   4.492  17.977  0.00  0.00    +0.000 C 
ATOM     11  N   UNL     1      47.910   3.564  18.682  0.00  0.00    +0.000 N 
ATOM     12  O   UNL     1      49.623   5.002  18.462  0.00  0.00    +0.000 OA
ATOM     13  H   UNL     1      47.086   3.082  18.360  0.00  0.00    +0.000 HD
ATOM     14  H   UNL     1      48.261   3.325  19.605  0.00  0.00    +0.000 HD
ENDBRANCH   5  10
BRANCH   1  16
ATOM     15  C   UNL     1      43.717   5.435  11.730  0.00  0.00    +0.000 C 
ATOM     16  C   UNL     1      45.084   4.749  11.472  0.00  0.00    +0.000 C 
ATOM     17  C   UNL     1      44.847   3.240  11.297  0.00  0.00    +0.000 C 
ATOM     18  C   UNL     1      45.615   5.341  10.162  0.00  0.00    +0.000 C 
ENDBRANCH   1  16
BRANCH   9  19
ATOM     19  C   UNL     1      47.559   6.859  11.930  0.00  0.00    +0.000 C 
BRANCH  19  20
ATOM     20  C   UNL     1      46.950   8.240  12.015  0.00  0.00    +0.000 A 
ATOM     21  C   UNL     1      45.575   8.452  12.157  0.00  0.00    +0.000 A 
ATOM     22  C   UNL     1      45.096   9.753  12.200  0.00  0.00    +0.000 A 
ATOM     23  N   UNL     1      45.883  10.846  12.134  0.00  0.00    +0.000 NA
ATOM     24  C   UNL     1      47.209  10.630  12.044  0.00  0.00    +0.000 A 
ATOM     25  C   UNL     1      47.782   9.367  11.996  0.00  0.00    +0.000 A 
ENDBRANCH  19  20
ENDBRANCH   9  19
TORSDOF 4
ENDMDL
MODEL 3
REMARK VINA RESULT:    -5.894      3.283      5.596
REMARK INTER + INTRA:          -8.033
REMARK INTER:                  -7.317
REMARK INTRA:                  -0.716
REMARK UNBOUND:                -0.761
REMARK  Name = 
REMARK  7 active torsions:
REMARK  status: ('A' for Active; 'I' for Inactive)
REMARK    1  A    between atoms: C_1  and  C_2
REMARK    2  A    between atoms: C_2  and  C_3
REMARK    3  A    between atoms: C_2  and  C_4
REMARK    4  A    between atoms: C_2  and  C_5
REMARK    5  A    between atoms: C_9  and  C_10
REMARK    6  A    between atoms: N_16  and  C_17
REMARK    7  A    between atoms: C_17  and  C_18
REMARK                            x       y       z     vdW  Elec       q    Type
REMARK                         _______ _______ _______ _____ _____    ______ ____
ROOT
ATOM      1  C   UNL     1      48.250   6.690  14.426  0.00  0.00    +0.000 A 
ATOM      2  N   UNL     1      47.655   5.516  14.613  0.00  0.00    +0.000 NA
ATOM      3  C   UNL     1      46.863   5.295  13.527  0.00  0.00    +0.000 A 
ATOM      4  C   UNL     1      46.027   4.218  13.214  0.00  0.00    +0.000 A 
ATOM      5  C   UNL     1      45.341   4.277  11.998  0.00  0.00    +0.000 A 
ATOM      6  C   UNL     1      45.532   5.394  11.178  0.00  0.00    +0.000 A 
ATOM      7  N   UNL     1      46.323   6.471  11.452  0.00  0.00    +0.000 NA
ATOM      8  C   UNL     1      46.951   6.351  12.638  0.00  0.00    +0.000 A 
ATOM      9  N   UNL     1      47.814   7.250  13.230  0.00  0.00    +0.000 N 
ENDROOT
BRANCH   5  10
ATOM     10  C   UNL     1      44.415   3.217  11.530  0.00  0.00    +0.000 C 
ATOM     11  N   UNL     1      43.805   2.421  12.457  0.00  0.00    +0.000 N 
ATOM     12  O   UNL     1      44.192   3.056  10.337  0.00  0.00    +0.000 OA
ATOM     13  H   UNL     1      43.915   2.490  13.457  0.00  0.00    +0.000 HD
ATOM     14  H   UNL     1      43.168   1.714  12.103  0.00  0.00    +0.000 HD
ENDBRANCH   5  10
BRANCH   1  16
ATOM     15  C   UNL     1      49.246   6.311  16.682  0.00  0.00    +0.000 C 
ATOM     16  C   UNL     1      49.199   7.277  15.469  0.00  0.00    +0.000 C 
ATOM     17  C   UNL     1      48.645   8.630  15.945  0.00  0.00    +0.000 C 
ATOM     18  C   UNL     1      50.649   7.451  15.006  0.00  0.00    +0.000 C 
ENDBRANCH   1  16
BRANCH   9  19
ATOM     19  C   UNL     1      48.064   8.571  12.671  0.00  0.00    +0.000 C 
BRANCH  19  20
ATOM     20  C   UNL     1      49.387   8.692  11.949  0.00  0.00    +0.000 A 
ATOM     21  C   UNL     1      50.073   7.585  11.438  0.00  0.00    +0.000 A 
ATOM     22  C   UNL     1      51.295   7.782  10.812  0.00  0.00    +0.000 A 
ATOM     23  N   UNL     1      51.866   8.992  10.641  0.00  0.00    +0.000 NA
ATOM     24  C   UNL     1      51.174  10.055  11.096  0.00  0.00    +0.000 A 
ATOM     25  C   UNL     1      49.945   9.959  11.733  0.00  0.00    +0.000 A 
ENDBRANCH  19  20
ENDBRANCH   9  19
TORSDOF 4
ENDMDL
MODEL 4
REMARK VINA RESULT:    -5.535      4.173      6.226
REMARK INTER + INTRA:          -7.590
REMARK INTER:                  -6.836
REMARK INTRA:                  -0.754
REMARK UNBOUND:                -0.761
REMARK  Name = 
REMARK  7 active torsions:
REMARK  status: ('A' for Active; 'I' for Inactive)
REMARK    1  A    between atoms: C_1  and  C_2
REMARK    2  A    between atoms: C_2  and  C_3
REMARK    3  A    between atoms: C_2  and  C_4
REMARK    4  A    between atoms: C_2  and  C_5
REMARK    5  A    between atoms: C_9  and  C_10
REMARK    6  A    between atoms: N_16  and  C_17
REMARK    7  A    between atoms: C_17  and  C_18
REMARK                            x       y       z     vdW  Elec       q    Type
REMARK                         _______ _______ _______ _____ _____    ______ ____
ROOT
ATOM      1  C   UNL     1      47.809   4.793  16.119  0.00  0.00    +0.000 A 
ATOM      2  N   UNL     1      46.766   4.358  15.418  0.00  0.00    +0.000 NA
ATOM      3  C   UNL     1      46.762   5.047  14.243  0.00  0.00    +0.000 A 
ATOM      4  C   UNL     1      45.892   4.979  13.151  0.00  0.00    +0.000 A 
ATOM      5  C   UNL     1      46.162   5.820  12.068  0.00  0.00    +0.000 A 
ATOM      6  C   UNL     1      47.275   6.664  12.141  0.00  0.00    +0.000 A 
ATOM      7  N   UNL     1      48.138   6.773  13.191  0.00  0.00    +0.000 NA
ATOM      8  C   UNL     1      47.817   5.940  14.200  0.00  0.00    +0.000 A 
ATOM      9  N   UNL     1      48.464   5.794  15.410  0.00  0.00    +0.000 N 
ENDROOT
BRANCH   5  10
ATOM     10  C   UNL     1      45.328   5.867  10.842  0.00  0.00    +0.000 C 
ATOM     11  N   UNL     1      44.059   6.361  10.929  0.00  0.00    +0.000 N 
ATOM     12  O   UNL     1      45.765   5.476   9.766  0.00  0.00    +0.000 OA
ATOM     13  H   UNL     1      43.621   6.718  11.764  0.00  0.00    +0.000 HD
ATOM     14  H   UNL     1      43.520   6.391  10.069  0.00  0.00    +0.000 HD
ENDBRANCH   5  10
BRANCH   1  16
ATOM     15  C   UNL     1      47.505   2.832  17.630  0.00  0.00    +0.000 C 
ATOM     16  C   UNL     1      48.108   4.256  17.517  0.00  0.00    +0.000 C 
ATOM     17  C   UNL     1      47.427   5.158  18.558  0.00  0.00    +0.000 C 
ATOM     18  C   UNL     1      49.596   4.115  17.855  0.00  0.00    +0.000 C 
ENDBRANCH   1  16
BRANCH   9  19
ATOM     19  C   UNL     1      49.557   6.666  15.819  0.00  0.00    +0.000 C 
BRANCH  19  20
ATOM     20  C   UNL     1      49.143   7.766  16.769  0.00  0.00    +0.000 A 
ATOM     21  C   UNL     1      49.619   7.849  18.082  0.00  0.00    +0.000 A 
ATOM     22  C   UNL     1      49.168   8.877  18.897  0.00  0.00    +0.000 A 
ATOM     23  N   UNL     1      48.303   9.830  18.495  0.00  0.00    +0.000 NA
ATOM     24  C   UNL     1      47.887   9.767  17.215  0.00  0.00    +0.000 A 
ATOM     25  C   UNL     1      48.283   8.779  16.325  0.00  0.00    +0.000 A 
ENDBRANCH  19  20
ENDBRANCH   9  19
TORSDOF 4
ENDMDL
MODEL 5
REMARK VINA RESULT:    -5.474      4.003      7.022
REMARK INTER + INTRA:          -7.515
REMARK INTER:                  -7.282
REMARK INTRA:                  -0.232
REMARK UNBOUND:                -0.761
REMARK  Name = 
REMARK  7 active torsions:
REMARK  status: ('A' for Active; 'I' for Inactive)
REMARK    1  A    between atoms: C_1  and  C_2
REMARK    2  A    between atoms: C_2  and  C_3
REMARK    3  A    between atoms: C_2  and  C_4
REMARK    4  A    between atoms: C_2  and  C_5
REMARK    5  A    between atoms: C_9  and  C_10
REMARK    6  A    between atoms: N_16  and  C_17
REMARK    7  A    between atoms: C_17  and  C_18
REMARK                            x       y       z     vdW  Elec       q    Type
REMARK                         _______ _______ _______ _____ _____    ______ ____
ROOT
ATOM      1  C   UNL     1      47.886   7.706  13.367  0.00  0.00    +0.000 A 
ATOM      2  N   UNL     1      48.216   7.500  14.639  0.00  0.00    +0.000 NA
ATOM      3  C   UNL     1      47.978   6.185  14.902  0.00  0.00    +0.000 A 
ATOM      4  C   UNL     1      48.154   5.447  16.077  0.00  0.00    +0.000 A 
ATOM      5  C   UNL     1      47.826   4.089  16.030  0.00  0.00    +0.000 A 
ATOM      6  C   UNL     1      47.352   3.559  14.825  0.00  0.00    +0.000 A 
ATOM      7  N   UNL     1      47.152   4.245  13.664  0.00  0.00    +0.000 NA
ATOM      8  C   UNL     1      47.483   5.546  13.780  0.00  0.00    +0.000 A 
ATOM      9  N   UNL     1      47.399   6.527  12.814  0.00  0.00    +0.000 N 
ENDROOT
BRANCH   5  10
ATOM     10  C   UNL     1      47.951   3.177  17.193  0.00  0.00    +0.000 C 
ATOM     11  N   UNL     1      46.815   2.673  17.758  0.00  0.00    +0.000 N 
ATOM     12  O   UNL     1      49.050   2.873  17.642  0.00  0.00    +0.000 OA
ATOM     13  H   UNL     1      45.872   2.853  17.449  0.00  0.00    +0.000 HD
ATOM     14  H   UNL     1      46.937   2.042  18.545  0.00  0.00    +0.000 HD
ENDBRANCH   5  10
BRANCH   1  16
ATOM     15  C   UNL     1      48.548  10.073  13.795  0.00  0.00    +0.000 C 
ATOM     16  C   UNL     1      47.998   9.089  12.729  0.00  0.00    +0.000 C 
ATOM     17  C   UNL     1      46.596   9.561  12.308  0.00  0.00    +0.000 C 
ATOM     18  C   UNL     1      48.951   9.181  11.533  0.00  0.00    +0.000 C 
ENDBRANCH   1  16
BRANCH   9  19
ATOM     19  C   UNL     1      46.786   6.288  11.514  0.00  0.00    +0.000 C 
BRANCH  19  20
ATOM     20  C   UNL     1      45.392   5.709  11.590  0.00  0.00    +0.000 A 
ATOM     21  C   UNL     1      44.968   4.651  10.779  0.00  0.00    +0.000 A 
ATOM     22  C   UNL     1      43.662   4.198  10.893  0.00  0.00    +0.000 A 
ATOM     23  N   UNL     1      42.765   4.702  11.765  0.00  0.00    +0.000 NA
ATOM     24  C   UNL     1      43.198   5.690  12.573  0.00  0.00    +0.000 A 
ATOM     25  C   UNL     1      44.484   6.208  12.533  0.00  0.00    +0.000 A 
ENDBRANCH  19  20
ENDBRANCH   9  19
TORSDOF 4
ENDMDL
MODEL 6
REMARK VINA RESULT:    -5.350      4.275      6.185
REMARK INTER + INTRA:          -7.362
REMARK INTER:                  -6.809
REMARK INTRA:                  -0.553
REMARK UNBOUND:                -0.761
REMARK  Name = 
REMARK  7 active torsions:
REMARK  status: ('A' for Active; 'I' for Inactive)
REMARK    1  A    between atoms: C_1  and  C_2
REMARK    2  A    between atoms: C_2  and  C_3
REMARK    3  A    between atoms: C_2  and  C_4
REMARK    4  A    between atoms: C_2  and  C_5
REMARK    5  A    between atoms: C_9  and  C_10
REMARK    6  A    between atoms: N_16  and  C_17
REMARK    7  A    between atoms: C_17  and  C_18
REMARK                            x       y       z     vdW  Elec       q    Type
REMARK                         _______ _______ _______ _____ _____    ______ ____
ROOT
ATOM      1  C   UNL     1      47.931   4.386  16.242  0.00  0.00    +0.000 A 
ATOM      2  N   UNL     1      47.180   3.645  15.434  0.00  0.00    +0.000 NA
ATOM      3  C   UNL     1      46.888   4.413  14.348  0.00  0.00    +0.000 A 
ATOM      4  C   UNL     1      46.137   4.125  13.204  0.00  0.00    +0.000 A 
ATOM      5  C   UNL     1      46.026   5.135  12.244  0.00  0.00    +0.000 A 
ATOM      6  C   UNL     1      46.668   6.355  12.482  0.00  0.00    +0.000 A 
ATOM      7  N   UNL     1      47.394   6.682  13.588  0.00  0.00    +0.000 NA
ATOM      8  C   UNL     1      47.457   5.667  14.473  0.00  0.00    +0.000 A 
ATOM      9  N   UNL     1      48.097   5.654  15.696  0.00  0.00    +0.000 N 
ENDROOT
BRANCH   5  10
ATOM     10  C   UNL     1      45.260   4.982  10.983  0.00  0.00    +0.000 C 
ATOM     11  N   UNL     1      45.393   5.935  10.014  0.00  0.00    +0.000 N 
ATOM     12  O   UNL     1      44.524   4.020  10.804  0.00  0.00    +0.000 OA
ATOM     13  H   UNL     1      45.985   6.750  10.065  0.00  0.00    +0.000 HD
ATOM     14  H   UNL     1      44.864   5.794   9.159  0.00  0.00    +0.000 HD
ENDBRANCH   5  10
BRANCH   1  16
ATOM     15  C   UNL     1      49.863   3.302  17.390  0.00  0.00    +0.000 C 
ATOM     16  C   UNL     1      48.425   3.849  17.585  0.00  0.00    +0.000 C 
ATOM     17  C   UNL     1      47.518   2.689  18.025  0.00  0.00    +0.000 C 
ATOM     18  C   UNL     1      48.513   4.887  18.708  0.00  0.00    +0.000 C 
ENDBRANCH   1  16
BRANCH   9  19
ATOM     19  C   UNL     1      48.708   6.845  16.268  0.00  0.00    +0.000 C 
BRANCH  19  20
ATOM     20  C   UNL     1      50.168   7.016  15.917  0.00  0.00    +0.000 A 
ATOM     21  C   UNL     1      51.194   6.371  16.615  0.00  0.00    +0.000 A 
ATOM     22  C   UNL     1      52.510   6.604  16.244  0.00  0.00    +0.000 A 
ATOM     23  N   UNL     1      52.872   7.408  15.224  0.00  0.00    +0.000 NA
ATOM     24  C   UNL     1      51.874   7.988  14.529  0.00  0.00    +0.000 A 
ATOM     25  C   UNL     1      50.529   7.814  14.823  0.00  0.00    +0.000 A 
ENDBRANCH  19  20
ENDBRANCH   9  19
TORSDOF 4
ENDMDL
MODEL 7
REMARK VINA RESULT:    -5.181      4.316      6.570
REMARK INTER + INTRA:          -7.153
REMARK INTER:                  -6.692
REMARK INTRA:                  -0.461
REMARK UNBOUND:                -0.761
REMARK  Name = 
REMARK  7 active torsions:
REMARK  status: ('A' for Active; 'I' for Inactive)
REMARK    1  A    between atoms: C_1  and  C_2
REMARK    2  A    between atoms: C_2  and  C_3
REMARK    3  A    between atoms: C_2  and  C_4
REMARK    4  A    between atoms: C_2  and  C_5
REMARK    5  A    between atoms: C_9  and  C_10
REMARK    6  A    between atoms: N_16  and  C_17
REMARK    7  A    between atoms: C_17  and  C_18
REMARK                            x       y       z     vdW  Elec       q    Type
REMARK                         _______ _______ _______ _____ _____    ______ ____
ROOT
ATOM      1  C   UNL     1      46.134   5.142  13.008  0.00  0.00    +0.000 A 
ATOM      2  N   UNL     1      46.322   3.990  13.645  0.00  0.00    +0.000 NA
ATOM      3  C   UNL     1      47.118   4.256  14.717  0.00  0.00    +0.000 A 
ATOM      4  C   UNL     1      47.616   3.409  15.713  0.00  0.00    +0.000 A 
ATOM      5  C   UNL     1      48.411   3.991  16.704  0.00  0.00    +0.000 A 
ATOM      6  C   UNL     1      48.654   5.368  16.642  0.00  0.00    +0.000 A 
ATOM      7  N   UNL     1      48.202   6.224  15.682  0.00  0.00    +0.000 NA
ATOM      8  C   UNL     1      47.447   5.598  14.757  0.00  0.00    +0.000 A 
ATOM      9  N   UNL     1      46.841   6.152  13.649  0.00  0.00    +0.000 N 
ENDROOT
BRANCH   5  10
ATOM     10  C   UNL     1      49.016   3.225  17.821  0.00  0.00    +0.000 C 
ATOM     11  N   UNL     1      50.091   2.423  17.562  0.00  0.00    +0.000 N 
ATOM     12  O   UNL     1      48.569   3.308  18.958  0.00  0.00    +0.000 OA
ATOM     13  H   UNL     1      50.535   2.304  16.665  0.00  0.00    +0.000 HD
ATOM     14  H   UNL     1      50.488   1.923  18.351  0.00  0.00    +0.000 HD
ENDBRANCH   5  10
BRANCH   1  16
ATOM     15  C   UNL     1      44.027   6.044  12.023  0.00  0.00    +0.000 C 
ATOM     16  C   UNL     1      45.304   5.217  11.727  0.00  0.00    +0.000 C 
ATOM     17  C   UNL     1      44.882   3.796  11.319  0.00  0.00    +0.000 C 
ATOM     18  C   UNL     1      45.993   5.906  10.544  0.00  0.00    +0.000 C 
ENDBRANCH   1  16
BRANCH   9  19
ATOM     19  C   UNL     1      47.062   7.536  13.251  0.00  0.00    +0.000 C 
BRANCH  19  20
ATOM     20  C   UNL     1      48.486   7.837  12.841  0.00  0.00    +0.000 A 
ATOM     21  C   UNL     1      49.062   7.323  11.675  0.00  0.00    +0.000 A 
ATOM     22  C   UNL     1      50.384   7.627  11.387  0.00  0.00    +0.000 A 
ATOM     23  N   UNL     1      51.159   8.417  12.158  0.00  0.00    +0.000 NA
ATOM     24  C   UNL     1      50.580   8.944  13.255  0.00  0.00    +0.000 A 
ATOM     25  C   UNL     1      49.265   8.699  13.625  0.00  0.00    +0.000 A 
ENDBRANCH  19  20
ENDBRANCH   9  19
TORSDOF 4
ENDMDL
MODEL 8
REMARK VINA RESULT:    -4.538      5.216      8.109
REMARK INTER + INTRA:          -6.360
REMARK INTER:                  -5.721
REMARK INTRA:                  -0.639
REMARK UNBOUND:                -0.761
REMARK  Name = 
REMARK  7 active torsions:
REMARK  status: ('A' for Active; 'I' for Inactive)
REMARK    1  A    between atoms: C_1  and  C_2
REMARK    2  A    between atoms: C_2  and  C_3
REMARK    3  A    between atoms: C_2  and  C_4
REMARK    4  A    between atoms: C_2  and  C_5
REMARK    5  A    between atoms: C_9  and  C_10
REMARK    6  A    between atoms: N_16  and  C_17
REMARK    7  A    between atoms: C_17  and  C_18
REMARK                            x       y       z     vdW  Elec       q    Type
REMARK                         _______ _______ _______ _____ _____    ______ ____
ROOT
ATOM      1  C   UNL     1      48.382   7.099  13.579  0.00  0.00    +0.000 A 
ATOM      2  N   UNL     1      47.793   5.921  13.758  0.00  0.00    +0.000 NA
ATOM      3  C   UNL     1      47.994   5.570  15.058  0.00  0.00    +0.000 A 
ATOM      4  C   UNL     1      47.587   4.436  15.769  0.00  0.00    +0.000 A 
ATOM      5  C   UNL     1      47.945   4.368  17.118  0.00  0.00    +0.000 A 
ATOM      6  C   UNL     1      48.676   5.426  17.668  0.00  0.00    +0.000 A 
ATOM      7  N   UNL     1      49.106   6.539  17.009  0.00  0.00    +0.000 NA
ATOM      8  C   UNL     1      48.731   6.539  15.714  0.00  0.00    +0.000 A 
ATOM      9  N   UNL     1      49.001   7.497  14.759  0.00  0.00    +0.000 N 
ENDROOT
BRANCH   5  10
ATOM     10  C   UNL     1      47.592   3.229  18.000  0.00  0.00    +0.000 C 
ATOM     11  N   UNL     1      48.264   3.078  19.179  0.00  0.00    +0.000 N 
ATOM     12  O   UNL     1      46.711   2.437  17.687  0.00  0.00    +0.000 OA
ATOM     13  H   UNL     1      48.989   3.686  19.527  0.00  0.00    +0.000 HD
ATOM     14  H   UNL     1      47.988   2.295  19.765  0.00  0.00    +0.000 HD
ENDBRANCH   5  10
BRANCH   1  16
ATOM     15  C   UNL     1      47.220   7.205  11.374  0.00  0.00    +0.000 C 
ATOM     16  C   UNL     1      48.382   7.791  12.217  0.00  0.00    +0.000 C 
ATOM     17  C   UNL     1      49.707   7.485  11.499  0.00  0.00    +0.000 C 
ATOM     18  C   UNL     1      48.158   9.306  12.256  0.00  0.00    +0.000 C 
ENDBRANCH   1  16
BRANCH   9  19
ATOM     19  C   UNL     1      49.882   8.627  15.017  0.00  0.00    +0.000 C 
BRANCH  19  20
ATOM     20  C   UNL     1      51.330   8.370  14.665  0.00  0.00    +0.000 A 
ATOM     21  C   UNL     1      51.937   8.907  13.525  0.00  0.00    +0.000 A 
ATOM     22  C   UNL     1      53.263   8.599  13.261  0.00  0.00    +0.000 A 
ATOM     23  N   UNL     1      54.026   7.821  14.056  0.00  0.00    +0.000 NA
ATOM     24  C   UNL     1      53.444   7.347  15.175  0.00  0.00    +0.000 A 
ATOM     25  C   UNL     1      52.126   7.601  15.524  0.00  0.00    +0.000 A 
ENDBRANCH  19  20
ENDBRANCH   9  19
TORSDOF 4
ENDMDL
MODEL 9
REMARK VINA RESULT:    -4.524      4.344      6.903
REMARK INTER + INTRA:          -6.343
REMARK INTER:                  -6.386
REMARK INTRA:                   0.043
REMARK UNBOUND:                -0.761
REMARK  Name = 
REMARK  7 active torsions:
REMARK  status: ('A' for Active; 'I' for Inactive)
REMARK    1  A    between atoms: C_1  and  C_2
REMARK    2  A    between atoms: C_2  and  C_3
REMARK    3  A    between atoms: C_2  and  C_4
REMARK    4  A    between atoms: C_2  and  C_5
REMARK    5  A    between atoms: C_9  and  C_10
REMARK    6  A    between atoms: N_16  and  C_17
REMARK    7  A    between atoms: C_17  and  C_18
REMARK                            x       y       z     vdW  Elec       q    Type
REMARK                         _______ _______ _______ _____ _____    ______ ____
ROOT
ATOM      1  C   UNL     1      45.596   5.443  12.774  0.00  0.00    +0.000 A 
ATOM      2  N   UNL     1      45.592   6.767  12.655  0.00  0.00    +0.000 NA
ATOM      3  C   UNL     1      46.754   7.218  13.204  0.00  0.00    +0.000 A 
ATOM      4  C   UNL     1      47.253   8.517  13.339  0.00  0.00    +0.000 A 
ATOM      5  C   UNL     1      48.504   8.659  13.947  0.00  0.00    +0.000 A 
ATOM      6  C   UNL     1      49.172   7.506  14.374  0.00  0.00    +0.000 A 
ATOM      7  N   UNL     1      48.715   6.226  14.277  0.00  0.00    +0.000 NA
ATOM      8  C   UNL     1      47.506   6.161  13.686  0.00  0.00    +0.000 A 
ATOM      9  N   UNL     1      46.749   5.036  13.435  0.00  0.00    +0.000 N 
ENDROOT
BRANCH   5  10
ATOM     10  C   UNL     1      49.162   9.970  14.167  0.00  0.00    +0.000 C 
ATOM     11  N   UNL     1      48.442  11.110  13.953  0.00  0.00    +0.000 N 
ATOM     12  O   UNL     1      50.327  10.037  14.538  0.00  0.00    +0.000 OA
ATOM     13  H   UNL     1      47.477  11.153  13.664  0.00  0.00    +0.000 HD
ATOM     14  H   UNL     1      48.918  11.990  14.125  0.00  0.00    +0.000 HD
ENDBRANCH   5  10
BRANCH   1  16
ATOM     15  C   UNL     1      43.686   5.383  11.169  0.00  0.00    +0.000 C 
ATOM     16  C   UNL     1      44.421   4.597  12.286  0.00  0.00    +0.000 C 
ATOM     17  C   UNL     1      43.443   4.378  13.452  0.00  0.00    +0.000 C 
ATOM     18  C   UNL     1      44.802   3.244  11.675  0.00  0.00    +0.000 C 
ENDBRANCH   1  16
BRANCH   9  19
ATOM     19  C   UNL     1      47.130   3.717  13.922  0.00  0.00    +0.000 C 
BRANCH  19  20
ATOM     20  C   UNL     1      47.436   3.673  15.402  0.00  0.00    +0.000 A 
ATOM     21  C   UNL     1      46.781   4.486  16.333  0.00  0.00    +0.000 A 
ATOM     22  C   UNL     1      47.141   4.401  17.670  0.00  0.00    +0.000 A 
ATOM     23  N   UNL     1      48.081   3.558  18.143  0.00  0.00    +0.000 NA
ATOM     24  C   UNL     1      48.672   2.747  17.244  0.00  0.00    +0.000 A 
ATOM     25  C   UNL     1      48.378   2.758  15.888  0.00  0.00    +0.000 A 
ENDBRANCH  19  20
ENDBRANCH   9  19
TORSDOF 4
ENDMDL
