MODEL 1
REMARK VINA RESULT:    -9.155      0.000      0.000
REMARK INTER + INTRA:         -12.749
REMARK INTER:                 -12.366
REMARK INTRA:                  -0.382
REMARK UNBOUND:                -0.382
REMARK  Name = 
REMARK  6 active torsions:
REMARK  status: ('A' for Active; 'I' for Inactive)
REMARK    1  A    between atoms: C_2  and  C_3
REMARK    2  A    between atoms: C_6  and  C_7
REMARK    3  A    between atoms: C_11  and  C_12
REMARK    4  A    between atoms: C_12  and  N_13
REMARK    5  A    between atoms: N_13  and  C_14
REMARK    6  A    between atoms: C_17  and  C_18
REMARK                            x       y       z     vdW  Elec       q    Type
REMARK                         _______ _______ _______ _____ _____    ______ ____
ROOT
ATOM      1  C   UNL     1      43.755   5.154  11.119  0.00  0.00    +0.000 C 
ATOM      2  C   UNL     1      42.522   5.663  11.836  0.00  0.00    +0.000 C 
ATOM      3  C   UNL     1      42.913   4.237  12.011  0.00  0.00    +0.000 C 
ENDROOT
BRANCH   1   8
ATOM      4  C   UNL     1      46.889   5.564  13.372  0.00  0.00    +0.000 A 
ATOM      5  C   UNL     1      47.647   6.431  12.564  0.00  0.00    +0.000 A 
ATOM      6  C   UNL     1      47.153   6.919  11.362  0.00  0.00    +0.000 A 
ATOM      7  C   UNL     1      45.890   6.528  10.928  0.00  0.00    +0.000 A 
ATOM      8  C   UNL     1      45.122   5.594  11.642  0.00  0.00    +0.000 A 
ATOM      9  C   UNL     1      45.652   5.120  12.865  0.00  0.00    +0.000 A 
BRANCH   4  13
ATOM     10  C   UNL     1      48.151   4.522  17.218  0.00  0.00    +0.000 A 
ATOM     11  C   UNL     1      48.718   5.589  16.539  0.00  0.00    +0.000 A 
ATOM     12  N   UNL     1      48.348   5.943  15.277  0.00  0.00    +0.000 NA
ATOM     13  C   UNL     1      47.374   5.185  14.710  0.00  0.00    +0.000 A 
ATOM     14  C   UNL     1      46.847   4.085  15.397  0.00  0.00    +0.000 A 
ATOM     15  N   UNL     1      47.206   3.734  16.656  0.00  0.00    +0.000 NA
BRANCH  10  17
ATOM     16  N   UNL     1      48.781   4.000  19.674  0.00  0.00    +0.000 NA
ATOM     17  C   UNL     1      48.517   4.224  18.571  0.00  0.00    +0.000 C 
ENDBRANCH  10  17
ENDBRANCH   4  13
ENDBRANCH   1   8
BRANCH   1  18
ATOM     18  N   UNL     1      43.771   4.777   9.696  0.00  0.00    +0.000 N 
ATOM     19  H   UNL     1      43.367   5.444   9.046  0.00  0.00    +0.000 HD
BRANCH  18  20
ATOM     20  C   UNL     1      44.669   3.887   9.087  0.00  0.00    +0.000 A 
ATOM     21  C   UNL     1      45.639   4.263   8.160  0.00  0.00    +0.000 A 
ATOM     22  C   UNL     1      46.463   3.300   7.573  0.00  0.00    +0.000 A 
ATOM     23  C   UNL     1      46.316   1.978   7.966  0.00  0.00    +0.000 A 
ATOM     24  N   UNL     1      45.454   1.570   8.936  0.00  0.00    +0.000 NA
ATOM     25  C   UNL     1      44.676   2.539   9.473  0.00  0.00    +0.000 A 
BRANCH  23  26
ATOM     26  C   UNL     1      47.080   0.900   7.263  0.00  0.00    +0.000 C 
ATOM     27  N   UNL     1      46.766  -0.379   7.640  0.00  0.00    +0.000 N 
ATOM     28  O   UNL     1      47.903   1.132   6.387  0.00  0.00    +0.000 OA
ATOM     29  H   UNL     1      46.028  -0.524   8.320  0.00  0.00    +0.000 HD
ATOM     30  H   UNL     1      47.162  -1.158   7.135  0.00  0.00    +0.000 HD
ENDBRANCH  23  26
ENDBRANCH  18  20
ENDBRANCH   1  18
TORSDOF 6
ENDMDL
MODEL 2
REMARK VINA RESULT:    -8.151      2.188      3.315
REMARK INTER + INTRA:         -11.392
REMARK INTER:                 -10.586
REMARK INTRA:                  -0.806
REMARK UNBOUND:                -0.382
REMARK  Name = 
REMARK  6 active torsions:
REMARK  status: ('A' for Active; 'I' for Inactive)
REMARK    1  A    between atoms: C_2  and  C_3
REMARK    2  A    between atoms: C_6  and  C_7
REMARK    3  A    between atoms: C_11  and  C_12
REMARK    4  A    between atoms: C_12  and  N_13
REMARK    5  A    between atoms: N_13  and  C_14
REMARK    6  A    between atoms: C_17  and  C_18
REMARK                            x       y       z     vdW  Elec       q    Type
REMARK                         _______ _______ _______ _____ _____    ______ ____
ROOT
ATOM      1  C   UNL     1      44.022   5.486  11.101  0.00  0.00    +0.000 C 
ATOM      2  C   UNL     1      43.784   6.974  10.945  0.00  0.00    +0.000 C 
ATOM      3  C   UNL     1      42.800   6.169  11.721  0.00  0.00    +0.000 C 
ENDROOT
BRANCH   1   8
ATOM      4  C   UNL     1      47.210   5.483  13.317  0.00  0.00    +0.000 A 
ATOM      5  C   UNL     1      47.173   4.156  13.780  0.00  0.00    +0.000 A 
ATOM      6  C   UNL     1      46.194   3.268  13.356  0.00  0.00    +0.000 A 
ATOM      7  C   UNL     1      45.211   3.698  12.471  0.00  0.00    +0.000 A 
ATOM      8  C   UNL     1      45.138   5.034  12.043  0.00  0.00    +0.000 A 
ATOM      9  C   UNL     1      46.153   5.912  12.489  0.00  0.00    +0.000 A 
BRANCH   4  13
ATOM     10  C   UNL     1      50.503   7.891  14.226  0.00  0.00    +0.000 A 
ATOM     11  C   UNL     1      49.876   7.131  15.201  0.00  0.00    +0.000 A 
ATOM     12  N   UNL     1      48.788   6.354  14.946  0.00  0.00    +0.000 NA
ATOM     13  C   UNL     1      48.344   6.358  13.662  0.00  0.00    +0.000 A 
ATOM     14  C   UNL     1      48.965   7.168  12.704  0.00  0.00    +0.000 A 
ATOM     15  N   UNL     1      50.053   7.937  12.951  0.00  0.00    +0.000 NA
BRANCH  10  17
ATOM     16  N   UNL     1      52.631   9.276  14.734  0.00  0.00    +0.000 NA
ATOM     17  C   UNL     1      51.688   8.642  14.518  0.00  0.00    +0.000 C 
ENDBRANCH  10  17
ENDBRANCH   4  13
ENDBRANCH   1   8
BRANCH   1  18
ATOM     18  N   UNL     1      43.707   4.497  10.058  0.00  0.00    +0.000 N 
ATOM     19  H   UNL     1      42.790   4.570   9.627  0.00  0.00    +0.000 HD
BRANCH  18  20
ATOM     20  C   UNL     1      44.636   3.808   9.264  0.00  0.00    +0.000 A 
ATOM     21  C   UNL     1      44.763   2.421   9.230  0.00  0.00    +0.000 A 
ATOM     22  C   UNL     1      45.748   1.823   8.440  0.00  0.00    +0.000 A 
ATOM     23  C   UNL     1      46.559   2.640   7.667  0.00  0.00    +0.000 A 
ATOM     24  N   UNL     1      46.414   3.990   7.587  0.00  0.00    +0.000 NA
ATOM     25  C   UNL     1      45.449   4.523   8.373  0.00  0.00    +0.000 A 
BRANCH  23  26
ATOM     26  C   UNL     1      47.713   2.053   6.916  0.00  0.00    +0.000 C 
ATOM     27  N   UNL     1      48.641   2.957   6.471  0.00  0.00    +0.000 N 
ATOM     28  O   UNL     1      47.845   0.848   6.737  0.00  0.00    +0.000 OA
ATOM     29  H   UNL     1      48.524   3.937   6.703  0.00  0.00    +0.000 HD
ATOM     30  H   UNL     1      49.497   2.625   6.051  0.00  0.00    +0.000 HD
ENDBRANCH  23  26
ENDBRANCH  18  20
ENDBRANCH   1  18
TORSDOF 6
ENDMDL
MODEL 3
REMARK VINA RESULT:    -7.842      1.945      2.475
REMARK INTER + INTRA:         -10.974
REMARK INTER:                 -10.679
REMARK INTRA:                  -0.296
REMARK UNBOUND:                -0.382
REMARK  Name = 
REMARK  6 active torsions:
REMARK  status: ('A' for Active; 'I' for Inactive)
REMARK    1  A    between atoms: C_2  and  C_3
REMARK    2  A    between atoms: C_6  and  C_7
REMARK    3  A    between atoms: C_11  and  C_12
REMARK    4  A    between atoms: C_12  and  N_13
REMARK    5  A    between atoms: N_13  and  C_14
REMARK    6  A    between atoms: C_17  and  C_18
REMARK                            x       y       z     vdW  Elec       q    Type
REMARK                         _______ _______ _______ _____ _____    ______ ____
ROOT
ATOM      1  C   UNL     1      44.072   4.611  11.661  0.00  0.00    +0.000 C 
ATOM      2  C   UNL     1      43.139   4.194  12.778  0.00  0.00    +0.000 C 
ATOM      3  C   UNL     1      44.390   3.416  12.564  0.00  0.00    +0.000 C 
ENDROOT
BRANCH   1   8
ATOM      4  C   UNL     1      46.880   7.068  12.731  0.00  0.00    +0.000 A 
ATOM      5  C   UNL     1      46.376   8.258  12.176  0.00  0.00    +0.000 A 
ATOM      6  C   UNL     1      45.149   8.291  11.527  0.00  0.00    +0.000 A 
ATOM      7  C   UNL     1      44.406   7.123  11.400  0.00  0.00    +0.000 A 
ATOM      8  C   UNL     1      44.895   5.886  11.850  0.00  0.00    +0.000 A 
ATOM      9  C   UNL     1      46.145   5.886  12.511  0.00  0.00    +0.000 A 
BRANCH   4  13
ATOM     10  C   UNL     1      50.298   7.189  15.133  0.00  0.00    +0.000 A 
ATOM     11  C   UNL     1      50.197   7.961  13.987  0.00  0.00    +0.000 A 
ATOM     12  N   UNL     1      49.109   7.930  13.168  0.00  0.00    +0.000 NA
ATOM     13  C   UNL     1      48.108   7.092  13.545  0.00  0.00    +0.000 A 
ATOM     14  C   UNL     1      48.251   6.289  14.682  0.00  0.00    +0.000 A 
ATOM     15  N   UNL     1      49.328   6.321  15.503  0.00  0.00    +0.000 NA
BRANCH  10  17
ATOM     16  N   UNL     1      52.362   7.403  16.682  0.00  0.00    +0.000 NA
ATOM     17  C   UNL     1      51.429   7.301  16.006  0.00  0.00    +0.000 C 
ENDBRANCH  10  17
ENDBRANCH   4  13
ENDBRANCH   1   8
BRANCH   1  18
ATOM     18  N   UNL     1      43.852   4.267  10.246  0.00  0.00    +0.000 N 
ATOM     19  H   UNL     1      43.098   4.757   9.773  0.00  0.00    +0.000 HD
BRANCH  18  20
ATOM     20  C   UNL     1      44.810   3.743   9.365  0.00  0.00    +0.000 A 
ATOM     21  C   UNL     1      45.622   4.516   8.538  0.00  0.00    +0.000 A 
ATOM     22  C   UNL     1      46.520   3.904   7.660  0.00  0.00    +0.000 A 
ATOM     23  C   UNL     1      46.606   2.519   7.665  0.00  0.00    +0.000 A 
ATOM     24  N   UNL     1      45.909   1.722   8.518  0.00  0.00    +0.000 NA
ATOM     25  C   UNL     1      45.051   2.362   9.348  0.00  0.00    +0.000 A 
BRANCH  23  26
ATOM     26  C   UNL     1      47.450   1.820   6.646  0.00  0.00    +0.000 C 
ATOM     27  N   UNL     1      48.573   2.499   6.254  0.00  0.00    +0.000 N 
ATOM     28  O   UNL     1      47.184   0.705   6.214  0.00  0.00    +0.000 OA
ATOM     29  H   UNL     1      48.789   3.389   6.691  0.00  0.00    +0.000 HD
ATOM     30  H   UNL     1      49.244   2.046   5.652  0.00  0.00    +0.000 HD
ENDBRANCH  23  26
ENDBRANCH  18  20
ENDBRANCH   1  18
TORSDOF 6
ENDMDL
MODEL 4
REMARK VINA RESULT:    -6.955      3.331      4.914
REMARK INTER + INTRA:          -9.777
REMARK INTER:                  -9.423
REMARK INTRA:                  -0.354
REMARK UNBOUND:                -0.382
REMARK  Name = 
REMARK  6 active torsions:
REMARK  status: ('A' for Active; 'I' for Inactive)
REMARK    1  A    between atoms: C_2  and  C_3
REMARK    2  A    between atoms: C_6  and  C_7
REMARK    3  A    between atoms: C_11  and  C_12
REMARK    4  A    between atoms: C_12  and  N_13
REMARK    5  A    between atoms: N_13  and  C_14
REMARK    6  A    between atoms: C_17  and  C_18
REMARK                            x       y       z     vdW  Elec       q    Type
REMARK                         _______ _______ _______ _____ _____    ______ ____
ROOT
ATOM      1  C   UNL     1      45.220   5.250  12.204  0.00  0.00    +0.000 C 
ATOM      2  C   UNL     1      44.894   4.611  13.538  0.00  0.00    +0.000 C 
ATOM      3  C   UNL     1      46.074   4.115  12.777  0.00  0.00    +0.000 C 
ENDROOT
BRANCH   1   8
ATOM      4  C   UNL     1      47.715   8.207  11.889  0.00  0.00    +0.000 A 
ATOM      5  C   UNL     1      46.861   9.271  12.231  0.00  0.00    +0.000 A 
ATOM      6  C   UNL     1      45.543   9.051  12.607  0.00  0.00    +0.000 A 
ATOM      7  C   UNL     1      45.041   7.755  12.627  0.00  0.00    +0.000 A 
ATOM      8  C   UNL     1      45.813   6.659  12.209  0.00  0.00    +0.000 A 
ATOM      9  C   UNL     1      47.153   6.916  11.837  0.00  0.00    +0.000 A 
BRANCH   4  13
ATOM     10  C   UNL     1      51.745   8.969  11.084  0.00  0.00    +0.000 A 
ATOM     11  C   UNL     1      51.234   7.681  11.045  0.00  0.00    +0.000 A 
ATOM     12  N   UNL     1      49.933   7.393  11.324  0.00  0.00    +0.000 NA
ATOM     13  C   UNL     1      49.146   8.454  11.643  0.00  0.00    +0.000 A 
ATOM     14  C   UNL     1      49.694   9.740  11.720  0.00  0.00    +0.000 A 
ATOM     15  N   UNL     1      50.986  10.032  11.436  0.00  0.00    +0.000 NA
BRANCH  10  17
ATOM     16  N   UNL     1      54.192   9.445  10.387  0.00  0.00    +0.000 NA
ATOM     17  C   UNL     1      53.103   9.241  10.717  0.00  0.00    +0.000 C 
ENDBRANCH  10  17
ENDBRANCH   4  13
ENDBRANCH   1   8
BRANCH   1  18
ATOM     18  N   UNL     1      44.523   4.917  10.951  0.00  0.00    +0.000 N 
ATOM     19  H   UNL     1      43.717   5.489  10.715  0.00  0.00    +0.000 HD
BRANCH  18  20
ATOM     20  C   UNL     1      45.084   4.268   9.840  0.00  0.00    +0.000 A 
ATOM     21  C   UNL     1      44.944   2.908   9.573  0.00  0.00    +0.000 A 
ATOM     22  C   UNL     1      45.575   2.340   8.463  0.00  0.00    +0.000 A 
ATOM     23  C   UNL     1      46.303   3.170   7.622  0.00  0.00    +0.000 A 
ATOM     24  N   UNL     1      46.390   4.517   7.781  0.00  0.00    +0.000 NA
ATOM     25  C   UNL     1      45.765   5.020   8.872  0.00  0.00    +0.000 A 
BRANCH  23  26
ATOM     26  C   UNL     1      47.106   2.581   6.504  0.00  0.00    +0.000 C 
ATOM     27  N   UNL     1      48.046   1.661   6.884  0.00  0.00    +0.000 N 
ATOM     28  O   UNL     1      46.919   2.869   5.329  0.00  0.00    +0.000 OA
ATOM     29  H   UNL     1      48.117   1.403   7.862  0.00  0.00    +0.000 HD
ATOM     30  H   UNL     1      48.550   1.144   6.178  0.00  0.00    +0.000 HD
ENDBRANCH  23  26
ENDBRANCH  18  20
ENDBRANCH   1  18
TORSDOF 6
ENDMDL
MODEL 5
REMARK VINA RESULT:    -6.950      2.615      7.710
REMARK INTER + INTRA:          -9.769
REMARK INTER:                  -9.426
REMARK INTRA:                  -0.343
REMARK UNBOUND:                -0.382
REMARK  Name = 
REMARK  6 active torsions:
REMARK  status: ('A' for Active; 'I' for Inactive)
REMARK    1  A    between atoms: C_2  and  C_3
REMARK    2  A    between atoms: C_6  and  C_7
REMARK    3  A    between atoms: C_11  and  C_12
REMARK    4  A    between atoms: C_12  and  N_13
REMARK    5  A    between atoms: N_13  and  C_14
REMARK    6  A    between atoms: C_17  and  C_18
REMARK                            x       y       z     vdW  Elec       q    Type
REMARK                         _______ _______ _______ _____ _____    ______ ____
ROOT
ATOM      1  C   UNL     1      46.041   7.773  12.639  0.00  0.00    +0.000 C 
ATOM      2  C   UNL     1      45.273   8.930  13.242  0.00  0.00    +0.000 C 
ATOM      3  C   UNL     1      46.103   9.177  12.030  0.00  0.00    +0.000 C 
ENDROOT
BRANCH   1   8
ATOM      4  C   UNL     1      45.104   4.936  10.160  0.00  0.00    +0.000 A 
ATOM      5  C   UNL     1      43.758   4.746  10.518  0.00  0.00    +0.000 A 
ATOM      6  C   UNL     1      43.146   5.536  11.483  0.00  0.00    +0.000 A 
ATOM      7  C   UNL     1      43.880   6.524  12.129  0.00  0.00    +0.000 A 
ATOM      8  C   UNL     1      45.252   6.704  11.883  0.00  0.00    +0.000 A 
ATOM      9  C   UNL     1      45.843   5.887  10.892  0.00  0.00    +0.000 A 
BRANCH   4  13
ATOM     10  C   UNL     1      46.834   2.769   7.033  0.00  0.00    +0.000 A 
ATOM     11  C   UNL     1      46.887   4.153   7.064  0.00  0.00    +0.000 A 
ATOM     12  N   UNL     1      46.316   4.893   8.054  0.00  0.00    +0.000 NA
ATOM     13  C   UNL     1      45.684   4.190   9.030  0.00  0.00    +0.000 A 
ATOM     14  C   UNL     1      45.604   2.794   8.954  0.00  0.00    +0.000 A 
ATOM     15  N   UNL     1      46.178   2.054   7.975  0.00  0.00    +0.000 NA
BRANCH  10  17
ATOM     16  N   UNL     1      48.065   1.452   5.174  0.00  0.00    +0.000 NA
ATOM     17  C   UNL     1      47.508   2.023   6.011  0.00  0.00    +0.000 C 
ENDBRANCH  10  17
ENDBRANCH   4  13
ENDBRANCH   1   8
BRANCH   1  18
ATOM     18  N   UNL     1      47.322   7.280  13.172  0.00  0.00    +0.000 N 
ATOM     19  H   UNL     1      48.107   7.924  13.130  0.00  0.00    +0.000 HD
BRANCH  18  20
ATOM     20  C   UNL     1      47.484   6.272  14.135  0.00  0.00    +0.000 A 
ATOM     21  C   UNL     1      48.209   6.425  15.315  0.00  0.00    +0.000 A 
ATOM     22  C   UNL     1      48.352   5.350  16.197  0.00  0.00    +0.000 A 
ATOM     23  C   UNL     1      47.724   4.153  15.885  0.00  0.00    +0.000 A 
ATOM     24  N   UNL     1      46.926   3.980  14.798  0.00  0.00    +0.000 NA
ATOM     25  C   UNL     1      46.820   5.048  13.973  0.00  0.00    +0.000 A 
BRANCH  23  26
ATOM     26  C   UNL     1      47.966   2.941  16.729  0.00  0.00    +0.000 C 
ATOM     27  N   UNL     1      47.049   2.732  17.725  0.00  0.00    +0.000 N 
ATOM     28  O   UNL     1      48.892   2.166  16.529  0.00  0.00    +0.000 OA
ATOM     29  H   UNL     1      46.259   3.362  17.808  0.00  0.00    +0.000 HD
ATOM     30  H   UNL     1      47.086   1.880  18.264  0.00  0.00    +0.000 HD
ENDBRANCH  23  26
ENDBRANCH  18  20
ENDBRANCH   1  18
TORSDOF 6
ENDMDL
MODEL 6
REMARK VINA RESULT:    -6.916      3.035      5.013
REMARK INTER + INTRA:          -9.724
REMARK INTER:                  -9.089
REMARK INTRA:                  -0.635
REMARK UNBOUND:                -0.382
REMARK  Name = 
REMARK  6 active torsions:
REMARK  status: ('A' for Active; 'I' for Inactive)
REMARK    1  A    between atoms: C_2  and  C_3
REMARK    2  A    between atoms: C_6  and  C_7
REMARK    3  A    between atoms: C_11  and  C_12
REMARK    4  A    between atoms: C_12  and  N_13
REMARK    5  A    between atoms: N_13  and  C_14
REMARK    6  A    between atoms: C_17  and  C_18
REMARK                            x       y       z     vdW  Elec       q    Type
REMARK                         _______ _______ _______ _____ _____    ______ ____
ROOT
ATOM      1  C   UNL     1      47.750   7.881  13.293  0.00  0.00    +0.000 C 
ATOM      2  C   UNL     1      48.650   7.734  12.084  0.00  0.00    +0.000 C 
ATOM      3  C   UNL     1      48.055   9.068  12.374  0.00  0.00    +0.000 C 
ENDROOT
BRANCH   1   8
ATOM      4  C   UNL     1      49.755   6.754  16.420  0.00  0.00    +0.000 A 
ATOM      5  C   UNL     1      49.579   7.888  17.234  0.00  0.00    +0.000 A 
ATOM      6  C   UNL     1      48.796   8.959  16.824  0.00  0.00    +0.000 A 
ATOM      7  C   UNL     1      48.189   8.928  15.573  0.00  0.00    +0.000 A 
ATOM      8  C   UNL     1      48.400   7.868  14.677  0.00  0.00    +0.000 A 
ATOM      9  C   UNL     1      49.198   6.790  15.127  0.00  0.00    +0.000 A 
BRANCH   4  13
ATOM     10  C   UNL     1      51.830   3.394  17.789  0.00  0.00    +0.000 A 
ATOM     11  C   UNL     1      50.479   3.332  17.488  0.00  0.00    +0.000 A 
ATOM     12  N   UNL     1      49.766   4.411  17.062  0.00  0.00    +0.000 NA
ATOM     13  C   UNL     1      50.462   5.571  16.941  0.00  0.00    +0.000 A 
ATOM     14  C   UNL     1      51.816   5.621  17.293  0.00  0.00    +0.000 A 
ATOM     15  N   UNL     1      52.531   4.548  17.711  0.00  0.00    +0.000 NA
BRANCH  10  17
ATOM     16  N   UNL     1      53.181   1.289  18.459  0.00  0.00    +0.000 NA
ATOM     17  C   UNL     1      52.561   2.221  18.168  0.00  0.00    +0.000 C 
ENDBRANCH  10  17
ENDBRANCH   4  13
ENDBRANCH   1   8
BRANCH   1  18
ATOM     18  N   UNL     1      46.337   7.468  13.311  0.00  0.00    +0.000 N 
ATOM     19  H   UNL     1      45.654   8.201  13.479  0.00  0.00    +0.000 HD
BRANCH  18  20
ATOM     20  C   UNL     1      45.796   6.344  12.668  0.00  0.00    +0.000 A 
ATOM     21  C   UNL     1      45.456   6.302  11.317  0.00  0.00    +0.000 A 
ATOM     22  C   UNL     1      44.882   5.151  10.772  0.00  0.00    +0.000 A 
ATOM     23  C   UNL     1      44.701   4.050  11.596  0.00  0.00    +0.000 A 
ATOM     24  N   UNL     1      45.105   4.004  12.894  0.00  0.00    +0.000 NA
ATOM     25  C   UNL     1      45.652   5.144  13.378  0.00  0.00    +0.000 A 
BRANCH  23  26
ATOM     26  C   UNL     1      43.965   2.850  11.088  0.00  0.00    +0.000 C 
ATOM     27  N   UNL     1      44.546   2.219  10.020  0.00  0.00    +0.000 N 
ATOM     28  O   UNL     1      42.937   2.433  11.606  0.00  0.00    +0.000 OA
ATOM     29  H   UNL     1      45.434   2.559   9.670  0.00  0.00    +0.000 HD
ATOM     30  H   UNL     1      44.165   1.343   9.693  0.00  0.00    +0.000 HD
ENDBRANCH  23  26
ENDBRANCH  18  20
ENDBRANCH   1  18
TORSDOF 6
ENDMDL
MODEL 7
REMARK VINA RESULT:    -6.167      4.166      8.549
REMARK INTER + INTRA:          -8.713
REMARK INTER:                  -7.798
REMARK INTRA:                  -0.914
REMARK UNBOUND:                -0.382
REMARK  Name = 
REMARK  6 active torsions:
REMARK  status: ('A' for Active; 'I' for Inactive)
REMARK    1  A    between atoms: C_2  and  C_3
REMARK    2  A    between atoms: C_6  and  C_7
REMARK    3  A    between atoms: C_11  and  C_12
REMARK    4  A    between atoms: C_12  and  N_13
REMARK    5  A    between atoms: N_13  and  C_14
REMARK    6  A    between atoms: C_17  and  C_18
REMARK                            x       y       z     vdW  Elec       q    Type
REMARK                         _______ _______ _______ _____ _____    ______ ____
ROOT
ATOM      1  C   UNL     1      50.653   8.526  12.081  0.00  0.00    +0.000 C 
ATOM      2  C   UNL     1      51.432   9.243  10.999  0.00  0.00    +0.000 C 
ATOM      3  C   UNL     1      51.288   7.763  10.915  0.00  0.00    +0.000 C 
ENDROOT
BRANCH   1   8
ATOM      4  C   UNL     1      46.861   7.696  12.036  0.00  0.00    +0.000 A 
ATOM      5  C   UNL     1      46.335   8.998  12.106  0.00  0.00    +0.000 A 
ATOM      6  C   UNL     1      47.161  10.114  12.110  0.00  0.00    +0.000 A 
ATOM      7  C   UNL     1      48.541   9.949  12.067  0.00  0.00    +0.000 A 
ATOM      8  C   UNL     1      49.132   8.675  12.089  0.00  0.00    +0.000 A 
ATOM      9  C   UNL     1      48.263   7.559  12.080  0.00  0.00    +0.000 A 
BRANCH   4  13
ATOM     10  C   UNL     1      44.385   4.349  11.669  0.00  0.00    +0.000 A 
ATOM     11  C   UNL     1      45.114   4.826  10.591  0.00  0.00    +0.000 A 
ATOM     12  N   UNL     1      45.913   5.926  10.668  0.00  0.00    +0.000 NA
ATOM     13  C   UNL     1      45.962   6.539  11.879  0.00  0.00    +0.000 A 
ATOM     14  C   UNL     1      45.182   6.066  12.941  0.00  0.00    +0.000 A 
ATOM     15  N   UNL     1      44.392   4.968  12.872  0.00  0.00    +0.000 NA
BRANCH  10  17
ATOM     16  N   UNL     1      42.957   2.195  11.503  0.00  0.00    +0.000 NA
ATOM     17  C   UNL     1      43.610   3.147  11.568  0.00  0.00    +0.000 C 
ENDBRANCH  10  17
ENDBRANCH   4  13
ENDBRANCH   1   8
BRANCH   1  18
ATOM     18  N   UNL     1      51.211   8.197  13.403  0.00  0.00    +0.000 N 
ATOM     19  H   UNL     1      52.209   8.346  13.524  0.00  0.00    +0.000 HD
BRANCH  18  20
ATOM     20  C   UNL     1      50.506   8.176  14.616  0.00  0.00    +0.000 A 
ATOM     21  C   UNL     1      49.981   7.024  15.198  0.00  0.00    +0.000 A 
ATOM     22  C   UNL     1      49.255   7.105  16.389  0.00  0.00    +0.000 A 
ATOM     23  C   UNL     1      49.108   8.347  16.989  0.00  0.00    +0.000 A 
ATOM     24  N   UNL     1      49.682   9.485  16.517  0.00  0.00    +0.000 NA
ATOM     25  C   UNL     1      50.373   9.357  15.360  0.00  0.00    +0.000 A 
BRANCH  23  26
ATOM     26  C   UNL     1      48.224   8.498  18.187  0.00  0.00    +0.000 C 
ATOM     27  N   UNL     1      47.409   7.429  18.448  0.00  0.00    +0.000 N 
ATOM     28  O   UNL     1      48.245   9.487  18.908  0.00  0.00    +0.000 OA
ATOM     29  H   UNL     1      47.476   6.603  17.864  0.00  0.00    +0.000 HD
ATOM     30  H   UNL     1      46.864   7.415  19.298  0.00  0.00    +0.000 HD
ENDBRANCH  23  26
ENDBRANCH  18  20
ENDBRANCH   1  18
TORSDOF 6
ENDMDL
