MODEL 1
REMARK VINA RESULT:    -7.036      0.000      0.000
REMARK INTER + INTRA:         -10.986
REMARK INTER:                  -9.505
REMARK INTRA:                  -1.482
REMARK UNBOUND:                -1.482
REMARK  Name = 
REMARK  7 active torsions:
REMARK  status: ('A' for Active; 'I' for Inactive)
REMARK    1  A    between atoms: C_1  and  C_2
REMARK    2  A    between atoms: C_2  and  N_3
REMARK    3  A    between atoms: C_2  and  C_16
REMARK    4  A    between atoms: C_4  and  C_6
REMARK    5  A    between atoms: C_19  and  C_20
REMARK    6  A    between atoms: C_20  and  N_21
REMARK    7  A    between atoms: C_22  and  C_24
REMARK                            x       y       z     vdW  Elec       q    Type
REMARK                         _______ _______ _______ _____ _____    ______ ____
ROOT
ATOM      1  C   UNL     1      47.382   3.344  17.653  0.00  0.00    +0.000 C 
ATOM      2  C   UNL     1      48.286   4.532  17.306  0.00  0.00    +0.000 C 
ENDROOT
BRANCH   2   3
ATOM      3  C   UNL     1      47.948   5.075  15.922  0.00  0.00    +0.000 A 
ATOM      4  C   UNL     1      48.547   6.246  15.440  0.00  0.00    +0.000 A 
ATOM      5  C   UNL     1      48.272   6.711  14.146  0.00  0.00    +0.000 A 
ATOM      6  C   UNL     1      47.385   6.020  13.308  0.00  0.00    +0.000 A 
ATOM      7  C   UNL     1      46.787   4.848  13.786  0.00  0.00    +0.000 A 
ATOM      8  C   UNL     1      47.060   4.386  15.077  0.00  0.00    +0.000 A 
BRANCH   6   9
ATOM      9  C   UNL     1      47.101   6.500  11.908  0.00  0.00    +0.000 C 
BRANCH   9  10
ATOM     10  N   UNL     1      45.958   5.823  11.337  0.00  0.00    +0.000 N 
ATOM     11  C   UNL     1      44.709   6.410  11.332  0.00  0.00    +0.000 C 
ATOM     12  O   UNL     1      44.509   7.547  11.747  0.00  0.00    +0.000 OA
ATOM     13  H   UNL     1      46.093   4.891  10.968  0.00  0.00    +0.000 HD
BRANCH  11  14
ATOM     14  C   UNL     1      43.616   5.531  10.736  0.00  0.00    +0.000 C 
ATOM     15  C   UNL     1      42.692   4.921  11.770  0.00  0.00    +0.000 C 
ATOM     16  C   UNL     1      43.411   3.647  12.157  0.00  0.00    +0.000 C 
ATOM     17  O   UNL     1      44.117   3.206  10.990  0.00  0.00    +0.000 OA
ATOM     18  C   UNL     1      44.207   4.302  10.067  0.00  0.00    +0.000 C 
ENDBRANCH  11  14
ENDBRANCH   9  10
ENDBRANCH   6   9
ENDBRANCH   2   3
BRANCH   2  19
ATOM     19  N   UNL     1      49.699   4.184  17.333  0.00  0.00    +0.000 N 
ATOM     20  C   UNL     1      50.512   4.337  18.423  0.00  0.00    +0.000 C 
ATOM     21  O   UNL     1      50.113   4.741  19.509  0.00  0.00    +0.000 OA
ATOM     22  H   UNL     1      50.142   4.151  16.420  0.00  0.00    +0.000 HD
BRANCH  20  23
ATOM     23  C   UNL     1      51.903   3.898  18.236  0.00  0.00    +0.000 A 
ATOM     24  C   UNL     1      52.946   4.783  18.465  0.00  0.00    +0.000 A 
ATOM     25  S   UNL     1      54.490   4.083  18.261  0.00  0.00    +0.000 S 
ATOM     26  C   UNL     1      53.813   2.589  17.810  0.00  0.00    +0.000 A 
ATOM     27  N   UNL     1      54.603   1.533  17.474  0.00  0.00    +0.000 NA
ATOM     28  C   UNL     1      53.956   0.473  17.119  0.00  0.00    +0.000 A 
ATOM     29  N   UNL     1      52.590   0.371  17.075  0.00  0.00    +0.000 N 
ATOM     30  C   UNL     1      51.753   1.396  17.443  0.00  0.00    +0.000 A 
ATOM     31  O   UNL     1      50.536   1.252  17.454  0.00  0.00    +0.000 OA
ATOM     32  C   UNL     1      52.431   2.618  17.832  0.00  0.00    +0.000 A 
ATOM     33  H   UNL     1      52.144  -0.491  16.799  0.00  0.00    +0.000 HD
ENDBRANCH  20  23
ENDBRANCH   2  19
TORSDOF 6
ENDMDL
MODEL 2
REMARK VINA RESULT:    -7.018      3.894      5.710
REMARK INTER + INTRA:         -10.961
REMARK INTER:                  -9.870
REMARK INTRA:                  -1.092
REMARK UNBOUND:                -1.482
REMARK  Name = 
REMARK  7 active torsions:
REMARK  status: ('A' for Active; 'I' for Inactive)
REMARK    1  A    between atoms: C_1  and  C_2
REMARK    2  A    between atoms: C_2  and  N_3
REMARK    3  A    between atoms: C_2  and  C_16
REMARK    4  A    between atoms: C_4  and  C_6
REMARK    5  A    between atoms: C_19  and  C_20
REMARK    6  A    between atoms: C_20  and  N_21
REMARK    7  A    between atoms: C_22  and  C_24
REMARK                            x       y       z     vdW  Elec       q    Type
REMARK                         _______ _______ _______ _____ _____    ______ ____
ROOT
ATOM      1  C   UNL     1      47.643   8.556  13.668  0.00  0.00    +0.000 C 
ATOM      2  C   UNL     1      48.000   7.067  13.695  0.00  0.00    +0.000 C 
ENDROOT
BRANCH   2   3
ATOM      3  C   UNL     1      47.049   6.272  12.806  0.00  0.00    +0.000 A 
ATOM      4  C   UNL     1      46.383   5.140  13.292  0.00  0.00    +0.000 A 
ATOM      5  C   UNL     1      45.470   4.445  12.486  0.00  0.00    +0.000 A 
ATOM      6  C   UNL     1      45.209   4.862  11.174  0.00  0.00    +0.000 A 
ATOM      7  C   UNL     1      45.871   5.996  10.686  0.00  0.00    +0.000 A 
ATOM      8  C   UNL     1      46.782   6.687  11.489  0.00  0.00    +0.000 A 
BRANCH   6   9
ATOM      9  C   UNL     1      44.212   4.135  10.307  0.00  0.00    +0.000 C 
BRANCH   9  10
ATOM     10  N   UNL     1      44.688   4.002   8.949  0.00  0.00    +0.000 N 
ATOM     11  C   UNL     1      45.245   2.821   8.501  0.00  0.00    +0.000 C 
ATOM     12  O   UNL     1      45.312   1.813   9.197  0.00  0.00    +0.000 OA
ATOM     13  H   UNL     1      44.629   4.808   8.343  0.00  0.00    +0.000 HD
BRANCH  11  14
ATOM     14  C   UNL     1      45.737   2.878   7.059  0.00  0.00    +0.000 C 
ATOM     15  C   UNL     1      46.417   1.607   6.596  0.00  0.00    +0.000 C 
ATOM     16  C   UNL     1      47.854   1.815   7.023  0.00  0.00    +0.000 C 
ATOM     17  O   UNL     1      48.101   3.225   6.948  0.00  0.00    +0.000 OA
ATOM     18  C   UNL     1      46.841   3.910   6.899  0.00  0.00    +0.000 C 
ENDBRANCH  11  14
ENDBRANCH   9  10
ENDBRANCH   6   9
ENDBRANCH   2   3
BRANCH   2  19
ATOM     19  N   UNL     1      47.954   6.506  15.037  0.00  0.00    +0.000 N 
ATOM     20  C   UNL     1      49.048   6.325  15.838  0.00  0.00    +0.000 C 
ATOM     21  O   UNL     1      50.181   6.667  15.518  0.00  0.00    +0.000 OA
ATOM     22  H   UNL     1      47.137   5.934  15.227  0.00  0.00    +0.000 HD
BRANCH  20  23
ATOM     23  C   UNL     1      48.769   5.764  17.168  0.00  0.00    +0.000 A 
ATOM     24  C   UNL     1      48.940   4.407  17.399  0.00  0.00    +0.000 A 
ATOM     25  S   UNL     1      48.631   3.946  19.014  0.00  0.00    +0.000 S 
ATOM     26  C   UNL     1      48.208   5.537  19.444  0.00  0.00    +0.000 A 
ATOM     27  N   UNL     1      47.812   5.840  20.710  0.00  0.00    +0.000 NA
ATOM     28  C   UNL     1      47.487   7.077  20.887  0.00  0.00    +0.000 A 
ATOM     29  N   UNL     1      47.529   8.042  19.914  0.00  0.00    +0.000 N 
ATOM     30  C   UNL     1      47.961   7.791  18.633  0.00  0.00    +0.000 A 
ATOM     31  O   UNL     1      48.048   8.690  17.804  0.00  0.00    +0.000 OA
ATOM     32  C   UNL     1      48.319   6.410  18.377  0.00  0.00    +0.000 A 
ATOM     33  H   UNL     1      47.273   8.996  20.119  0.00  0.00    +0.000 HD
ENDBRANCH  20  23
ENDBRANCH   2  19
TORSDOF 6
ENDMDL
MODEL 3
REMARK VINA RESULT:    -6.795      3.598      8.667
REMARK INTER + INTRA:         -10.659
REMARK INTER:                  -9.285
REMARK INTRA:                  -1.375
REMARK UNBOUND:                -1.482
REMARK  Name = 
REMARK  7 active torsions:
REMARK  status: ('A' for Active; 'I' for Inactive)
REMARK    1  A    between atoms: C_1  and  C_2
REMARK    2  A    between atoms: C_2  and  N_3
REMARK    3  A    between atoms: C_2  and  C_16
REMARK    4  A    between atoms: C_4  and  C_6
REMARK    5  A    between atoms: C_19  and  C_20
REMARK    6  A    between atoms: C_20  and  N_21
REMARK    7  A    between atoms: C_22  and  C_24
REMARK                            x       y       z     vdW  Elec       q    Type
REMARK                         _______ _______ _______ _____ _____    ______ ____
ROOT
ATOM      1  C   UNL     1      49.433   8.562  11.323  0.00  0.00    +0.000 C 
ATOM      2  C   UNL     1      48.177   8.222  12.132  0.00  0.00    +0.000 C 
ENDROOT
BRANCH   2   3
ATOM      3  C   UNL     1      48.544   7.882  13.572  0.00  0.00    +0.000 A 
ATOM      4  C   UNL     1      48.199   6.646  14.133  0.00  0.00    +0.000 A 
ATOM      5  C   UNL     1      48.585   6.320  15.440  0.00  0.00    +0.000 A 
ATOM      6  C   UNL     1      49.320   7.225  16.219  0.00  0.00    +0.000 A 
ATOM      7  C   UNL     1      49.669   8.460  15.660  0.00  0.00    +0.000 A 
ATOM      8  C   UNL     1      49.282   8.786  14.358  0.00  0.00    +0.000 A 
BRANCH   6   9
ATOM      9  C   UNL     1      49.759   6.874  17.618  0.00  0.00    +0.000 C 
BRANCH   9  10
ATOM     10  N   UNL     1      49.426   5.508  17.952  0.00  0.00    +0.000 N 
ATOM     11  C   UNL     1      50.272   4.467  17.627  0.00  0.00    +0.000 C 
ATOM     12  O   UNL     1      51.367   4.641  17.101  0.00  0.00    +0.000 OA
ATOM     13  H   UNL     1      48.540   5.331  18.404  0.00  0.00    +0.000 HD
BRANCH  11  14
ATOM     14  C   UNL     1      49.736   3.092  18.010  0.00  0.00    +0.000 C 
ATOM     15  C   UNL     1      49.556   2.158  16.832  0.00  0.00    +0.000 C 
ATOM     16  C   UNL     1      48.162   2.490  16.345  0.00  0.00    +0.000 C 
ATOM     17  O   UNL     1      47.409   2.880  17.500  0.00  0.00    +0.000 OA
ATOM     18  C   UNL     1      48.324   3.191  18.562  0.00  0.00    +0.000 C 
ENDBRANCH  11  14
ENDBRANCH   9  10
ENDBRANCH   6   9
ENDBRANCH   2   3
BRANCH   2  19
ATOM     19  N   UNL     1      47.436   7.103  11.568  0.00  0.00    +0.000 N 
ATOM     20  C   UNL     1      46.076   7.068  11.428  0.00  0.00    +0.000 C 
ATOM     21  O   UNL     1      45.344   8.007  11.723  0.00  0.00    +0.000 OA
ATOM     22  H   UNL     1      47.925   6.214  11.603  0.00  0.00    +0.000 HD
BRANCH  20  23
ATOM     23  C   UNL     1      45.538   5.847  10.811  0.00  0.00    +0.000 A 
ATOM     24  C   UNL     1      45.751   5.599   9.463  0.00  0.00    +0.000 A 
ATOM     25  S   UNL     1      45.110   4.107   8.936  0.00  0.00    +0.000 S 
ATOM     26  C   UNL     1      44.484   3.767  10.480  0.00  0.00    +0.000 A 
ATOM     27  N   UNL     1      43.783   2.625  10.718  0.00  0.00    +0.000 NA
ATOM     28  C   UNL     1      43.336   2.514  11.924  0.00  0.00    +0.000 A 
ATOM     29  N   UNL     1      43.531   3.439  12.918  0.00  0.00    +0.000 N 
ATOM     30  C   UNL     1      44.265   4.586  12.735  0.00  0.00    +0.000 A 
ATOM     31  O   UNL     1      44.476   5.361  13.661  0.00  0.00    +0.000 OA
ATOM     32  C   UNL     1      44.774   4.768  11.389  0.00  0.00    +0.000 A 
ATOM     33  H   UNL     1      43.164   3.287  13.845  0.00  0.00    +0.000 HD
ENDBRANCH  20  23
ENDBRANCH   2  19
TORSDOF 6
ENDMDL
MODEL 4
REMARK VINA RESULT:    -6.642      3.645      9.044
REMARK INTER + INTRA:         -10.454
REMARK INTER:                  -9.034
REMARK INTRA:                  -1.420
REMARK UNBOUND:                -1.482
REMARK  Name = 
REMARK  7 active torsions:
REMARK  status: ('A' for Active; 'I' for Inactive)
REMARK    1  A    between atoms: C_1  and  C_2
REMARK    2  A    between atoms: C_2  and  N_3
REMARK    3  A    between atoms: C_2  and  C_16
REMARK    4  A    between atoms: C_4  and  C_6
REMARK    5  A    between atoms: C_19  and  C_20
REMARK    6  A    between atoms: C_20  and  N_21
REMARK    7  A    between atoms: C_22  and  C_24
REMARK                            x       y       z     vdW  Elec       q    Type
REMARK                         _______ _______ _______ _____ _____    ______ ____
ROOT
ATOM      1  C   UNL     1      49.021   7.769  11.292  0.00  0.00    +0.000 C 
ATOM      2  C   UNL     1      47.758   7.751  12.159  0.00  0.00    +0.000 C 
ENDROOT
BRANCH   2   3
ATOM      3  C   UNL     1      48.122   7.841  13.637  0.00  0.00    +0.000 A 
ATOM      4  C   UNL     1      48.131   9.073  14.305  0.00  0.00    +0.000 A 
ATOM      5  C   UNL     1      48.416   9.141  15.675  0.00  0.00    +0.000 A 
ATOM      6  C   UNL     1      48.706   7.982  16.408  0.00  0.00    +0.000 A 
ATOM      7  C   UNL     1      48.694   6.750  15.744  0.00  0.00    +0.000 A 
ATOM      8  C   UNL     1      48.413   6.681  14.377  0.00  0.00    +0.000 A 
BRANCH   6   9
ATOM      9  C   UNL     1      48.990   8.044  17.887  0.00  0.00    +0.000 C 
BRANCH   9  10
ATOM     10  N   UNL     1      49.170   6.724  18.448  0.00  0.00    +0.000 N 
ATOM     11  C   UNL     1      50.428   6.175  18.595  0.00  0.00    +0.000 C 
ATOM     12  O   UNL     1      51.454   6.789  18.322  0.00  0.00    +0.000 OA
ATOM     13  H   UNL     1      48.344   6.199  18.703  0.00  0.00    +0.000 HD
BRANCH  11  14
ATOM     14  C   UNL     1      50.423   4.758  19.156  0.00  0.00    +0.000 C 
ATOM     15  C   UNL     1      50.787   3.698  18.138  0.00  0.00    +0.000 C 
ATOM     16  C   UNL     1      49.457   3.375  17.493  0.00  0.00    +0.000 C 
ATOM     17  O   UNL     1      48.458   3.559  18.504  0.00  0.00    +0.000 OA
ATOM     18  C   UNL     1      49.021   4.340  19.569  0.00  0.00    +0.000 C 
ENDBRANCH  11  14
ENDBRANCH   9  10
ENDBRANCH   6   9
ENDBRANCH   2   3
BRANCH   2  19
ATOM     19  N   UNL     1      46.957   6.554  11.953  0.00  0.00    +0.000 N 
ATOM     20  C   UNL     1      45.592   6.544  11.852  0.00  0.00    +0.000 C 
ATOM     21  O   UNL     1      44.908   7.561  11.878  0.00  0.00    +0.000 OA
ATOM     22  H   UNL     1      47.411   5.690  12.232  0.00  0.00    +0.000 HD
BRANCH  20  23
ATOM     23  C   UNL     1      44.988   5.224  11.621  0.00  0.00    +0.000 A 
ATOM     24  C   UNL     1      44.296   4.589  12.641  0.00  0.00    +0.000 A 
ATOM     25  S   UNL     1      43.610   3.097  12.173  0.00  0.00    +0.000 S 
ATOM     26  C   UNL     1      44.259   3.228  10.606  0.00  0.00    +0.000 A 
ATOM     27  N   UNL     1      44.061   2.250   9.681  0.00  0.00    +0.000 NA
ATOM     28  C   UNL     1      44.640   2.463   8.546  0.00  0.00    +0.000 A 
ATOM     29  N   UNL     1      45.393   3.569   8.250  0.00  0.00    +0.000 N 
ATOM     30  C   UNL     1      45.587   4.600   9.138  0.00  0.00    +0.000 A 
ATOM     31  O   UNL     1      46.212   5.605   8.820  0.00  0.00    +0.000 OA
ATOM     32  C   UNL     1      44.973   4.400  10.436  0.00  0.00    +0.000 A 
ATOM     33  H   UNL     1      45.811   3.682   7.338  0.00  0.00    +0.000 HD
ENDBRANCH  20  23
ENDBRANCH   2  19
TORSDOF 6
ENDMDL
MODEL 5
REMARK VINA RESULT:    -6.536      4.117      5.312
REMARK INTER + INTRA:         -10.310
REMARK INTER:                  -9.207
REMARK INTRA:                  -1.103
REMARK UNBOUND:                -1.482
REMARK  Name = 
REMARK  7 active torsions:
REMARK  status: ('A' for Active; 'I' for Inactive)
REMARK    1  A    between atoms: C_1  and  C_2
REMARK    2  A    between atoms: C_2  and  N_3
REMARK    3  A    between atoms: C_2  and  C_16
REMARK    4  A    between atoms: C_4  and  C_6
REMARK    5  A    between atoms: C_19  and  C_20
REMARK    6  A    between atoms: C_20  and  N_21
REMARK    7  A    between atoms: C_22  and  C_24
REMARK                            x       y       z     vdW  Elec       q    Type
REMARK                         _______ _______ _______ _____ _____    ______ ____
ROOT
ATOM      1  C   UNL     1      48.918   8.568  12.591  0.00  0.00    +0.000 C 
ATOM      2  C   UNL     1      48.617   7.301  13.397  0.00  0.00    +0.000 C 
ENDROOT
BRANCH   2   3
ATOM      3  C   UNL     1      47.331   6.647  12.903  0.00  0.00    +0.000 A 
ATOM      4  C   UNL     1      46.679   5.668  13.665  0.00  0.00    +0.000 A 
ATOM      5  C   UNL     1      45.470   5.109  13.229  0.00  0.00    +0.000 A 
ATOM      6  C   UNL     1      44.888   5.510  12.018  0.00  0.00    +0.000 A 
ATOM      7  C   UNL     1      45.536   6.489  11.256  0.00  0.00    +0.000 A 
ATOM      8  C   UNL     1      46.742   7.045  11.689  0.00  0.00    +0.000 A 
BRANCH   6   9
ATOM      9  C   UNL     1      43.577   4.931  11.553  0.00  0.00    +0.000 C 
BRANCH   9  10
ATOM     10  N   UNL     1      43.712   4.270  10.274  0.00  0.00    +0.000 N 
ATOM     11  C   UNL     1      44.407   3.083  10.155  0.00  0.00    +0.000 C 
ATOM     12  O   UNL     1      44.888   2.496  11.118  0.00  0.00    +0.000 OA
ATOM     13  H   UNL     1      43.309   4.717   9.463  0.00  0.00    +0.000 HD
BRANCH  11  14
ATOM     14  C   UNL     1      44.490   2.557   8.726  0.00  0.00    +0.000 C 
ATOM     15  C   UNL     1      45.784   1.834   8.417  0.00  0.00    +0.000 C 
ATOM     16  C   UNL     1      46.706   2.954   7.987  0.00  0.00    +0.000 C 
ATOM     17  O   UNL     1      45.880   3.942   7.357  0.00  0.00    +0.000 OA
ATOM     18  C   UNL     1      44.513   3.700   7.725  0.00  0.00    +0.000 C 
ENDBRANCH  11  14
ENDBRANCH   9  10
ENDBRANCH   6   9
ENDBRANCH   2   3
BRANCH   2  19
ATOM     19  N   UNL     1      48.482   7.564  14.822  0.00  0.00    +0.000 N 
ATOM     20  C   UNL     1      49.409   7.210  15.765  0.00  0.00    +0.000 C 
ATOM     21  O   UNL     1      50.477   6.674  15.491  0.00  0.00    +0.000 OA
ATOM     22  H   UNL     1      47.527   7.706  15.136  0.00  0.00    +0.000 HD
BRANCH  20  23
ATOM     23  C   UNL     1      49.081   7.595  17.145  0.00  0.00    +0.000 A 
ATOM     24  C   UNL     1      49.445   8.846  17.621  0.00  0.00    +0.000 A 
ATOM     25  S   UNL     1      48.927   9.143  19.221  0.00  0.00    +0.000 S 
ATOM     26  C   UNL     1      48.244   7.590  19.346  0.00  0.00    +0.000 A 
ATOM     27  N   UNL     1      47.642   7.178  20.495  0.00  0.00    +0.000 NA
ATOM     28  C   UNL     1      47.199   5.966  20.462  0.00  0.00    +0.000 A 
ATOM     29  N   UNL     1      47.298   5.128  19.381  0.00  0.00    +0.000 N 
ATOM     30  C   UNL     1      47.862   5.513  18.188  0.00  0.00    +0.000 A 
ATOM     31  O   UNL     1      47.877   4.762  17.219  0.00  0.00    +0.000 OA
ATOM     32  C   UNL     1      48.393   6.863  18.180  0.00  0.00    +0.000 A 
ATOM     33  H   UNL     1      46.921   4.193  19.414  0.00  0.00    +0.000 HD
ENDBRANCH  20  23
ENDBRANCH   2  19
TORSDOF 6
ENDMDL
MODEL 6
REMARK VINA RESULT:    -6.363      1.387      2.330
REMARK INTER + INTRA:         -10.076
REMARK INTER:                  -9.219
REMARK INTRA:                  -0.857
REMARK UNBOUND:                -1.482
REMARK  Name = 
REMARK  7 active torsions:
REMARK  status: ('A' for Active; 'I' for Inactive)
REMARK    1  A    between atoms: C_1  and  C_2
REMARK    2  A    between atoms: C_2  and  N_3
REMARK    3  A    between atoms: C_2  and  C_16
REMARK    4  A    between atoms: C_4  and  C_6
REMARK    5  A    between atoms: C_19  and  C_20
REMARK    6  A    between atoms: C_20  and  N_21
REMARK    7  A    between atoms: C_22  and  C_24
REMARK                            x       y       z     vdW  Elec       q    Type
REMARK                         _______ _______ _______ _____ _____    ______ ____
ROOT
ATOM      1  C   UNL     1      47.143   2.701  17.886  0.00  0.00    +0.000 C 
ATOM      2  C   UNL     1      48.093   3.884  17.675  0.00  0.00    +0.000 C 
ENDROOT
BRANCH   2   3
ATOM      3  C   UNL     1      47.888   4.495  16.294  0.00  0.00    +0.000 A 
ATOM      4  C   UNL     1      47.079   3.866  15.339  0.00  0.00    +0.000 A 
ATOM      5  C   UNL     1      46.852   4.461  14.090  0.00  0.00    +0.000 A 
ATOM      6  C   UNL     1      47.435   5.693  13.764  0.00  0.00    +0.000 A 
ATOM      7  C   UNL     1      48.242   6.325  14.717  0.00  0.00    +0.000 A 
ATOM      8  C   UNL     1      48.469   5.732  15.962  0.00  0.00    +0.000 A 
BRANCH   6   9
ATOM      9  C   UNL     1      47.178   6.350  12.432  0.00  0.00    +0.000 C 
BRANCH   9  10
ATOM     10  N   UNL     1      46.169   5.642  11.676  0.00  0.00    +0.000 N 
ATOM     11  C   UNL     1      44.945   6.220  11.404  0.00  0.00    +0.000 C 
ATOM     12  O   UNL     1      44.668   7.370  11.727  0.00  0.00    +0.000 OA
ATOM     13  H   UNL     1      46.373   4.698  11.378  0.00  0.00    +0.000 HD
BRANCH  11  14
ATOM     14  C   UNL     1      43.989   5.310  10.642  0.00  0.00    +0.000 C 
ATOM     15  C   UNL     1      43.026   4.554  11.532  0.00  0.00    +0.000 C 
ATOM     16  C   UNL     1      43.808   3.311  11.899  0.00  0.00    +0.000 C 
ATOM     17  O   UNL     1      44.654   3.016  10.781  0.00  0.00    +0.000 OA
ATOM     18  C   UNL     1      44.740   4.185   9.950  0.00  0.00    +0.000 C 
ENDBRANCH  11  14
ENDBRANCH   9  10
ENDBRANCH   6   9
ENDBRANCH   2   3
BRANCH   2  19
ATOM     19  N   UNL     1      49.493   3.507  17.810  0.00  0.00    +0.000 N 
ATOM     20  C   UNL     1      50.090   2.491  17.115  0.00  0.00    +0.000 C 
ATOM     21  O   UNL     1      49.510   1.823  16.266  0.00  0.00    +0.000 OA
ATOM     22  H   UNL     1      49.924   3.791  18.684  0.00  0.00    +0.000 HD
BRANCH  20  23
ATOM     23  C   UNL     1      51.522   2.298  17.389  0.00  0.00    +0.000 A 
ATOM     24  C   UNL     1      52.039   1.017  17.510  0.00  0.00    +0.000 A 
ATOM     25  S   UNL     1      53.727   0.985  17.763  0.00  0.00    +0.000 S 
ATOM     26  C   UNL     1      53.813   2.684  17.770  0.00  0.00    +0.000 A 
ATOM     27  N   UNL     1      54.997   3.326  17.968  0.00  0.00    +0.000 NA
ATOM     28  C   UNL     1      54.910   4.615  17.984  0.00  0.00    +0.000 A 
ATOM     29  N   UNL     1      53.747   5.320  17.815  0.00  0.00    +0.000 N 
ATOM     30  C   UNL     1      52.536   4.716  17.574  0.00  0.00    +0.000 A 
ATOM     31  O   UNL     1      51.526   5.378  17.363  0.00  0.00    +0.000 OA
ATOM     32  C   UNL     1      52.577   3.267  17.565  0.00  0.00    +0.000 A 
ATOM     33  H   UNL     1      53.747   6.329  17.828  0.00  0.00    +0.000 HD
ENDBRANCH  20  23
ENDBRANCH   2  19
TORSDOF 6
ENDMDL
MODEL 7
REMARK VINA RESULT:    -6.300      3.055      9.726
REMARK INTER + INTRA:          -9.992
REMARK INTER:                  -8.901
REMARK INTRA:                  -1.091
REMARK UNBOUND:                -1.482
REMARK  Name = 
REMARK  7 active torsions:
REMARK  status: ('A' for Active; 'I' for Inactive)
REMARK    1  A    between atoms: C_1  and  C_2
REMARK    2  A    between atoms: C_2  and  N_3
REMARK    3  A    between atoms: C_2  and  C_16
REMARK    4  A    between atoms: C_4  and  C_6
REMARK    5  A    between atoms: C_19  and  C_20
REMARK    6  A    between atoms: C_20  and  N_21
REMARK    7  A    between atoms: C_22  and  C_24
REMARK                            x       y       z     vdW  Elec       q    Type
REMARK                         _______ _______ _______ _____ _____    ______ ____
ROOT
ATOM      1  C   UNL     1      48.456   7.123  13.412  0.00  0.00    +0.000 C 
ATOM      2  C   UNL     1      47.381   6.395  14.224  0.00  0.00    +0.000 C 
ENDROOT
BRANCH   2   3
ATOM      3  C   UNL     1      48.011   5.645  15.393  0.00  0.00    +0.000 A 
ATOM      4  C   UNL     1      47.502   4.409  15.816  0.00  0.00    +0.000 A 
ATOM      5  C   UNL     1      48.118   3.700  16.857  0.00  0.00    +0.000 A 
ATOM      6  C   UNL     1      49.252   4.213  17.503  0.00  0.00    +0.000 A 
ATOM      7  C   UNL     1      49.764   5.445  17.080  0.00  0.00    +0.000 A 
ATOM      8  C   UNL     1      49.148   6.153  16.044  0.00  0.00    +0.000 A 
BRANCH   6   9
ATOM      9  C   UNL     1      49.934   3.447  18.607  0.00  0.00    +0.000 C 
BRANCH   9  10
ATOM     10  N   UNL     1      51.332   3.224  18.313  0.00  0.00    +0.000 N 
ATOM     11  C   UNL     1      51.759   2.053  17.721  0.00  0.00    +0.000 C 
ATOM     12  O   UNL     1      50.985   1.172  17.359  0.00  0.00    +0.000 OA
ATOM     13  H   UNL     1      51.994   3.939  18.580  0.00  0.00    +0.000 HD
BRANCH  11  14
ATOM     14  C   UNL     1      53.269   1.971  17.532  0.00  0.00    +0.000 C 
ATOM     15  C   UNL     1      53.759   0.598  17.122  0.00  0.00    +0.000 C 
ATOM     16  C   UNL     1      53.955  -0.104  18.448  0.00  0.00    +0.000 C 
ATOM     17  O   UNL     1      54.334   0.907  19.391  0.00  0.00    +0.000 OA
ATOM     18  C   UNL     1      53.997   2.192  18.847  0.00  0.00    +0.000 C 
ENDBRANCH  11  14
ENDBRANCH   9  10
ENDBRANCH   6   9
ENDBRANCH   2   3
BRANCH   2  19
ATOM     19  N   UNL     1      46.621   5.447  13.423  0.00  0.00    +0.000 N 
ATOM     20  C   UNL     1      45.408   5.716  12.850  0.00  0.00    +0.000 C 
ATOM     21  O   UNL     1      44.859   6.810  12.918  0.00  0.00    +0.000 OA
ATOM     22  H   UNL     1      46.853   4.473  13.590  0.00  0.00    +0.000 HD
BRANCH  20  23
ATOM     23  C   UNL     1      44.828   4.620  12.061  0.00  0.00    +0.000 A 
ATOM     24  C   UNL     1      44.033   3.664  12.678  0.00  0.00    +0.000 A 
ATOM     25  S   UNL     1      43.396   2.507  11.596  0.00  0.00    +0.000 S 
ATOM     26  C   UNL     1      44.204   3.215  10.276  0.00  0.00    +0.000 A 
ATOM     27  N   UNL     1      44.101   2.688   9.026  0.00  0.00    +0.000 NA
ATOM     28  C   UNL     1      44.794   3.305   8.128  0.00  0.00    +0.000 A 
ATOM     29  N   UNL     1      45.576   4.406   8.365  0.00  0.00    +0.000 N 
ATOM     30  C   UNL     1      45.679   4.995   9.602  0.00  0.00    +0.000 A 
ATOM     31  O   UNL     1      46.335   6.017   9.767  0.00  0.00    +0.000 OA
ATOM     32  C   UNL     1      44.933   4.328  10.652  0.00  0.00    +0.000 A 
ATOM     33  H   UNL     1      46.085   4.850   7.615  0.00  0.00    +0.000 HD
ENDBRANCH  20  23
ENDBRANCH   2  19
TORSDOF 6
ENDMDL
MODEL 8
REMARK VINA RESULT:    -6.267      3.743      5.349
REMARK INTER + INTRA:          -9.946
REMARK INTER:                  -8.737
REMARK INTRA:                  -1.210
REMARK UNBOUND:                -1.482
REMARK  Name = 
REMARK  7 active torsions:
REMARK  status: ('A' for Active; 'I' for Inactive)
REMARK    1  A    between atoms: C_1  and  C_2
REMARK    2  A    between atoms: C_2  and  N_3
REMARK    3  A    between atoms: C_2  and  C_16
REMARK    4  A    between atoms: C_4  and  C_6
REMARK    5  A    between atoms: C_19  and  C_20
REMARK    6  A    between atoms: C_20  and  N_21
REMARK    7  A    between atoms: C_22  and  C_24
REMARK                            x       y       z     vdW  Elec       q    Type
REMARK                         _______ _______ _______ _____ _____    ______ ____
ROOT
ATOM      1  C   UNL     1      50.545   8.746  14.080  0.00  0.00    +0.000 C 
ATOM      2  C   UNL     1      49.682   7.504  14.321  0.00  0.00    +0.000 C 
ENDROOT
BRANCH   2   3
ATOM      3  C   UNL     1      48.375   7.601  13.541  0.00  0.00    +0.000 A 
ATOM      4  C   UNL     1      48.106   6.738  12.471  0.00  0.00    +0.000 A 
ATOM      5  C   UNL     1      46.881   6.798  11.793  0.00  0.00    +0.000 A 
ATOM      6  C   UNL     1      45.900   7.728  12.163  0.00  0.00    +0.000 A 
ATOM      7  C   UNL     1      46.164   8.591  13.234  0.00  0.00    +0.000 A 
ATOM      8  C   UNL     1      47.387   8.532  13.909  0.00  0.00    +0.000 A 
BRANCH   6   9
ATOM      9  C   UNL     1      44.571   7.786  11.455  0.00  0.00    +0.000 C 
BRANCH   9  10
ATOM     10  N   UNL     1      44.113   6.467  11.079  0.00  0.00    +0.000 N 
ATOM     11  C   UNL     1      43.485   5.643  11.991  0.00  0.00    +0.000 C 
ATOM     12  O   UNL     1      43.226   5.997  13.137  0.00  0.00    +0.000 OA
ATOM     13  H   UNL     1      44.292   6.152  10.136  0.00  0.00    +0.000 HD
BRANCH  11  14
ATOM     14  C   UNL     1      43.116   4.273  11.434  0.00  0.00    +0.000 C 
ATOM     15  C   UNL     1      43.614   3.117  12.278  0.00  0.00    +0.000 C 
ATOM     16  C   UNL     1      45.010   2.884  11.744  0.00  0.00    +0.000 C 
ATOM     17  O   UNL     1      44.979   3.230  10.354  0.00  0.00    +0.000 OA
ATOM     18  C   UNL     1      43.806   4.020  10.104  0.00  0.00    +0.000 C 
ENDBRANCH  11  14
ENDBRANCH   9  10
ENDBRANCH   6   9
ENDBRANCH   2   3
BRANCH   2  19
ATOM     19  N   UNL     1      49.367   7.307  15.728  0.00  0.00    +0.000 N 
ATOM     20  C   UNL     1      48.743   6.199  16.233  0.00  0.00    +0.000 C 
ATOM     21  O   UNL     1      48.429   5.232  15.547  0.00  0.00    +0.000 OA
ATOM     22  H   UNL     1      49.310   8.163  16.271  0.00  0.00    +0.000 HD
BRANCH  20  23
ATOM     23  C   UNL     1      48.544   6.198  17.689  0.00  0.00    +0.000 A 
ATOM     24  C   UNL     1      48.736   5.032  18.415  0.00  0.00    +0.000 A 
ATOM     25  S   UNL     1      48.523   5.234  20.097  0.00  0.00    +0.000 S 
ATOM     26  C   UNL     1      48.117   6.874  19.904  0.00  0.00    +0.000 A 
ATOM     27  N   UNL     1      47.792   7.648  20.976  0.00  0.00    +0.000 NA
ATOM     28  C   UNL     1      47.471   8.863  20.680  0.00  0.00    +0.000 A 
ATOM     29  N   UNL     1      47.452   9.378  19.410  0.00  0.00    +0.000 N 
ATOM     30  C   UNL     1      47.810   8.647  18.303  0.00  0.00    +0.000 A 
ATOM     31  O   UNL     1      47.844   9.155  17.188  0.00  0.00    +0.000 OA
ATOM     32  C   UNL     1      48.161   7.267  18.579  0.00  0.00    +0.000 A 
ATOM     33  H   UNL     1      47.202  10.342  19.245  0.00  0.00    +0.000 HD
ENDBRANCH  20  23
ENDBRANCH   2  19
TORSDOF 6
ENDMDL
MODEL 9
REMARK VINA RESULT:    -6.222      3.971      9.248
REMARK INTER + INTRA:          -9.886
REMARK INTER:                  -8.609
REMARK INTRA:                  -1.277
REMARK UNBOUND:                -1.482
REMARK  Name = 
REMARK  7 active torsions:
REMARK  status: ('A' for Active; 'I' for Inactive)
REMARK    1  A    between atoms: C_1  and  C_2
REMARK    2  A    between atoms: C_2  and  N_3
REMARK    3  A    between atoms: C_2  and  C_16
REMARK    4  A    between atoms: C_4  and  C_6
REMARK    5  A    between atoms: C_19  and  C_20
REMARK    6  A    between atoms: C_20  and  N_21
REMARK    7  A    between atoms: C_22  and  C_24
REMARK                            x       y       z     vdW  Elec       q    Type
REMARK                         _______ _______ _______ _____ _____    ______ ____
ROOT
ATOM      1  C   UNL     1      48.875   7.933  11.439  0.00  0.00    +0.000 C 
ATOM      2  C   UNL     1      47.969   7.552  12.614  0.00  0.00    +0.000 C 
ENDROOT
BRANCH   2   3
ATOM      3  C   UNL     1      48.804   7.228  13.849  0.00  0.00    +0.000 A 
ATOM      4  C   UNL     1      50.101   7.738  13.998  0.00  0.00    +0.000 A 
ATOM      5  C   UNL     1      50.842   7.479  15.159  0.00  0.00    +0.000 A 
ATOM      6  C   UNL     1      50.308   6.698  16.193  0.00  0.00    +0.000 A 
ATOM      7  C   UNL     1      49.012   6.190  16.049  0.00  0.00    +0.000 A 
ATOM      8  C   UNL     1      48.273   6.447  14.890  0.00  0.00    +0.000 A 
BRANCH   6   9
ATOM      9  C   UNL     1      51.089   6.434  17.455  0.00  0.00    +0.000 C 
BRANCH   9  10
ATOM     10  N   UNL     1      50.357   6.850  18.630  0.00  0.00    +0.000 N 
ATOM     11  C   UNL     1      49.826   5.924  19.505  0.00  0.00    +0.000 C 
ATOM     12  O   UNL     1      49.994   4.715  19.375  0.00  0.00    +0.000 OA
ATOM     13  H   UNL     1      50.217   7.840  18.778  0.00  0.00    +0.000 HD
BRANCH  11  14
ATOM     14  C   UNL     1      49.044   6.541  20.658  0.00  0.00    +0.000 C 
ATOM     15  C   UNL     1      47.560   6.675  20.386  0.00  0.00    +0.000 C 
ATOM     16  C   UNL     1      47.463   8.016  19.692  0.00  0.00    +0.000 C 
ATOM     17  O   UNL     1      48.508   8.833  20.233  0.00  0.00    +0.000 OA
ATOM     18  C   UNL     1      49.461   7.983  20.891  0.00  0.00    +0.000 C 
ENDBRANCH  11  14
ENDBRANCH   9  10
ENDBRANCH   6   9
ENDBRANCH   2   3
BRANCH   2  19
ATOM     19  N   UNL     1      47.121   6.408  12.317  0.00  0.00    +0.000 N 
ATOM     20  C   UNL     1      45.757   6.461  12.218  0.00  0.00    +0.000 C 
ATOM     21  O   UNL     1      45.114   7.500  12.324  0.00  0.00    +0.000 OA
ATOM     22  H   UNL     1      47.539   5.507  12.528  0.00  0.00    +0.000 HD
BRANCH  20  23
ATOM     23  C   UNL     1      45.101   5.189  11.886  0.00  0.00    +0.000 A 
ATOM     24  C   UNL     1      44.407   4.489  12.863  0.00  0.00    +0.000 A 
ATOM     25  S   UNL     1      43.657   3.070  12.282  0.00  0.00    +0.000 S 
ATOM     26  C   UNL     1      44.278   3.317  10.717  0.00  0.00    +0.000 A 
ATOM     27  N   UNL     1      44.025   2.432   9.714  0.00  0.00    +0.000 NA
ATOM     28  C   UNL     1      44.587   2.726   8.589  0.00  0.00    +0.000 A 
ATOM     29  N   UNL     1      45.374   3.827   8.374  0.00  0.00    +0.000 N 
ATOM     30  C   UNL     1      45.624   4.767   9.344  0.00  0.00    +0.000 A 
ATOM     31  O   UNL     1      46.279   5.774   9.102  0.00  0.00    +0.000 OA
ATOM     32  C   UNL     1      45.030   4.474  10.634  0.00  0.00    +0.000 A 
ATOM     33  H   UNL     1      45.777   4.006   7.466  0.00  0.00    +0.000 HD
ENDBRANCH  20  23
ENDBRANCH   2  19
TORSDOF 6
ENDMDL
