MODEL 1
REMARK VINA RESULT:    -8.548      0.000      0.000
REMARK INTER + INTRA:         -13.190
REMARK INTER:                 -12.296
REMARK INTRA:                  -0.894
REMARK UNBOUND:                -0.894
REMARK  Name = 
REMARK  8 active torsions:
REMARK  status: ('A' for Active; 'I' for Inactive)
REMARK    1  A    between atoms: N_1  and  C_2
REMARK    2  A    between atoms: C_2  and  C_3
REMARK    3  A    between atoms: C_2  and  C_27
REMARK    4  A    between atoms: C_3  and  N_4
REMARK    5  A    between atoms: C_5  and  C_7
REMARK    6  A    between atoms: C_10  and  C_11
REMARK    7  A    between atoms: C_11  and  N_12
REMARK    8  A    between atoms: C_13  and  C_15
REMARK                            x       y       z     vdW  Elec       q    Type
REMARK                         _______ _______ _______ _____ _____    ______ ____
ROOT
ATOM      1  C   UNL     1      46.218   4.628  13.143  0.00  0.00    +0.000 A 
ATOM      2  C   UNL     1      46.669   4.047  14.333  0.00  0.00    +0.000 A 
ATOM      3  C   UNL     1      47.528   4.760  15.178  0.00  0.00    +0.000 A 
ATOM      4  C   UNL     1      47.934   6.063  14.853  0.00  0.00    +0.000 A 
ATOM      5  C   UNL     1      47.511   6.620  13.638  0.00  0.00    +0.000 A 
ATOM      6  C   UNL     1      46.659   5.908  12.789  0.00  0.00    +0.000 A 
ENDROOT
BRANCH   1   8
ATOM      7  N   UNL     1      45.216   4.411  10.923  0.00  0.00    +0.000 N 
ATOM      8  C   UNL     1      45.317   3.903  12.203  0.00  0.00    +0.000 C 
ATOM      9  O   UNL     1      44.734   2.890  12.570  0.00  0.00    +0.000 OA
ATOM     10  H   UNL     1      45.951   5.014  10.574  0.00  0.00    +0.000 HD
BRANCH   7  11
ATOM     11  C   UNL     1      44.445   3.687   9.921  0.00  0.00    +0.000 C 
BRANCH  11  12
ATOM     12  C   UNL     1      44.992   3.892   8.488  0.00  0.00    +0.000 C 
BRANCH  12  13
ATOM     13  C   UNL     1      45.809   2.727   8.041  0.00  0.00    +0.000 A 
ATOM     14  C   UNL     1      46.828   2.597   7.118  0.00  0.00    +0.000 A 
ATOM     15  C   UNL     1      47.202   1.242   7.175  0.00  0.00    +0.000 A 
ATOM     16  N   UNL     1      46.477   0.557   8.060  0.00  0.00    +0.000 NA
ATOM     17  N   UNL     1      45.648   1.476   8.579  0.00  0.00    +0.000 N 
ATOM     18  H   UNL     1      44.996   1.178   9.296  0.00  0.00    +0.000 HD
ENDBRANCH  12  13
BRANCH  12  19
ATOM     19  N   UNL     1      45.800   5.115   8.405  0.00  0.00    +0.000 NA
ATOM     20  H   UNL     1      45.181   5.923   8.480  0.00  0.00    +0.000 HD
ATOM     21  H   UNL     1      46.204   5.175   7.470  0.00  0.00    +0.000 HD
ENDBRANCH  12  19
ENDBRANCH  11  12
ENDBRANCH   7  11
ENDBRANCH   1   8
BRANCH   4  22
ATOM     22  C   UNL     1      48.837   6.848  15.771  0.00  0.00    +0.000 C 
BRANCH  22  23
ATOM     23  N   UNL     1      49.937   6.050  16.244  0.00  0.00    +0.000 N 
ATOM     24  C   UNL     1      49.906   5.482  17.495  0.00  0.00    +0.000 C 
ATOM     25  O   UNL     1      48.928   5.586  18.231  0.00  0.00    +0.000 OA
ATOM     26  H   UNL     1      50.827   6.156  15.769  0.00  0.00    +0.000 HD
BRANCH  24  27
ATOM     27  C   UNL     1      51.077   4.687  17.886  0.00  0.00    +0.000 A 
ATOM     28  C   UNL     1      52.162   5.315  18.487  0.00  0.00    +0.000 A 
ATOM     29  S   UNL     1      53.409   4.241  18.934  0.00  0.00    +0.000 S 
ATOM     30  C   UNL     1      52.570   2.908  18.289  0.00  0.00    +0.000 A 
ATOM     31  N   UNL     1      53.106   1.659  18.326  0.00  0.00    +0.000 NA
ATOM     32  C   UNL     1      52.377   0.751  17.771  0.00  0.00    +0.000 A 
ATOM     33  N   UNL     1      51.157   0.975  17.186  0.00  0.00    +0.000 N 
ATOM     34  C   UNL     1      50.564   2.215  17.151  0.00  0.00    +0.000 A 
ATOM     35  O   UNL     1      49.454   2.378  16.655  0.00  0.00    +0.000 OA
ATOM     36  C   UNL     1      51.347   3.276  17.755  0.00  0.00    +0.000 A 
ATOM     37  H   UNL     1      50.633   0.219  16.773  0.00  0.00    +0.000 HD
ENDBRANCH  24  27
ENDBRANCH  22  23
ENDBRANCH   4  22
TORSDOF 8
ENDMDL
MODEL 2
REMARK VINA RESULT:    -7.948      2.725      3.392
REMARK INTER + INTRA:         -12.327
REMARK INTER:                 -11.381
REMARK INTRA:                  -0.945
REMARK UNBOUND:                -0.894
REMARK  Name = 
REMARK  8 active torsions:
REMARK  status: ('A' for Active; 'I' for Inactive)
REMARK    1  A    between atoms: N_1  and  C_2
REMARK    2  A    between atoms: C_2  and  C_3
REMARK    3  A    between atoms: C_2  and  C_27
REMARK    4  A    between atoms: C_3  and  N_4
REMARK    5  A    between atoms: C_5  and  C_7
REMARK    6  A    between atoms: C_10  and  C_11
REMARK    7  A    between atoms: C_11  and  N_12
REMARK    8  A    between atoms: C_13  and  C_15
REMARK                            x       y       z     vdW  Elec       q    Type
REMARK                         _______ _______ _______ _____ _____    ______ ____
ROOT
ATOM      1  C   UNL     1      45.412   6.426  11.554  0.00  0.00    +0.000 A 
ATOM      2  C   UNL     1      44.884   7.696  11.814  0.00  0.00    +0.000 A 
ATOM      3  C   UNL     1      45.577   8.585  12.646  0.00  0.00    +0.000 A 
ATOM      4  C   UNL     1      46.807   8.223  13.214  0.00  0.00    +0.000 A 
ATOM      5  C   UNL     1      47.306   6.933  12.982  0.00  0.00    +0.000 A 
ATOM      6  C   UNL     1      46.615   6.042  12.158  0.00  0.00    +0.000 A 
ENDROOT
BRANCH   1   8
ATOM      7  N   UNL     1      45.366   5.023   9.552  0.00  0.00    +0.000 N 
ATOM      8  C   UNL     1      44.704   5.440  10.690  0.00  0.00    +0.000 C 
ATOM      9  O   UNL     1      43.604   5.015  11.018  0.00  0.00    +0.000 OA
ATOM     10  H   UNL     1      46.373   5.125   9.504  0.00  0.00    +0.000 HD
BRANCH   7  11
ATOM     11  C   UNL     1      44.784   3.975   8.724  0.00  0.00    +0.000 C 
BRANCH  11  12
ATOM     12  C   UNL     1      45.568   2.643   8.812  0.00  0.00    +0.000 C 
BRANCH  12  13
ATOM     13  C   UNL     1      46.407   2.420   7.600  0.00  0.00    +0.000 A 
ATOM     14  C   UNL     1      46.585   3.144   6.437  0.00  0.00    +0.000 A 
ATOM     15  C   UNL     1      47.530   2.414   5.694  0.00  0.00    +0.000 A 
ATOM     16  N   UNL     1      47.923   1.308   6.326  0.00  0.00    +0.000 NA
ATOM     17  N   UNL     1      47.240   1.337   7.481  0.00  0.00    +0.000 N 
ATOM     18  H   UNL     1      47.389   0.582   8.142  0.00  0.00    +0.000 HD
ENDBRANCH  12  13
BRANCH  12  19
ATOM     19  N   UNL     1      44.652   1.508   8.987  0.00  0.00    +0.000 NA
ATOM     20  H   UNL     1      44.779   0.861   8.208  0.00  0.00    +0.000 HD
ATOM     21  H   UNL     1      43.694   1.847   8.898  0.00  0.00    +0.000 HD
ENDBRANCH  12  19
ENDBRANCH  11  12
ENDBRANCH   7  11
ENDBRANCH   1   8
BRANCH   4  22
ATOM     22  C   UNL     1      47.572   9.184  14.088  0.00  0.00    +0.000 C 
BRANCH  22  23
ATOM     23  N   UNL     1      47.788   8.648  15.405  0.00  0.00    +0.000 N 
ATOM     24  C   UNL     1      49.026   8.183  15.781  0.00  0.00    +0.000 C 
ATOM     25  O   UNL     1      50.000   8.256  15.035  0.00  0.00    +0.000 OA
ATOM     26  H   UNL     1      46.970   8.358  15.930  0.00  0.00    +0.000 HD
BRANCH  24  27
ATOM     27  C   UNL     1      49.145   7.653  17.145  0.00  0.00    +0.000 A 
ATOM     28  C   UNL     1      49.545   8.494  18.176  0.00  0.00    +0.000 A 
ATOM     29  S   UNL     1      49.572   7.736  19.704  0.00  0.00    +0.000 S 
ATOM     30  C   UNL     1      49.107   6.243  19.033  0.00  0.00    +0.000 A 
ATOM     31  N   UNL     1      48.964   5.138  19.815  0.00  0.00    +0.000 NA
ATOM     32  C   UNL     1      48.641   4.068  19.170  0.00  0.00    +0.000 A 
ATOM     33  N   UNL     1      48.443   4.000  17.815  0.00  0.00    +0.000 N 
ATOM     34  C   UNL     1      48.547   5.096  16.991  0.00  0.00    +0.000 A 
ATOM     35  O   UNL     1      48.325   5.012  15.787  0.00  0.00    +0.000 OA
ATOM     36  C   UNL     1      48.917   6.326  17.665  0.00  0.00    +0.000 A 
ATOM     37  H   UNL     1      48.185   3.132  17.371  0.00  0.00    +0.000 HD
ENDBRANCH  24  27
ENDBRANCH  22  23
ENDBRANCH   4  22
TORSDOF 8
ENDMDL
MODEL 3
REMARK VINA RESULT:    -7.507      3.785      8.931
REMARK INTER + INTRA:         -11.693
REMARK INTER:                 -10.556
REMARK INTRA:                  -1.137
REMARK UNBOUND:                -0.894
REMARK  Name = 
REMARK  8 active torsions:
REMARK  status: ('A' for Active; 'I' for Inactive)
REMARK    1  A    between atoms: N_1  and  C_2
REMARK    2  A    between atoms: C_2  and  C_3
REMARK    3  A    between atoms: C_2  and  C_27
REMARK    4  A    between atoms: C_3  and  N_4
REMARK    5  A    between atoms: C_5  and  C_7
REMARK    6  A    between atoms: C_10  and  C_11
REMARK    7  A    between atoms: C_11  and  N_12
REMARK    8  A    between atoms: C_13  and  C_15
REMARK                            x       y       z     vdW  Elec       q    Type
REMARK                         _______ _______ _______ _____ _____    ______ ____
ROOT
ATOM      1  C   UNL     1      49.854   6.956  15.964  0.00  0.00    +0.000 A 
ATOM      2  C   UNL     1      50.629   7.755  15.117  0.00  0.00    +0.000 A 
ATOM      3  C   UNL     1      50.174   8.053  13.826  0.00  0.00    +0.000 A 
ATOM      4  C   UNL     1      48.938   7.568  13.372  0.00  0.00    +0.000 A 
ATOM      5  C   UNL     1      48.189   6.733  14.214  0.00  0.00    +0.000 A 
ATOM      6  C   UNL     1      48.643   6.429  15.500  0.00  0.00    +0.000 A 
ENDROOT
BRANCH   1   8
ATOM      7  N   UNL     1      49.316   6.289  18.254  0.00  0.00    +0.000 N 
ATOM      8  C   UNL     1      50.303   6.599  17.340  0.00  0.00    +0.000 C 
ATOM      9  O   UNL     1      51.498   6.559  17.604  0.00  0.00    +0.000 OA
ATOM     10  H   UNL     1      48.404   6.004  17.916  0.00  0.00    +0.000 HD
BRANCH   7  11
ATOM     11  C   UNL     1      49.687   5.819  19.582  0.00  0.00    +0.000 C 
BRANCH  11  12
ATOM     12  C   UNL     1      49.358   4.323  19.798  0.00  0.00    +0.000 C 
BRANCH  12  13
ATOM     13  C   UNL     1      48.699   3.728  18.599  0.00  0.00    +0.000 A 
ATOM     14  C   UNL     1      49.189   3.042  17.505  0.00  0.00    +0.000 A 
ATOM     15  C   UNL     1      48.055   2.724  16.736  0.00  0.00    +0.000 A 
ATOM     16  N   UNL     1      46.929   3.173  17.290  0.00  0.00    +0.000 NA
ATOM     17  N   UNL     1      47.340   3.768  18.421  0.00  0.00    +0.000 N 
ATOM     18  H   UNL     1      46.638   4.183  19.023  0.00  0.00    +0.000 HD
ENDBRANCH  12  13
BRANCH  12  19
ATOM     19  N   UNL     1      48.492   4.141  20.971  0.00  0.00    +0.000 NA
ATOM     20  H   UNL     1      49.076   3.914  21.777  0.00  0.00    +0.000 HD
ATOM     21  H   UNL     1      47.912   3.315  20.821  0.00  0.00    +0.000 HD
ENDBRANCH  12  19
ENDBRANCH  11  12
ENDBRANCH   7  11
ENDBRANCH   1   8
BRANCH   4  22
ATOM     22  C   UNL     1      48.429   7.906  11.994  0.00  0.00    +0.000 C 
BRANCH  22  23
ATOM     23  N   UNL     1      47.680   6.819  11.423  0.00  0.00    +0.000 N 
ATOM     24  C   UNL     1      46.307   6.857  11.380  0.00  0.00    +0.000 C 
ATOM     25  O   UNL     1      45.673   7.833  11.774  0.00  0.00    +0.000 OA
ATOM     26  H   UNL     1      48.155   5.928  11.325  0.00  0.00    +0.000 HD
BRANCH  24  27
ATOM     27  C   UNL     1      45.634   5.698  10.780  0.00  0.00    +0.000 A 
ATOM     28  C   UNL     1      45.724   5.486   9.409  0.00  0.00    +0.000 A 
ATOM     29  S   UNL     1      44.939   4.065   8.886  0.00  0.00    +0.000 S 
ATOM     30  C   UNL     1      44.401   3.714  10.462  0.00  0.00    +0.000 A 
ATOM     31  N   UNL     1      43.638   2.617  10.713  0.00  0.00    +0.000 NA
ATOM     32  C   UNL     1      43.274   2.493  11.944  0.00  0.00    +0.000 A 
ATOM     33  N   UNL     1      43.606   3.363  12.951  0.00  0.00    +0.000 N 
ATOM     34  C   UNL     1      44.399   4.468  12.749  0.00  0.00    +0.000 A 
ATOM     35  O   UNL     1      44.712   5.207  13.677  0.00  0.00    +0.000 OA
ATOM     36  C   UNL     1      44.830   4.660  11.377  0.00  0.00    +0.000 A 
ATOM     37  H   UNL     1      43.293   3.206  13.897  0.00  0.00    +0.000 HD
ENDBRANCH  24  27
ENDBRANCH  22  23
ENDBRANCH   4  22
TORSDOF 8
ENDMDL
MODEL 4
REMARK VINA RESULT:    -7.307      1.679      2.113
REMARK INTER + INTRA:         -11.405
REMARK INTER:                 -10.130
REMARK INTRA:                  -1.275
REMARK UNBOUND:                -0.894
REMARK  Name = 
REMARK  8 active torsions:
REMARK  status: ('A' for Active; 'I' for Inactive)
REMARK    1  A    between atoms: N_1  and  C_2
REMARK    2  A    between atoms: C_2  and  C_3
REMARK    3  A    between atoms: C_2  and  C_27
REMARK    4  A    between atoms: C_3  and  N_4
REMARK    5  A    between atoms: C_5  and  C_7
REMARK    6  A    between atoms: C_10  and  C_11
REMARK    7  A    between atoms: C_11  and  N_12
REMARK    8  A    between atoms: C_13  and  C_15
REMARK                            x       y       z     vdW  Elec       q    Type
REMARK                         _______ _______ _______ _____ _____    ______ ____
ROOT
ATOM      1  C   UNL     1      46.710   4.882  14.050  0.00  0.00    +0.000 A 
ATOM      2  C   UNL     1      47.155   4.520  15.326  0.00  0.00    +0.000 A 
ATOM      3  C   UNL     1      48.070   5.334  16.006  0.00  0.00    +0.000 A 
ATOM      4  C   UNL     1      48.539   6.523  15.427  0.00  0.00    +0.000 A 
ATOM      5  C   UNL     1      48.120   6.855  14.131  0.00  0.00    +0.000 A 
ATOM      6  C   UNL     1      47.213   6.042  13.447  0.00  0.00    +0.000 A 
ENDROOT
BRANCH   1   8
ATOM      7  N   UNL     1      44.536   4.615  12.964  0.00  0.00    +0.000 N 
ATOM      8  C   UNL     1      45.751   4.041  13.280  0.00  0.00    +0.000 C 
ATOM      9  O   UNL     1      46.069   2.910  12.933  0.00  0.00    +0.000 OA
ATOM     10  H   UNL     1      44.455   5.625  12.963  0.00  0.00    +0.000 HD
BRANCH   7  11
ATOM     11  C   UNL     1      43.598   3.892  12.115  0.00  0.00    +0.000 C 
BRANCH  11  12
ATOM     12  C   UNL     1      43.515   4.479  10.686  0.00  0.00    +0.000 C 
BRANCH  12  13
ATOM     13  C   UNL     1      44.354   3.705   9.725  0.00  0.00    +0.000 A 
ATOM     14  C   UNL     1      44.829   3.986   8.459  0.00  0.00    +0.000 A 
ATOM     15  C   UNL     1      45.583   2.857   8.093  0.00  0.00    +0.000 A 
ATOM     16  N   UNL     1      45.588   1.924   9.046  0.00  0.00    +0.000 NA
ATOM     17  N   UNL     1      44.847   2.462  10.028  0.00  0.00    +0.000 N 
ATOM     18  H   UNL     1      44.718   1.922  10.877  0.00  0.00    +0.000 HD
ENDBRANCH  12  13
BRANCH  12  19
ATOM     19  N   UNL     1      43.932   5.887  10.673  0.00  0.00    +0.000 NA
ATOM     20  H   UNL     1      43.227   6.443  11.158  0.00  0.00    +0.000 HD
ATOM     21  H   UNL     1      43.916   6.222   9.709  0.00  0.00    +0.000 HD
ENDBRANCH  12  19
ENDBRANCH  11  12
ENDBRANCH   7  11
ENDBRANCH   1   8
BRANCH   4  22
ATOM     22  C   UNL     1      49.502   7.419  16.164  0.00  0.00    +0.000 C 
BRANCH  22  23
ATOM     23  N   UNL     1      50.578   6.669  16.756  0.00  0.00    +0.000 N 
ATOM     24  C   UNL     1      51.837   6.694  16.207  0.00  0.00    +0.000 C 
ATOM     25  O   UNL     1      52.106   7.391  15.231  0.00  0.00    +0.000 OA
ATOM     26  H   UNL     1      50.328   5.917  17.389  0.00  0.00    +0.000 HD
BRANCH  24  27
ATOM     27  C   UNL     1      52.867   5.894  16.883  0.00  0.00    +0.000 A 
ATOM     28  C   UNL     1      54.149   6.410  17.032  0.00  0.00    +0.000 A 
ATOM     29  S   UNL     1      55.203   5.381  17.891  0.00  0.00    +0.000 S 
ATOM     30  C   UNL     1      54.001   4.185  18.044  0.00  0.00    +0.000 A 
ATOM     31  N   UNL     1      54.261   3.007  18.673  0.00  0.00    +0.000 NA
ATOM     32  C   UNL     1      53.271   2.181  18.686  0.00  0.00    +0.000 A 
ATOM     33  N   UNL     1      52.040   2.424  18.131  0.00  0.00    +0.000 N 
ATOM     34  C   UNL     1      51.724   3.610  17.511  0.00  0.00    +0.000 A 
ATOM     35  O   UNL     1      50.602   3.814  17.058  0.00  0.00    +0.000 OA
ATOM     36  C   UNL     1      52.807   4.574  17.462  0.00  0.00    +0.000 A 
ATOM     37  H   UNL     1      51.304   1.737  18.180  0.00  0.00    +0.000 HD
ENDBRANCH  24  27
ENDBRANCH  22  23
ENDBRANCH   4  22
TORSDOF 8
ENDMDL
MODEL 5
REMARK VINA RESULT:    -7.096      3.892      5.048
REMARK INTER + INTRA:         -11.102
REMARK INTER:                  -9.966
REMARK INTRA:                  -1.136
REMARK UNBOUND:                -0.894
REMARK  Name = 
REMARK  8 active torsions:
REMARK  status: ('A' for Active; 'I' for Inactive)
REMARK    1  A    between atoms: N_1  and  C_2
REMARK    2  A    between atoms: C_2  and  C_3
REMARK    3  A    between atoms: C_2  and  C_27
REMARK    4  A    between atoms: C_3  and  N_4
REMARK    5  A    between atoms: C_5  and  C_7
REMARK    6  A    between atoms: C_10  and  C_11
REMARK    7  A    between atoms: C_11  and  N_12
REMARK    8  A    between atoms: C_13  and  C_15
REMARK                            x       y       z     vdW  Elec       q    Type
REMARK                         _______ _______ _______ _____ _____    ______ ____
ROOT
ATOM      1  C   UNL     1      46.240   4.912  13.320  0.00  0.00    +0.000 A 
ATOM      2  C   UNL     1      46.768   4.456  14.532  0.00  0.00    +0.000 A 
ATOM      3  C   UNL     1      47.766   5.192  15.183  0.00  0.00    +0.000 A 
ATOM      4  C   UNL     1      48.237   6.396  14.638  0.00  0.00    +0.000 A 
ATOM      5  C   UNL     1      47.733   6.823  13.402  0.00  0.00    +0.000 A 
ATOM      6  C   UNL     1      46.742   6.087  12.747  0.00  0.00    +0.000 A 
ENDROOT
BRANCH   1   8
ATOM      7  N   UNL     1      45.367   4.014  11.220  0.00  0.00    +0.000 N 
ATOM      8  C   UNL     1      45.190   4.155  12.582  0.00  0.00    +0.000 C 
ATOM      9  O   UNL     1      44.244   3.667  13.189  0.00  0.00    +0.000 OA
ATOM     10  H   UNL     1      46.296   4.123  10.831  0.00  0.00    +0.000 HD
BRANCH   7  11
ATOM     11  C   UNL     1      44.441   3.189  10.456  0.00  0.00    +0.000 C 
BRANCH  11  12
ATOM     12  C   UNL     1      44.556   3.421   8.930  0.00  0.00    +0.000 C 
BRANCH  12  13
ATOM     13  C   UNL     1      45.547   2.497   8.308  0.00  0.00    +0.000 A 
ATOM     14  C   UNL     1      46.564   2.692   7.394  0.00  0.00    +0.000 A 
ATOM     15  C   UNL     1      47.154   1.426   7.228  0.00  0.00    +0.000 A 
ATOM     16  N   UNL     1      46.560   0.492   7.973  0.00  0.00    +0.000 NA
ATOM     17  N   UNL     1      45.598   1.164   8.625  0.00  0.00    +0.000 N 
ATOM     18  H   UNL     1      45.011   0.647   9.271  0.00  0.00    +0.000 HD
ENDBRANCH  12  13
BRANCH  12  19
ATOM     19  N   UNL     1      44.935   4.810   8.639  0.00  0.00    +0.000 NA
ATOM     20  H   UNL     1      44.410   5.430   9.258  0.00  0.00    +0.000 HD
ATOM     21  H   UNL     1      44.617   5.043   7.698  0.00  0.00    +0.000 HD
ENDBRANCH  12  19
ENDBRANCH  11  12
ENDBRANCH   7  11
ENDBRANCH   1   8
BRANCH   4  22
ATOM     22  C   UNL     1      49.292   7.209  15.346  0.00  0.00    +0.000 C 
BRANCH  22  23
ATOM     23  N   UNL     1      50.461   7.390  14.528  0.00  0.00    +0.000 N 
ATOM     24  C   UNL     1      50.891   8.648  14.183  0.00  0.00    +0.000 C 
ATOM     25  O   UNL     1      50.332   9.661  14.599  0.00  0.00    +0.000 OA
ATOM     26  H   UNL     1      50.779   6.592  13.987  0.00  0.00    +0.000 HD
BRANCH  24  27
ATOM     27  C   UNL     1      52.093   8.728  13.344  0.00  0.00    +0.000 A 
ATOM     28  C   UNL     1      53.251   9.300  13.855  0.00  0.00    +0.000 A 
ATOM     29  S   UNL     1      54.569   9.257  12.774  0.00  0.00    +0.000 S 
ATOM     30  C   UNL     1      53.624   8.525  11.563  0.00  0.00    +0.000 A 
ATOM     31  N   UNL     1      54.152   8.230  10.345  0.00  0.00    +0.000 NA
ATOM     32  C   UNL     1      53.315   7.710   9.513  0.00  0.00    +0.000 A 
ATOM     33  N   UNL     1      51.996   7.452   9.788  0.00  0.00    +0.000 N 
ATOM     34  C   UNL     1      51.427   7.707  11.013  0.00  0.00    +0.000 A 
ATOM     35  O   UNL     1      50.253   7.430  11.241  0.00  0.00    +0.000 OA
ATOM     36  C   UNL     1      52.325   8.302  11.985  0.00  0.00    +0.000 A 
ATOM     37  H   UNL     1      51.393   7.038   9.094  0.00  0.00    +0.000 HD
ENDBRANCH  24  27
ENDBRANCH  22  23
ENDBRANCH   4  22
TORSDOF 8
ENDMDL
MODEL 6
REMARK VINA RESULT:    -7.016      5.162      5.699
REMARK INTER + INTRA:         -10.986
REMARK INTER:                  -9.857
REMARK INTRA:                  -1.129
REMARK UNBOUND:                -0.894
REMARK  Name = 
REMARK  8 active torsions:
REMARK  status: ('A' for Active; 'I' for Inactive)
REMARK    1  A    between atoms: N_1  and  C_2
REMARK    2  A    between atoms: C_2  and  C_3
REMARK    3  A    between atoms: C_2  and  C_27
REMARK    4  A    between atoms: C_3  and  N_4
REMARK    5  A    between atoms: C_5  and  C_7
REMARK    6  A    between atoms: C_10  and  C_11
REMARK    7  A    between atoms: C_11  and  N_12
REMARK    8  A    between atoms: C_13  and  C_15
REMARK                            x       y       z     vdW  Elec       q    Type
REMARK                         _______ _______ _______ _____ _____    ______ ____
ROOT
ATOM      1  C   UNL     1      45.562   6.488  11.479  0.00  0.00    +0.000 A 
ATOM      2  C   UNL     1      45.026   7.764  11.682  0.00  0.00    +0.000 A 
ATOM      3  C   UNL     1      45.774   8.738  12.356  0.00  0.00    +0.000 A 
ATOM      4  C   UNL     1      47.067   8.453  12.821  0.00  0.00    +0.000 A 
ATOM      5  C   UNL     1      47.578   7.159  12.649  0.00  0.00    +0.000 A 
ATOM      6  C   UNL     1      46.831   6.183  11.984  0.00  0.00    +0.000 A 
ENDROOT
BRANCH   1   8
ATOM      7  N   UNL     1      45.216   5.079   9.510  0.00  0.00    +0.000 N 
ATOM      8  C   UNL     1      44.798   5.414  10.783  0.00  0.00    +0.000 C 
ATOM      9  O   UNL     1      43.871   4.852  11.353  0.00  0.00    +0.000 OA
ATOM     10  H   UNL     1      46.162   5.310   9.227  0.00  0.00    +0.000 HD
BRANCH   7  11
ATOM     11  C   UNL     1      44.591   3.960   8.818  0.00  0.00    +0.000 C 
BRANCH  11  12
ATOM     12  C   UNL     1      45.415   2.655   8.929  0.00  0.00    +0.000 C 
BRANCH  12  13
ATOM     13  C   UNL     1      46.286   2.453   7.736  0.00  0.00    +0.000 A 
ATOM     14  C   UNL     1      46.520   3.214   6.607  0.00  0.00    +0.000 A 
ATOM     15  C   UNL     1      47.468   2.486   5.866  0.00  0.00    +0.000 A 
ATOM     16  N   UNL     1      47.811   1.347   6.468  0.00  0.00    +0.000 NA
ATOM     17  N   UNL     1      47.092   1.352   7.602  0.00  0.00    +0.000 N 
ATOM     18  H   UNL     1      47.200   0.570   8.238  0.00  0.00    +0.000 HD
ENDBRANCH  12  13
BRANCH  12  19
ATOM     19  N   UNL     1      44.533   1.492   9.092  0.00  0.00    +0.000 NA
ATOM     20  H   UNL     1      44.752   0.809   8.366  0.00  0.00    +0.000 HD
ATOM     21  H   UNL     1      43.573   1.783   8.902  0.00  0.00    +0.000 HD
ENDBRANCH  12  19
ENDBRANCH  11  12
ENDBRANCH   7  11
ENDBRANCH   1   8
BRANCH   4  22
ATOM     22  C   UNL     1      47.889   9.505  13.523  0.00  0.00    +0.000 C 
BRANCH  22  23
ATOM     23  N   UNL     1      49.192   9.644  12.930  0.00  0.00    +0.000 N 
ATOM     24  C   UNL     1      50.323   9.296  13.628  0.00  0.00    +0.000 C 
ATOM     25  O   UNL     1      50.266   8.807  14.754  0.00  0.00    +0.000 OA
ATOM     26  H   UNL     1      49.275  10.257  12.126  0.00  0.00    +0.000 HD
BRANCH  24  27
ATOM     27  C   UNL     1      51.606   9.476  12.937  0.00  0.00    +0.000 A 
ATOM     28  C   UNL     1      52.531  10.386  13.435  0.00  0.00    +0.000 A 
ATOM     29  S   UNL     1      53.990  10.428  12.552  0.00  0.00    +0.000 S 
ATOM     30  C   UNL     1      53.416   9.275  11.440  0.00  0.00    +0.000 A 
ATOM     31  N   UNL     1      54.182   8.870  10.391  0.00  0.00    +0.000 NA
ATOM     32  C   UNL     1      53.609   8.019   9.610  0.00  0.00    +0.000 A 
ATOM     33  N   UNL     1      52.339   7.530   9.782  0.00  0.00    +0.000 N 
ATOM     34  C   UNL     1      51.540   7.888  10.842  0.00  0.00    +0.000 A 
ATOM     35  O   UNL     1      50.422   7.403  10.991  0.00  0.00    +0.000 OA
ATOM     36  C   UNL     1      52.135   8.852  11.749  0.00  0.00    +0.000 A 
ATOM     37  H   UNL     1      51.950   6.860   9.137  0.00  0.00    +0.000 HD
ENDBRANCH  24  27
ENDBRANCH  22  23
ENDBRANCH   4  22
TORSDOF 8
ENDMDL
MODEL 7
REMARK VINA RESULT:    -6.805      6.020      7.994
REMARK INTER + INTRA:         -10.683
REMARK INTER:                  -9.452
REMARK INTRA:                  -1.231
REMARK UNBOUND:                -0.894
REMARK  Name = 
REMARK  8 active torsions:
REMARK  status: ('A' for Active; 'I' for Inactive)
REMARK    1  A    between atoms: N_1  and  C_2
REMARK    2  A    between atoms: C_2  and  C_3
REMARK    3  A    between atoms: C_2  and  C_27
REMARK    4  A    between atoms: C_3  and  N_4
REMARK    5  A    between atoms: C_5  and  C_7
REMARK    6  A    between atoms: C_10  and  C_11
REMARK    7  A    between atoms: C_11  and  N_12
REMARK    8  A    between atoms: C_13  and  C_15
REMARK                            x       y       z     vdW  Elec       q    Type
REMARK                         _______ _______ _______ _____ _____    ______ ____
ROOT
ATOM      1  C   UNL     1      47.084   7.684  12.324  0.00  0.00    +0.000 A 
ATOM      2  C   UNL     1      47.463   8.990  11.994  0.00  0.00    +0.000 A 
ATOM      3  C   UNL     1      48.813   9.293  11.774  0.00  0.00    +0.000 A 
ATOM      4  C   UNL     1      49.795   8.296  11.868  0.00  0.00    +0.000 A 
ATOM      5  C   UNL     1      49.411   7.000  12.241  0.00  0.00    +0.000 A 
ATOM      6  C   UNL     1      48.066   6.696  12.467  0.00  0.00    +0.000 A 
ENDROOT
BRANCH   1   8
ATOM      7  N   UNL     1      45.348   5.974  12.516  0.00  0.00    +0.000 N 
ATOM      8  C   UNL     1      45.664   7.316  12.583  0.00  0.00    +0.000 C 
ATOM      9  O   UNL     1      44.848   8.184  12.870  0.00  0.00    +0.000 OA
ATOM     10  H   UNL     1      46.087   5.289  12.620  0.00  0.00    +0.000 HD
BRANCH   7  11
ATOM     11  C   UNL     1      44.006   5.533  12.872  0.00  0.00    +0.000 C 
BRANCH  11  12
ATOM     12  C   UNL     1      43.098   5.331  11.635  0.00  0.00    +0.000 C 
BRANCH  12  13
ATOM     13  C   UNL     1      43.732   4.431  10.630  0.00  0.00    +0.000 A 
ATOM     14  C   UNL     1      44.104   3.102  10.665  0.00  0.00    +0.000 A 
ATOM     15  C   UNL     1      44.629   2.835   9.387  0.00  0.00    +0.000 A 
ATOM     16  N   UNL     1      44.601   3.909   8.597  0.00  0.00    +0.000 NA
ATOM     17  N   UNL     1      44.045   4.860   9.365  0.00  0.00    +0.000 N 
ATOM     18  H   UNL     1      43.912   5.781   8.961  0.00  0.00    +0.000 HD
ENDBRANCH  12  13
BRANCH  12  19
ATOM     19  N   UNL     1      42.777   6.619  11.005  0.00  0.00    +0.000 NA
ATOM     20  H   UNL     1      43.648   7.118  10.819  0.00  0.00    +0.000 HD
ATOM     21  H   UNL     1      42.279   7.197  11.683  0.00  0.00    +0.000 HD
ENDBRANCH  12  19
ENDBRANCH  11  12
ENDBRANCH   7  11
ENDBRANCH   1   8
BRANCH   4  22
ATOM     22  C   UNL     1      51.247   8.608  11.606  0.00  0.00    +0.000 C 
BRANCH  22  23
ATOM     23  N   UNL     1      51.698   8.039  10.365  0.00  0.00    +0.000 N 
ATOM     24  C   UNL     1      52.941   7.463  10.265  0.00  0.00    +0.000 C 
ATOM     25  O   UNL     1      53.689   7.363  11.235  0.00  0.00    +0.000 OA
ATOM     26  H   UNL     1      51.215   8.324   9.519  0.00  0.00    +0.000 HD
BRANCH  24  27
ATOM     27  C   UNL     1      53.310   6.911   8.955  0.00  0.00    +0.000 A 
ATOM     28  C   UNL     1      53.682   5.576   8.853  0.00  0.00    +0.000 A 
ATOM     29  S   UNL     1      54.018   5.083   7.255  0.00  0.00    +0.000 S 
ATOM     30  C   UNL     1      53.736   6.649   6.652  0.00  0.00    +0.000 A 
ATOM     31  N   UNL     1      53.877   6.925   5.327  0.00  0.00    +0.000 NA
ATOM     32  C   UNL     1      53.665   8.159   5.016  0.00  0.00    +0.000 A 
ATOM     33  N   UNL     1      53.321   9.144   5.906  0.00  0.00    +0.000 N 
ATOM     34  C   UNL     1      53.139   8.904   7.248  0.00  0.00    +0.000 A 
ATOM     35  O   UNL     1      52.793   9.798   8.014  0.00  0.00    +0.000 OA
ATOM     36  C   UNL     1      53.374   7.532   7.654  0.00  0.00    +0.000 A 
ATOM     37  H   UNL     1      53.163  10.090   5.597  0.00  0.00    +0.000 HD
ENDBRANCH  24  27
ENDBRANCH  22  23
ENDBRANCH   4  22
TORSDOF 8
ENDMDL
MODEL 8
REMARK VINA RESULT:    -6.758      2.477      3.309
REMARK INTER + INTRA:         -10.616
REMARK INTER:                  -9.279
REMARK INTRA:                  -1.336
REMARK UNBOUND:                -0.894
REMARK  Name = 
REMARK  8 active torsions:
REMARK  status: ('A' for Active; 'I' for Inactive)
REMARK    1  A    between atoms: N_1  and  C_2
REMARK    2  A    between atoms: C_2  and  C_3
REMARK    3  A    between atoms: C_2  and  C_27
REMARK    4  A    between atoms: C_3  and  N_4
REMARK    5  A    between atoms: C_5  and  C_7
REMARK    6  A    between atoms: C_10  and  C_11
REMARK    7  A    between atoms: C_11  and  N_12
REMARK    8  A    between atoms: C_13  and  C_15
REMARK                            x       y       z     vdW  Elec       q    Type
REMARK                         _______ _______ _______ _____ _____    ______ ____
ROOT
ATOM      1  C   UNL     1      46.252   6.976  12.587  0.00  0.00    +0.000 A 
ATOM      2  C   UNL     1      47.541   6.502  12.852  0.00  0.00    +0.000 A 
ATOM      3  C   UNL     1      48.461   7.314  13.528  0.00  0.00    +0.000 A 
ATOM      4  C   UNL     1      48.100   8.600  13.957  0.00  0.00    +0.000 A 
ATOM      5  C   UNL     1      46.821   9.082  13.648  0.00  0.00    +0.000 A 
ATOM      6  C   UNL     1      45.903   8.277  12.968  0.00  0.00    +0.000 A 
ENDROOT
BRANCH   1   8
ATOM      7  N   UNL     1      44.618   5.158  12.575  0.00  0.00    +0.000 N 
ATOM      8  C   UNL     1      45.244   6.156  11.857  0.00  0.00    +0.000 C 
ATOM      9  O   UNL     1      44.984   6.403  10.686  0.00  0.00    +0.000 OA
ATOM     10  H   UNL     1      44.605   5.214  13.587  0.00  0.00    +0.000 HD
BRANCH   7  11
ATOM     11  C   UNL     1      43.541   4.395  11.958  0.00  0.00    +0.000 C 
BRANCH  11  12
ATOM     12  C   UNL     1      44.013   3.021  11.425  0.00  0.00    +0.000 C 
BRANCH  12  13
ATOM     13  C   UNL     1      44.457   3.108  10.004  0.00  0.00    +0.000 A 
ATOM     14  C   UNL     1      45.228   2.280   9.211  0.00  0.00    +0.000 A 
ATOM     15  C   UNL     1      45.262   2.907   7.953  0.00  0.00    +0.000 A 
ATOM     16  N   UNL     1      44.573   4.049   7.940  0.00  0.00    +0.000 NA
ATOM     17  N   UNL     1      44.086   4.145   9.187  0.00  0.00    +0.000 N 
ATOM     18  H   UNL     1      43.509   4.948   9.412  0.00  0.00    +0.000 HD
ENDBRANCH  12  13
BRANCH  12  19
ATOM     19  N   UNL     1      42.946   2.019  11.543  0.00  0.00    +0.000 NA
ATOM     20  H   UNL     1      42.134   2.340  11.014  0.00  0.00    +0.000 HD
ATOM     21  H   UNL     1      42.636   1.988  12.514  0.00  0.00    +0.000 HD
ENDBRANCH  12  19
ENDBRANCH  11  12
ENDBRANCH   7  11
ENDBRANCH   1   8
BRANCH   4  22
ATOM     22  C   UNL     1      49.076   9.471  14.709  0.00  0.00    +0.000 C 
BRANCH  22  23
ATOM     23  N   UNL     1      49.699   8.758  15.791  0.00  0.00    +0.000 N 
ATOM     24  C   UNL     1      49.122   8.729  17.038  0.00  0.00    +0.000 C 
ATOM     25  O   UNL     1      48.037   9.260  17.263  0.00  0.00    +0.000 OA
ATOM     26  H   UNL     1      50.684   8.533  15.695  0.00  0.00    +0.000 HD
BRANCH  24  27
ATOM     27  C   UNL     1      49.836   7.977  18.078  0.00  0.00    +0.000 A 
ATOM     28  C   UNL     1      50.235   8.623  19.241  0.00  0.00    +0.000 A 
ATOM     29  S   UNL     1      50.995   7.593  20.368  0.00  0.00    +0.000 S 
ATOM     30  C   UNL     1      50.870   6.260  19.318  0.00  0.00    +0.000 A 
ATOM     31  N   UNL     1      51.360   5.041  19.673  0.00  0.00    +0.000 NA
ATOM     32  C   UNL     1      51.228   4.131  18.768  0.00  0.00    +0.000 A 
ATOM     33  N   UNL     1      50.646   4.325  17.541  0.00  0.00    +0.000 N 
ATOM     34  C   UNL     1      50.112   5.531  17.152  0.00  0.00    +0.000 A 
ATOM     35  O   UNL     1      49.563   5.663  16.062  0.00  0.00    +0.000 OA
ATOM     36  C   UNL     1      50.242   6.593  18.131  0.00  0.00    +0.000 A 
ATOM     37  H   UNL     1      50.568   3.568  16.879  0.00  0.00    +0.000 HD
ENDBRANCH  24  27
ENDBRANCH  22  23
ENDBRANCH   4  22
TORSDOF 8
ENDMDL
MODEL 9
REMARK VINA RESULT:    -6.745      5.584      6.800
REMARK INTER + INTRA:         -10.597
REMARK INTER:                  -9.332
REMARK INTRA:                  -1.265
REMARK UNBOUND:                -0.894
REMARK  Name = 
REMARK  8 active torsions:
REMARK  status: ('A' for Active; 'I' for Inactive)
REMARK    1  A    between atoms: N_1  and  C_2
REMARK    2  A    between atoms: C_2  and  C_3
REMARK    3  A    between atoms: C_2  and  C_27
REMARK    4  A    between atoms: C_3  and  N_4
REMARK    5  A    between atoms: C_5  and  C_7
REMARK    6  A    between atoms: C_10  and  C_11
REMARK    7  A    between atoms: C_11  and  N_12
REMARK    8  A    between atoms: C_13  and  C_15
REMARK                            x       y       z     vdW  Elec       q    Type
REMARK                         _______ _______ _______ _____ _____    ______ ____
ROOT
ATOM      1  C   UNL     1      46.961   7.037  12.704  0.00  0.00    +0.000 A 
ATOM      2  C   UNL     1      48.335   6.795  12.811  0.00  0.00    +0.000 A 
ATOM      3  C   UNL     1      49.247   7.838  12.603  0.00  0.00    +0.000 A 
ATOM      4  C   UNL     1      48.798   9.132  12.299  0.00  0.00    +0.000 A 
ATOM      5  C   UNL     1      47.422   9.353  12.152  0.00  0.00    +0.000 A 
ATOM      6  C   UNL     1      46.510   8.314  12.352  0.00  0.00    +0.000 A 
ENDROOT
BRANCH   1   8
ATOM      7  N   UNL     1      44.627   6.340  12.915  0.00  0.00    +0.000 N 
ATOM      8  C   UNL     1      45.953   5.957  12.900  0.00  0.00    +0.000 C 
ATOM      9  O   UNL     1      46.315   4.792  13.008  0.00  0.00    +0.000 OA
ATOM     10  H   UNL     1      44.365   7.222  12.490  0.00  0.00    +0.000 HD
BRANCH   7  11
ATOM     11  C   UNL     1      43.585   5.325  12.986  0.00  0.00    +0.000 C 
BRANCH  11  12
ATOM     12  C   UNL     1      42.811   5.171  11.655  0.00  0.00    +0.000 C 
BRANCH  12  13
ATOM     13  C   UNL     1      43.539   4.290  10.697  0.00  0.00    +0.000 A 
ATOM     14  C   UNL     1      44.019   2.998  10.791  0.00  0.00    +0.000 A 
ATOM     15  C   UNL     1      44.590   2.729   9.534  0.00  0.00    +0.000 A 
ATOM     16  N   UNL     1      44.489   3.765   8.702  0.00  0.00    +0.000 NA
ATOM     17  N   UNL     1      43.840   4.695   9.422  0.00  0.00    +0.000 N 
ATOM     18  H   UNL     1      43.639   5.585   8.979  0.00  0.00    +0.000 HD
ENDBRANCH  12  13
BRANCH  12  19
ATOM     19  N   UNL     1      42.575   6.480  11.032  0.00  0.00    +0.000 NA
ATOM     20  H   UNL     1      42.098   6.338  10.141  0.00  0.00    +0.000 HD
ATOM     21  H   UNL     1      43.477   6.891  10.788  0.00  0.00    +0.000 HD
ENDBRANCH  12  19
ENDBRANCH  11  12
ENDBRANCH   7  11
ENDBRANCH   1   8
BRANCH   4  22
ATOM     22  C   UNL     1      49.773  10.265  12.100  0.00  0.00    +0.000 C 
BRANCH  22  23
ATOM     23  N   UNL     1      51.051   9.792  11.641  0.00  0.00    +0.000 N 
ATOM     24  C   UNL     1      51.599  10.267  10.473  0.00  0.00    +0.000 C 
ATOM     25  O   UNL     1      51.051  11.143   9.809  0.00  0.00    +0.000 OA
ATOM     26  H   UNL     1      51.391   8.918  12.028  0.00  0.00    +0.000 HD
BRANCH  24  27
ATOM     27  C   UNL     1      52.907   9.721  10.089  0.00  0.00    +0.000 A 
ATOM     28  C   UNL     1      53.965  10.586   9.839  0.00  0.00    +0.000 A 
ATOM     29  S   UNL     1      55.425   9.788   9.465  0.00  0.00    +0.000 S 
ATOM     30  C   UNL     1      54.682   8.260   9.567  0.00  0.00    +0.000 A 
ATOM     31  N   UNL     1      55.387   7.121   9.330  0.00  0.00    +0.000 NA
ATOM     32  C   UNL     1      54.690   6.039   9.408  0.00  0.00    +0.000 A 
ATOM     33  N   UNL     1      53.352   5.988   9.706  0.00  0.00    +0.000 N 
ATOM     34  C   UNL     1      52.607   7.110   9.980  0.00  0.00    +0.000 A 
ATOM     35  O   UNL     1      51.420   7.030  10.281  0.00  0.00    +0.000 OA
ATOM     36  C   UNL     1      53.341   8.358   9.898  0.00  0.00    +0.000 A 
ATOM     37  H   UNL     1      52.865   5.106   9.757  0.00  0.00    +0.000 HD
ENDBRANCH  24  27
ENDBRANCH  22  23
ENDBRANCH   4  22
TORSDOF 8
ENDMDL
