MODEL 1
REMARK VINA RESULT:    -8.332      0.000      0.000
REMARK INTER + INTRA:         -12.243
REMARK INTER:                 -11.255
REMARK INTRA:                  -0.988
REMARK UNBOUND:                -0.988
REMARK  Name = 
REMARK  7 active torsions:
REMARK  status: ('A' for Active; 'I' for Inactive)
REMARK    1  A    between atoms: C_1  and  O_2
REMARK    2  A    between atoms: O_2  and  C_3
REMARK    3  A    between atoms: C_7  and  C_8
REMARK    4  A    between atoms: C_8  and  C_9
REMARK    5  A    between atoms: C_12  and  C_13
REMARK    6  A    between atoms: C_13  and  N_14
REMARK    7  A    between atoms: C_15  and  C_17
REMARK                            x       y       z     vdW  Elec       q    Type
REMARK                         _______ _______ _______ _____ _____    ______ ____
ROOT
ATOM      1  C   UNL     1      44.976   4.621  10.201  0.00  0.00    +0.000 A 
ATOM      2  N   UNL     1      45.909   5.521   9.773  0.00  0.00    +0.000 NA
ATOM      3  C   UNL     1      46.357   6.437  10.660  0.00  0.00    +0.000 A 
ATOM      4  C   UNL     1      45.914   6.522  11.974  0.00  0.00    +0.000 A 
ATOM      5  C   UNL     1      45.011   5.551  12.414  0.00  0.00    +0.000 A 
ATOM      6  C   UNL     1      44.530   4.590  11.524  0.00  0.00    +0.000 A 
ATOM      7 CL   UNL     1      43.392   3.436  12.110  0.00  0.00    +0.000 Cl
ENDROOT
BRANCH   1   8
ATOM      8  C   UNL     1      44.354   3.764   9.116  0.00  0.00    +0.000 C 
BRANCH   8  13
ATOM      9  C   UNL     1      46.722   1.161   7.610  0.00  0.00    +0.000 A 
ATOM     10  C   UNL     1      47.188   1.842   6.484  0.00  0.00    +0.000 A 
ATOM     11  C   UNL     1      46.794   3.160   6.250  0.00  0.00    +0.000 A 
ATOM     12  C   UNL     1      45.916   3.793   7.126  0.00  0.00    +0.000 A 
ATOM     13  C   UNL     1      45.405   3.112   8.240  0.00  0.00    +0.000 A 
ATOM     14  C   UNL     1      45.839   1.801   8.485  0.00  0.00    +0.000 A 
BRANCH   9  16
ATOM     15  C   UNL     1      46.421  -1.160   7.209  0.00  0.00    +0.000 C 
ATOM     16  O   UNL     1      47.043  -0.124   7.957  0.00  0.00    +0.000 OA
ENDBRANCH   9  16
ENDBRANCH   8  13
ENDBRANCH   1   8
BRANCH   4  17
ATOM     17  C   UNL     1      46.403   7.611  12.878  0.00  0.00    +0.000 C 
BRANCH  17  18
ATOM     18  N   UNL     1      46.979   7.076  14.081  0.00  0.00    +0.000 N 
ATOM     19  C   UNL     1      48.288   6.678  14.155  0.00  0.00    +0.000 C 
ATOM     20  O   UNL     1      49.052   6.767  13.198  0.00  0.00    +0.000 OA
ATOM     21  H   UNL     1      46.334   6.814  14.819  0.00  0.00    +0.000 HD
BRANCH  19  22
ATOM     22  C   UNL     1      48.747   6.199  15.464  0.00  0.00    +0.000 A 
ATOM     23  C   UNL     1      49.764   6.877  16.121  0.00  0.00    +0.000 A 
ATOM     24  S   UNL     1      50.139   6.230  17.653  0.00  0.00    +0.000 S 
ATOM     25  C   UNL     1      48.989   4.989  17.471  0.00  0.00    +0.000 A 
ATOM     26  N   UNL     1      48.814   4.053  18.441  0.00  0.00    +0.000 NA
ATOM     27  C   UNL     1      47.941   3.145  18.154  0.00  0.00    +0.000 A 
ATOM     28  N   UNL     1      47.220   3.095  16.990  0.00  0.00    +0.000 N 
ATOM     29  C   UNL     1      47.315   4.055  16.010  0.00  0.00    +0.000 A 
ATOM     30  O   UNL     1      46.582   4.037  15.028  0.00  0.00    +0.000 OA
ATOM     31  C   UNL     1      48.314   5.078  16.266  0.00  0.00    +0.000 A 
ATOM     32  H   UNL     1      46.537   2.367  16.838  0.00  0.00    +0.000 HD
ENDBRANCH  19  22
ENDBRANCH  17  18
ENDBRANCH   4  17
TORSDOF 6
ENDMDL
MODEL 2
REMARK VINA RESULT:    -8.217      1.251      1.736
REMARK INTER + INTRA:         -12.088
REMARK INTER:                 -11.325
REMARK INTRA:                  -0.763
REMARK UNBOUND:                -0.988
REMARK  Name = 
REMARK  7 active torsions:
REMARK  status: ('A' for Active; 'I' for Inactive)
REMARK    1  A    between atoms: C_1  and  O_2
REMARK    2  A    between atoms: O_2  and  C_3
REMARK    3  A    between atoms: C_7  and  C_8
REMARK    4  A    between atoms: C_8  and  C_9
REMARK    5  A    between atoms: C_12  and  C_13
REMARK    6  A    between atoms: C_13  and  N_14
REMARK    7  A    between atoms: C_15  and  C_17
REMARK                            x       y       z     vdW  Elec       q    Type
REMARK                         _______ _______ _______ _____ _____    ______ ____
ROOT
ATOM      1  C   UNL     1      44.604   5.304  10.932  0.00  0.00    +0.000 A 
ATOM      2  N   UNL     1      45.818   5.706  10.456  0.00  0.00    +0.000 NA
ATOM      3  C   UNL     1      46.547   6.552  11.217  0.00  0.00    +0.000 A 
ATOM      4  C   UNL     1      46.126   7.043  12.447  0.00  0.00    +0.000 A 
ATOM      5  C   UNL     1      44.913   6.568  12.951  0.00  0.00    +0.000 A 
ATOM      6  C   UNL     1      44.137   5.693  12.190  0.00  0.00    +0.000 A 
ATOM      7 CL   UNL     1      42.632   5.163  12.844  0.00  0.00    +0.000 Cl
ENDROOT
BRANCH   1   8
ATOM      8  C   UNL     1      43.742   4.537   9.950  0.00  0.00    +0.000 C 
BRANCH   8  13
ATOM      9  C   UNL     1      46.067   3.208   7.215  0.00  0.00    +0.000 A 
ATOM     10  C   UNL     1      46.258   1.893   7.640  0.00  0.00    +0.000 A 
ATOM     11  C   UNL     1      45.585   1.416   8.766  0.00  0.00    +0.000 A 
ATOM     12  C   UNL     1      44.738   2.258   9.483  0.00  0.00    +0.000 A 
ATOM     13  C   UNL     1      44.565   3.594   9.093  0.00  0.00    +0.000 A 
ATOM     14  C   UNL     1      45.217   4.050   7.939  0.00  0.00    +0.000 A 
BRANCH   9  16
ATOM     15  C   UNL     1      47.382   2.927   5.257  0.00  0.00    +0.000 C 
ATOM     16  O   UNL     1      46.657   3.789   6.124  0.00  0.00    +0.000 OA
ENDBRANCH   9  16
ENDBRANCH   8  13
ENDBRANCH   1   8
BRANCH   4  17
ATOM     17  C   UNL     1      46.957   8.036  13.200  0.00  0.00    +0.000 C 
BRANCH  17  18
ATOM     18  N   UNL     1      47.410   7.497  14.453  0.00  0.00    +0.000 N 
ATOM     19  C   UNL     1      48.572   6.781  14.569  0.00  0.00    +0.000 C 
ATOM     20  O   UNL     1      49.304   6.567  13.608  0.00  0.00    +0.000 OA
ATOM     21  H   UNL     1      46.741   7.493  15.216  0.00  0.00    +0.000 HD
BRANCH  19  22
ATOM     22  C   UNL     1      48.929   6.339  15.922  0.00  0.00    +0.000 A 
ATOM     23  C   UNL     1      49.809   7.100  16.679  0.00  0.00    +0.000 A 
ATOM     24  S   UNL     1      50.074   6.483  18.246  0.00  0.00    +0.000 S 
ATOM     25  C   UNL     1      49.060   5.149  17.951  0.00  0.00    +0.000 A 
ATOM     26  N   UNL     1      48.863   4.197  18.902  0.00  0.00    +0.000 NA
ATOM     27  C   UNL     1      48.107   3.219  18.530  0.00  0.00    +0.000 A 
ATOM     28  N   UNL     1      47.520   3.111  17.296  0.00  0.00    +0.000 N 
ATOM     29  C   UNL     1      47.636   4.079  16.327  0.00  0.00    +0.000 A 
ATOM     30  O   UNL     1      47.015   4.001  15.272  0.00  0.00    +0.000 OA
ATOM     31  C   UNL     1      48.510   5.183  16.681  0.00  0.00    +0.000 A 
ATOM     32  H   UNL     1      46.922   2.327  17.078  0.00  0.00    +0.000 HD
ENDBRANCH  19  22
ENDBRANCH  17  18
ENDBRANCH   4  17
TORSDOF 6
ENDMDL
MODEL 3
REMARK VINA RESULT:    -7.707      3.427      5.342
REMARK INTER + INTRA:         -11.398
REMARK INTER:                 -10.147
REMARK INTRA:                  -1.251
REMARK UNBOUND:                -0.988
REMARK  Name = 
REMARK  7 active torsions:
REMARK  status: ('A' for Active; 'I' for Inactive)
REMARK    1  A    between atoms: C_1  and  O_2
REMARK    2  A    between atoms: O_2  and  C_3
REMARK    3  A    between atoms: C_7  and  C_8
REMARK    4  A    between atoms: C_8  and  C_9
REMARK    5  A    between atoms: C_12  and  C_13
REMARK    6  A    between atoms: C_13  and  N_14
REMARK    7  A    between atoms: C_15  and  C_17
REMARK                            x       y       z     vdW  Elec       q    Type
REMARK                         _______ _______ _______ _____ _____    ______ ____
ROOT
ATOM      1  C   UNL     1      46.931   4.327  14.215  0.00  0.00    +0.000 A 
ATOM      2  N   UNL     1      46.910   3.714  15.435  0.00  0.00    +0.000 NA
ATOM      3  C   UNL     1      47.567   4.312  16.454  0.00  0.00    +0.000 A 
ATOM      4  C   UNL     1      48.269   5.504  16.327  0.00  0.00    +0.000 A 
ATOM      5  C   UNL     1      48.222   6.153  15.091  0.00  0.00    +0.000 A 
ATOM      6  C   UNL     1      47.551   5.563  14.019  0.00  0.00    +0.000 A 
ATOM      7 CL   UNL     1      47.552   6.389  12.506  0.00  0.00    +0.000 Cl
ENDROOT
BRANCH   1   8
ATOM      8  C   UNL     1      46.368   3.511  13.069  0.00  0.00    +0.000 C 
BRANCH   8  13
ATOM      9  C   UNL     1      43.734   4.667  10.544  0.00  0.00    +0.000 A 
ATOM     10  C   UNL     1      42.739   5.148  11.396  0.00  0.00    +0.000 A 
ATOM     11  C   UNL     1      42.945   5.163  12.776  0.00  0.00    +0.000 A 
ATOM     12  C   UNL     1      44.136   4.677  13.310  0.00  0.00    +0.000 A 
ATOM     13  C   UNL     1      45.131   4.153  12.472  0.00  0.00    +0.000 A 
ATOM     14  C   UNL     1      44.927   4.178  11.086  0.00  0.00    +0.000 A 
BRANCH   9  16
ATOM     15  C   UNL     1      44.742   3.985   8.505  0.00  0.00    +0.000 C 
ATOM     16  O   UNL     1      43.658   4.612   9.178  0.00  0.00    +0.000 OA
ENDBRANCH   9  16
ENDBRANCH   8  13
ENDBRANCH   1   8
BRANCH   4  17
ATOM     17  C   UNL     1      49.034   6.069  17.484  0.00  0.00    +0.000 C 
BRANCH  17  18
ATOM     18  N   UNL     1      50.087   5.182  17.900  0.00  0.00    +0.000 N 
ATOM     19  C   UNL     1      51.359   5.267  17.399  0.00  0.00    +0.000 C 
ATOM     20  O   UNL     1      51.679   6.116  16.572  0.00  0.00    +0.000 OA
ATOM     21  H   UNL     1      49.811   4.362  18.429  0.00  0.00    +0.000 HD
BRANCH  19  22
ATOM     22  C   UNL     1      52.339   4.327  17.956  0.00  0.00    +0.000 A 
ATOM     23  C   UNL     1      53.442   4.817  18.641  0.00  0.00    +0.000 A 
ATOM     24  S   UNL     1      54.451   3.597  19.274  0.00  0.00    +0.000 S 
ATOM     25  C   UNL     1      53.474   2.370  18.612  0.00  0.00    +0.000 A 
ATOM     26  N   UNL     1      53.798   1.059  18.771  0.00  0.00    +0.000 NA
ATOM     27  C   UNL     1      52.996   0.237  18.181  0.00  0.00    +0.000 A 
ATOM     28  N   UNL     1      51.894   0.607  17.454  0.00  0.00    +0.000 N 
ATOM     29  C   UNL     1      51.492   1.914  17.320  0.00  0.00    +0.000 A 
ATOM     30  O   UNL     1      50.444   2.203  16.751  0.00  0.00    +0.000 OA
ATOM     31  C   UNL     1      52.383   2.883  17.933  0.00  0.00    +0.000 A 
ATOM     32  H   UNL     1      51.297  -0.091  17.034  0.00  0.00    +0.000 HD
ENDBRANCH  19  22
ENDBRANCH  17  18
ENDBRANCH   4  17
TORSDOF 6
ENDMDL
MODEL 4
REMARK VINA RESULT:    -7.643      2.898      3.802
REMARK INTER + INTRA:         -11.312
REMARK INTER:                 -10.337
REMARK INTRA:                  -0.974
REMARK UNBOUND:                -0.988
REMARK  Name = 
REMARK  7 active torsions:
REMARK  status: ('A' for Active; 'I' for Inactive)
REMARK    1  A    between atoms: C_1  and  O_2
REMARK    2  A    between atoms: O_2  and  C_3
REMARK    3  A    between atoms: C_7  and  C_8
REMARK    4  A    between atoms: C_8  and  C_9
REMARK    5  A    between atoms: C_12  and  C_13
REMARK    6  A    between atoms: C_13  and  N_14
REMARK    7  A    between atoms: C_15  and  C_17
REMARK                            x       y       z     vdW  Elec       q    Type
REMARK                         _______ _______ _______ _____ _____    ______ ____
ROOT
ATOM      1  C   UNL     1      44.954   5.744  11.934  0.00  0.00    +0.000 A 
ATOM      2  N   UNL     1      45.583   4.733  12.601  0.00  0.00    +0.000 NA
ATOM      3  C   UNL     1      46.652   5.049  13.366  0.00  0.00    +0.000 A 
ATOM      4  C   UNL     1      47.151   6.338  13.501  0.00  0.00    +0.000 A 
ATOM      5  C   UNL     1      46.454   7.370  12.867  0.00  0.00    +0.000 A 
ATOM      6  C   UNL     1      45.346   7.078  12.072  0.00  0.00    +0.000 A 
ATOM      7 CL   UNL     1      44.541   8.384  11.286  0.00  0.00    +0.000 Cl
ENDROOT
BRANCH   1   8
ATOM      8  C   UNL     1      43.906   5.307  10.930  0.00  0.00    +0.000 C 
BRANCH   8  13
ATOM      9  C   UNL     1      45.856   3.655   8.081  0.00  0.00    +0.000 A 
ATOM     10  C   UNL     1      45.608   2.305   8.333  0.00  0.00    +0.000 A 
ATOM     11  C   UNL     1      44.759   1.932   9.377  0.00  0.00    +0.000 A 
ATOM     12  C   UNL     1      44.175   2.905  10.184  0.00  0.00    +0.000 A 
ATOM     13  C   UNL     1      44.444   4.264   9.970  0.00  0.00    +0.000 A 
ATOM     14  C   UNL     1      45.268   4.627   8.896  0.00  0.00    +0.000 A 
BRANCH   9  16
ATOM     15  C   UNL     1      46.867   3.303   5.960  0.00  0.00    +0.000 C 
ATOM     16  O   UNL     1      46.655   4.148   7.084  0.00  0.00    +0.000 OA
ENDBRANCH   9  16
ENDBRANCH   8  13
ENDBRANCH   1   8
BRANCH   4  17
ATOM     17  C   UNL     1      48.385   6.601  14.307  0.00  0.00    +0.000 C 
BRANCH  17  18
ATOM     18  N   UNL     1      48.094   6.639  15.714  0.00  0.00    +0.000 N 
ATOM     19  C   UNL     1      48.955   6.143  16.657  0.00  0.00    +0.000 C 
ATOM     20  O   UNL     1      50.036   5.646  16.356  0.00  0.00    +0.000 OA
ATOM     21  H   UNL     1      47.140   6.865  15.977  0.00  0.00    +0.000 HD
BRANCH  19  22
ATOM     22  C   UNL     1      48.544   6.299  18.057  0.00  0.00    +0.000 A 
ATOM     23  C   UNL     1      48.597   5.205  18.910  0.00  0.00    +0.000 A 
ATOM     24  S   UNL     1      48.142   5.565  20.513  0.00  0.00    +0.000 S 
ATOM     25  C   UNL     1      47.810   7.185  20.113  0.00  0.00    +0.000 A 
ATOM     26  N   UNL     1      47.351   8.056  21.051  0.00  0.00    +0.000 NA
ATOM     27  C   UNL     1      47.099   9.240  20.602  0.00  0.00    +0.000 A 
ATOM     28  N   UNL     1      47.275   9.636  19.301  0.00  0.00    +0.000 N 
ATOM     29  C   UNL     1      47.798   8.811  18.334  0.00  0.00    +0.000 A 
ATOM     30  O   UNL     1      48.039   9.227  17.205  0.00  0.00    +0.000 OA
ATOM     31  C   UNL     1      48.061   7.454  18.779  0.00  0.00    +0.000 A 
ATOM     32  H   UNL     1      47.076  10.585  19.021  0.00  0.00    +0.000 HD
ENDBRANCH  19  22
ENDBRANCH  17  18
ENDBRANCH   4  17
TORSDOF 6
ENDMDL
MODEL 5
REMARK VINA RESULT:    -7.482      4.464      8.315
REMARK INTER + INTRA:         -11.094
REMARK INTER:                  -9.766
REMARK INTRA:                  -1.328
REMARK UNBOUND:                -0.988
REMARK  Name = 
REMARK  7 active torsions:
REMARK  status: ('A' for Active; 'I' for Inactive)
REMARK    1  A    between atoms: C_1  and  O_2
REMARK    2  A    between atoms: O_2  and  C_3
REMARK    3  A    between atoms: C_7  and  C_8
REMARK    4  A    between atoms: C_8  and  C_9
REMARK    5  A    between atoms: C_12  and  C_13
REMARK    6  A    between atoms: C_13  and  N_14
REMARK    7  A    between atoms: C_15  and  C_17
REMARK                            x       y       z     vdW  Elec       q    Type
REMARK                         _______ _______ _______ _____ _____    ______ ____
ROOT
ATOM      1  C   UNL     1      50.761   6.262  17.865  0.00  0.00    +0.000 A 
ATOM      2  N   UNL     1      51.382   6.572  16.689  0.00  0.00    +0.000 NA
ATOM      3  C   UNL     1      50.662   7.217  15.746  0.00  0.00    +0.000 A 
ATOM      4  C   UNL     1      49.327   7.571  15.899  0.00  0.00    +0.000 A 
ATOM      5  C   UNL     1      48.728   7.309  17.134  0.00  0.00    +0.000 A 
ATOM      6  C   UNL     1      49.444   6.646  18.130  0.00  0.00    +0.000 A 
ATOM      7 CL   UNL     1      48.647   6.317  19.623  0.00  0.00    +0.000 Cl
ENDROOT
BRANCH   1   8
ATOM      8  C   UNL     1      51.544   5.355  18.794  0.00  0.00    +0.000 C 
BRANCH   8  13
ATOM      9  C   UNL     1      50.533   2.118  17.018  0.00  0.00    +0.000 A 
ATOM     10  C   UNL     1      51.663   1.329  17.236  0.00  0.00    +0.000 A 
ATOM     11  C   UNL     1      52.717   1.813  18.012  0.00  0.00    +0.000 A 
ATOM     12  C   UNL     1      52.656   3.096  18.552  0.00  0.00    +0.000 A 
ATOM     13  C   UNL     1      51.546   3.918  18.309  0.00  0.00    +0.000 A 
ATOM     14  C   UNL     1      50.478   3.406  17.560  0.00  0.00    +0.000 A 
BRANCH   9  16
ATOM     15  C   UNL     1      48.285   2.585  16.410  0.00  0.00    +0.000 C 
ATOM     16  O   UNL     1      49.433   1.755  16.289  0.00  0.00    +0.000 OA
ENDBRANCH   9  16
ENDBRANCH   8  13
ENDBRANCH   1   8
BRANCH   4  17
ATOM     17  C   UNL     1      48.574   8.220  14.779  0.00  0.00    +0.000 C 
BRANCH  17  18
ATOM     18  N   UNL     1      47.533   7.363  14.282  0.00  0.00    +0.000 N 
ATOM     19  C   UNL     1      47.762   6.404  13.331  0.00  0.00    +0.000 C 
ATOM     20  O   UNL     1      48.877   6.212  12.855  0.00  0.00    +0.000 OA
ATOM     21  H   UNL     1      46.579   7.622  14.511  0.00  0.00    +0.000 HD
BRANCH  19  22
ATOM     22  C   UNL     1      46.612   5.572  12.958  0.00  0.00    +0.000 A 
ATOM     23  C   UNL     1      46.662   4.202  13.176  0.00  0.00    +0.000 A 
ATOM     24  S   UNL     1      45.227   3.389  12.744  0.00  0.00    +0.000 S 
ATOM     25  C   UNL     1      44.507   4.833  12.204  0.00  0.00    +0.000 A 
ATOM     26  N   UNL     1      43.252   4.833  11.679  0.00  0.00    +0.000 NA
ATOM     27  C   UNL     1      42.846   5.988  11.269  0.00  0.00    +0.000 A 
ATOM     28  N   UNL     1      43.577   7.145  11.345  0.00  0.00    +0.000 N 
ATOM     29  C   UNL     1      44.821   7.206  11.926  0.00  0.00    +0.000 A 
ATOM     30  O   UNL     1      45.404   8.275  12.071  0.00  0.00    +0.000 OA
ATOM     31  C   UNL     1      45.341   5.924  12.368  0.00  0.00    +0.000 A 
ATOM     32  H   UNL     1      43.189   8.020  11.023  0.00  0.00    +0.000 HD
ENDBRANCH  19  22
ENDBRANCH  17  18
ENDBRANCH   4  17
TORSDOF 6
ENDMDL
MODEL 6
REMARK VINA RESULT:    -7.088      3.635      8.513
REMARK INTER + INTRA:         -10.562
REMARK INTER:                  -9.369
REMARK INTRA:                  -1.193
REMARK UNBOUND:                -0.988
REMARK  Name = 
REMARK  7 active torsions:
REMARK  status: ('A' for Active; 'I' for Inactive)
REMARK    1  A    between atoms: C_1  and  O_2
REMARK    2  A    between atoms: O_2  and  C_3
REMARK    3  A    between atoms: C_7  and  C_8
REMARK    4  A    between atoms: C_8  and  C_9
REMARK    5  A    between atoms: C_12  and  C_13
REMARK    6  A    between atoms: C_13  and  N_14
REMARK    7  A    between atoms: C_15  and  C_17
REMARK                            x       y       z     vdW  Elec       q    Type
REMARK                         _______ _______ _______ _____ _____    ______ ____
ROOT
ATOM      1  C   UNL     1      49.410   7.816  15.552  0.00  0.00    +0.000 A 
ATOM      2  N   UNL     1      49.778   7.020  14.505  0.00  0.00    +0.000 NA
ATOM      3  C   UNL     1      49.058   7.104  13.365  0.00  0.00    +0.000 A 
ATOM      4  C   UNL     1      47.961   7.941  13.202  0.00  0.00    +0.000 A 
ATOM      5  C   UNL     1      47.642   8.798  14.258  0.00  0.00    +0.000 A 
ATOM      6  C   UNL     1      48.366   8.738  15.449  0.00  0.00    +0.000 A 
ATOM      7 CL   UNL     1      47.909   9.794  16.733  0.00  0.00    +0.000 Cl
ENDROOT
BRANCH   1   8
ATOM      8  C   UNL     1      50.110   7.526  16.865  0.00  0.00    +0.000 C 
BRANCH   8  13
ATOM      9  C   UNL     1      50.288   3.876  18.002  0.00  0.00    +0.000 A 
ATOM     10  C   UNL     1      49.067   3.741  18.663  0.00  0.00    +0.000 A 
ATOM     11  C   UNL     1      48.160   4.801  18.682  0.00  0.00    +0.000 A 
ATOM     12  C   UNL     1      48.480   6.006  18.061  0.00  0.00    +0.000 A 
ATOM     13  C   UNL     1      49.719   6.174  17.427  0.00  0.00    +0.000 A 
ATOM     14  C   UNL     1      50.605   5.089  17.382  0.00  0.00    +0.000 A 
BRANCH   9  16
ATOM     15  C   UNL     1      50.891   1.715  17.224  0.00  0.00    +0.000 C 
ATOM     16  O   UNL     1      51.254   2.910  17.902  0.00  0.00    +0.000 OA
ENDBRANCH   9  16
ENDBRANCH   8  13
ENDBRANCH   1   8
BRANCH   4  17
ATOM     17  C   UNL     1      47.167   7.925  11.933  0.00  0.00    +0.000 C 
BRANCH  17  18
ATOM     18  N   UNL     1      46.544   6.648  11.720  0.00  0.00    +0.000 N 
ATOM     19  C   UNL     1      45.186   6.498  11.627  0.00  0.00    +0.000 C 
ATOM     20  O   UNL     1      44.418   7.453  11.709  0.00  0.00    +0.000 OA
ATOM     21  H   UNL     1      47.131   5.828  11.838  0.00  0.00    +0.000 HD
BRANCH  19  22
ATOM     22  C   UNL     1      44.699   5.140  11.358  0.00  0.00    +0.000 A 
ATOM     23  C   UNL     1      43.931   4.488  12.313  0.00  0.00    +0.000 A 
ATOM     24  S   UNL     1      43.397   2.945  11.823  0.00  0.00    +0.000 S 
ATOM     25  C   UNL     1      44.216   3.073  10.337  0.00  0.00    +0.000 A 
ATOM     26  N   UNL     1      44.184   2.058   9.433  0.00  0.00    +0.000 NA
ATOM     27  C   UNL     1      44.883   2.269   8.368  0.00  0.00    +0.000 A 
ATOM     28  N   UNL     1      45.602   3.410   8.120  0.00  0.00    +0.000 N 
ATOM     29  C   UNL     1      45.611   4.488   8.973  0.00  0.00    +0.000 A 
ATOM     30  O   UNL     1      46.180   5.532   8.674  0.00  0.00    +0.000 OA
ATOM     31  C   UNL     1      44.871   4.285  10.206  0.00  0.00    +0.000 A 
ATOM     32  H   UNL     1      46.112   3.518   7.255  0.00  0.00    +0.000 HD
ENDBRANCH  19  22
ENDBRANCH  17  18
ENDBRANCH   4  17
TORSDOF 6
ENDMDL
MODEL 7
REMARK VINA RESULT:    -7.069      1.524      2.385
REMARK INTER + INTRA:         -10.537
REMARK INTER:                  -9.510
REMARK INTRA:                  -1.028
REMARK UNBOUND:                -0.988
REMARK  Name = 
REMARK  7 active torsions:
REMARK  status: ('A' for Active; 'I' for Inactive)
REMARK    1  A    between atoms: C_1  and  O_2
REMARK    2  A    between atoms: O_2  and  C_3
REMARK    3  A    between atoms: C_7  and  C_8
REMARK    4  A    between atoms: C_8  and  C_9
REMARK    5  A    between atoms: C_12  and  C_13
REMARK    6  A    between atoms: C_13  and  N_14
REMARK    7  A    between atoms: C_15  and  C_17
REMARK                            x       y       z     vdW  Elec       q    Type
REMARK                         _______ _______ _______ _____ _____    ______ ____
ROOT
ATOM      1  C   UNL     1      45.093   4.682   9.649  0.00  0.00    +0.000 A 
ATOM      2  N   UNL     1      46.047   5.640   9.456  0.00  0.00    +0.000 NA
ATOM      3  C   UNL     1      46.408   6.394  10.518  0.00  0.00    +0.000 A 
ATOM      4  C   UNL     1      45.858   6.257  11.786  0.00  0.00    +0.000 A 
ATOM      5  C   UNL     1      44.935   5.227  11.982  0.00  0.00    +0.000 A 
ATOM      6  C   UNL     1      44.541   4.430  10.907  0.00  0.00    +0.000 A 
ATOM      7 CL   UNL     1      43.374   3.194  11.195  0.00  0.00    +0.000 Cl
ENDROOT
BRANCH   1   8
ATOM      8  C   UNL     1      44.574   4.020   8.388  0.00  0.00    +0.000 C 
BRANCH   8  13
ATOM      9  C   UNL     1      47.285   1.773   6.888  0.00  0.00    +0.000 A 
ATOM     10  C   UNL     1      47.006   0.559   7.518  0.00  0.00    +0.000 A 
ATOM     11  C   UNL     1      45.906   0.448   8.369  0.00  0.00    +0.000 A 
ATOM     12  C   UNL     1      45.096   1.555   8.612  0.00  0.00    +0.000 A 
ATOM     13  C   UNL     1      45.384   2.792   8.020  0.00  0.00    +0.000 A 
ATOM     14  C   UNL     1      46.470   2.881   7.137  0.00  0.00    +0.000 A 
BRANCH   9  16
ATOM     15  C   UNL     1      47.981   2.504   4.738  0.00  0.00    +0.000 C 
ATOM     16  O   UNL     1      48.322   2.005   6.025  0.00  0.00    +0.000 OA
ENDBRANCH   9  16
ENDBRANCH   8  13
ENDBRANCH   1   8
BRANCH   4  17
ATOM     17  C   UNL     1      46.257   7.179  12.897  0.00  0.00    +0.000 C 
BRANCH  17  18
ATOM     18  N   UNL     1      46.514   6.456  14.112  0.00  0.00    +0.000 N 
ATOM     19  C   UNL     1      47.707   5.829  14.356  0.00  0.00    +0.000 C 
ATOM     20  O   UNL     1      48.635   5.857  13.552  0.00  0.00    +0.000 OA
ATOM     21  H   UNL     1      45.713   6.256  14.702  0.00  0.00    +0.000 HD
BRANCH  19  22
ATOM     22  C   UNL     1      47.840   5.173  15.662  0.00  0.00    +0.000 A 
ATOM     23  C   UNL     1      47.328   3.896  15.841  0.00  0.00    +0.000 A 
ATOM     24  S   UNL     1      47.615   3.254  17.394  0.00  0.00    +0.000 S 
ATOM     25  C   UNL     1      48.392   4.682  17.899  0.00  0.00    +0.000 A 
ATOM     26  N   UNL     1      48.872   4.805  19.165  0.00  0.00    +0.000 NA
ATOM     27  C   UNL     1      49.397   5.955  19.428  0.00  0.00    +0.000 A 
ATOM     28  N   UNL     1      49.496   6.990  18.535  0.00  0.00    +0.000 N 
ATOM     29  C   UNL     1      49.084   6.891  17.227  0.00  0.00    +0.000 A 
ATOM     30  O   UNL     1      49.280   7.799  16.427  0.00  0.00    +0.000 OA
ATOM     31  C   UNL     1      48.448   5.629  16.891  0.00  0.00    +0.000 A 
ATOM     32  H   UNL     1      49.937   7.858  18.801  0.00  0.00    +0.000 HD
ENDBRANCH  19  22
ENDBRANCH  17  18
ENDBRANCH   4  17
TORSDOF 6
ENDMDL
MODEL 8
REMARK VINA RESULT:    -6.891      2.704      3.867
REMARK INTER + INTRA:         -10.297
REMARK INTER:                  -9.655
REMARK INTRA:                  -0.641
REMARK UNBOUND:                -0.988
REMARK  Name = 
REMARK  7 active torsions:
REMARK  status: ('A' for Active; 'I' for Inactive)
REMARK    1  A    between atoms: C_1  and  O_2
REMARK    2  A    between atoms: O_2  and  C_3
REMARK    3  A    between atoms: C_7  and  C_8
REMARK    4  A    between atoms: C_8  and  C_9
REMARK    5  A    between atoms: C_12  and  C_13
REMARK    6  A    between atoms: C_13  and  N_14
REMARK    7  A    between atoms: C_15  and  C_17
REMARK                            x       y       z     vdW  Elec       q    Type
REMARK                         _______ _______ _______ _____ _____    ______ ____
ROOT
ATOM      1  C   UNL     1      45.718   5.701  11.863  0.00  0.00    +0.000 A 
ATOM      2  N   UNL     1      44.937   4.859  12.602  0.00  0.00    +0.000 NA
ATOM      3  C   UNL     1      45.426   4.419  13.783  0.00  0.00    +0.000 A 
ATOM      4  C   UNL     1      46.676   4.764  14.279  0.00  0.00    +0.000 A 
ATOM      5  C   UNL     1      47.432   5.680  13.544  0.00  0.00    +0.000 A 
ATOM      6  C   UNL     1      46.957   6.155  12.322  0.00  0.00    +0.000 A 
ATOM      7 CL   UNL     1      47.943   7.259  11.438  0.00  0.00    +0.000 Cl
ENDROOT
BRANCH   1   8
ATOM      8  C   UNL     1      45.217   5.988  10.461  0.00  0.00    +0.000 C 
BRANCH   8  13
ATOM      9  C   UNL     1      46.145   3.549   7.660  0.00  0.00    +0.000 A 
ATOM     10  C   UNL     1      45.493   2.391   8.086  0.00  0.00    +0.000 A 
ATOM     11  C   UNL     1      44.702   2.415   9.235  0.00  0.00    +0.000 A 
ATOM     12  C   UNL     1      44.577   3.589   9.974  0.00  0.00    +0.000 A 
ATOM     13  C   UNL     1      45.257   4.752   9.584  0.00  0.00    +0.000 A 
ATOM     14  C   UNL     1      46.018   4.725   8.407  0.00  0.00    +0.000 A 
BRANCH   9  16
ATOM     15  C   UNL     1      47.352   2.443   5.940  0.00  0.00    +0.000 C 
ATOM     16  O   UNL     1      46.936   3.658   6.548  0.00  0.00    +0.000 OA
ENDBRANCH   9  16
ENDBRANCH   8  13
ENDBRANCH   1   8
BRANCH   4  17
ATOM     17  C   UNL     1      47.179   4.177  15.562  0.00  0.00    +0.000 C 
BRANCH  17  18
ATOM     18  N   UNL     1      47.881   5.155  16.347  0.00  0.00    +0.000 N 
ATOM     19  C   UNL     1      47.592   5.384  17.666  0.00  0.00    +0.000 C 
ATOM     20  O   UNL     1      46.721   4.755  18.261  0.00  0.00    +0.000 OA
ATOM     21  H   UNL     1      48.464   5.814  15.841  0.00  0.00    +0.000 HD
BRANCH  19  22
ATOM     22  C   UNL     1      48.426   6.378  18.351  0.00  0.00    +0.000 A 
ATOM     23  C   UNL     1      47.823   7.355  19.130  0.00  0.00    +0.000 A 
ATOM     24  S   UNL     1      48.932   8.395  19.902  0.00  0.00    +0.000 S 
ATOM     25  C   UNL     1      50.257   7.606  19.181  0.00  0.00    +0.000 A 
ATOM     26  N   UNL     1      51.530   8.025  19.414  0.00  0.00    +0.000 NA
ATOM     27  C   UNL     1      52.434   7.366  18.770  0.00  0.00    +0.000 A 
ATOM     28  N   UNL     1      52.182   6.318  17.922  0.00  0.00    +0.000 N 
ATOM     29  C   UNL     1      50.920   5.819  17.707  0.00  0.00    +0.000 A 
ATOM     30  O   UNL     1      50.740   4.816  17.024  0.00  0.00    +0.000 OA
ATOM     31  C   UNL     1      49.860   6.551  18.378  0.00  0.00    +0.000 A 
ATOM     32  H   UNL     1      52.940   5.833  17.465  0.00  0.00    +0.000 HD
ENDBRANCH  19  22
ENDBRANCH  17  18
ENDBRANCH   4  17
TORSDOF 6
ENDMDL
MODEL 9
REMARK VINA RESULT:    -6.862      2.148      3.042
REMARK INTER + INTRA:         -10.257
REMARK INTER:                  -9.373
REMARK INTRA:                  -0.883
REMARK UNBOUND:                -0.988
REMARK  Name = 
REMARK  7 active torsions:
REMARK  status: ('A' for Active; 'I' for Inactive)
REMARK    1  A    between atoms: C_1  and  O_2
REMARK    2  A    between atoms: O_2  and  C_3
REMARK    3  A    between atoms: C_7  and  C_8
REMARK    4  A    between atoms: C_8  and  C_9
REMARK    5  A    between atoms: C_12  and  C_13
REMARK    6  A    between atoms: C_13  and  N_14
REMARK    7  A    between atoms: C_15  and  C_17
REMARK                            x       y       z     vdW  Elec       q    Type
REMARK                         _______ _______ _______ _____ _____    ______ ____
ROOT
ATOM      1  C   UNL     1      45.292   5.406  11.163  0.00  0.00    +0.000 A 
ATOM      2  N   UNL     1      45.743   6.656  10.849  0.00  0.00    +0.000 NA
ATOM      3  C   UNL     1      46.531   7.288  11.748  0.00  0.00    +0.000 A 
ATOM      4  C   UNL     1      46.897   6.744  12.972  0.00  0.00    +0.000 A 
ATOM      5  C   UNL     1      46.484   5.437  13.248  0.00  0.00    +0.000 A 
ATOM      6  C   UNL     1      45.672   4.757  12.341  0.00  0.00    +0.000 A 
ATOM      7 CL   UNL     1      45.164   3.160  12.744  0.00  0.00    +0.000 Cl
ENDROOT
BRANCH   1   8
ATOM      8  C   UNL     1      44.246   4.838  10.226  0.00  0.00    +0.000 C 
BRANCH   8  13
ATOM      9  C   UNL     1      46.325   3.045   7.559  0.00  0.00    +0.000 A 
ATOM     10  C   UNL     1      46.026   1.711   7.838  0.00  0.00    +0.000 A 
ATOM     11  C   UNL     1      45.104   1.393   8.837  0.00  0.00    +0.000 A 
ATOM     12  C   UNL     1      44.496   2.407   9.575  0.00  0.00    +0.000 A 
ATOM     13  C   UNL     1      44.815   3.751   9.336  0.00  0.00    +0.000 A 
ATOM     14  C   UNL     1      45.714   4.058   8.304  0.00  0.00    +0.000 A 
BRANCH   9  16
ATOM     15  C   UNL     1      47.083   2.892   5.314  0.00  0.00    +0.000 C 
ATOM     16  O   UNL     1      47.198   3.485   6.601  0.00  0.00    +0.000 OA
ENDBRANCH   9  16
ENDBRANCH   8  13
ENDBRANCH   1   8
BRANCH   4  17
ATOM     17  C   UNL     1      47.713   7.534  13.948  0.00  0.00    +0.000 C 
BRANCH  17  18
ATOM     18  N   UNL     1      48.289   6.688  14.957  0.00  0.00    +0.000 N 
ATOM     19  C   UNL     1      48.748   7.177  16.152  0.00  0.00    +0.000 C 
ATOM     20  O   UNL     1      48.684   8.370  16.436  0.00  0.00    +0.000 OA
ATOM     21  H   UNL     1      48.527   5.743  14.678  0.00  0.00    +0.000 HD
BRANCH  19  22
ATOM     22  C   UNL     1      49.263   6.186  17.103  0.00  0.00    +0.000 A 
ATOM     23  C   UNL     1      48.383   5.541  17.961  0.00  0.00    +0.000 A 
ATOM     24  S   UNL     1      49.129   4.379  18.960  0.00  0.00    +0.000 S 
ATOM     25  C   UNL     1      50.664   4.732  18.316  0.00  0.00    +0.000 A 
ATOM     26  N   UNL     1      51.774   4.087  18.765  0.00  0.00    +0.000 NA
ATOM     27  C   UNL     1      52.877   4.483  18.223  0.00  0.00    +0.000 A 
ATOM     28  N   UNL     1      52.969   5.458  17.263  0.00  0.00    +0.000 N 
ATOM     29  C   UNL     1      51.870   6.090  16.732  0.00  0.00    +0.000 A 
ATOM     30  O   UNL     1      51.979   6.883  15.803  0.00  0.00    +0.000 OA
ATOM     31  C   UNL     1      50.607   5.709  17.338  0.00  0.00    +0.000 A 
ATOM     32  H   UNL     1      53.864   5.705  16.866  0.00  0.00    +0.000 HD
ENDBRANCH  19  22
ENDBRANCH  17  18
ENDBRANCH   4  17
TORSDOF 6
ENDMDL
