MODEL 1
REMARK VINA RESULT:    -8.640      0.000      0.000
REMARK INTER + INTRA:         -13.753
REMARK INTER:                 -12.428
REMARK INTRA:                  -1.325
REMARK UNBOUND:                -1.325
REMARK  Name = 
REMARK  8 active torsions:
REMARK  status: ('A' for Active; 'I' for Inactive)
REMARK    1  A    between atoms: C_2  and  C_21
REMARK    2  A    between atoms: N_3  and  C_4
REMARK    3  A    between atoms: C_4  and  C_5
REMARK    4  A    between atoms: C_8  and  C_9
REMARK    5  A    between atoms: C_9  and  O_10
REMARK    6  A    between atoms: C_9  and  C_11
REMARK    7  A    between atoms: C_11  and  C_12
REMARK    8  A    between atoms: C_12  and  C_13
REMARK                            x       y       z     vdW  Elec       q    Type
REMARK                         _______ _______ _______ _____ _____    ______ ____
ROOT
ATOM      1  C   UNL     1      46.018   7.083  12.433  0.00  0.00    +0.000 A 
ATOM      2  C   UNL     1      46.399   6.634  11.168  0.00  0.00    +0.000 A 
ATOM      3  C   UNL     1      45.671   5.614  10.548  0.00  0.00    +0.000 A 
ATOM      4  C   UNL     1      44.559   5.078  11.190  0.00  0.00    +0.000 A 
ATOM      5  N   UNL     1      44.131   5.547  12.392  0.00  0.00    +0.000 NA
ATOM      6  C   UNL     1      44.870   6.522  12.980  0.00  0.00    +0.000 A 
ENDROOT
BRANCH   1   7
ATOM      7  C   UNL     1      46.824   8.106  13.184  0.00  0.00    +0.000 C 
BRANCH   7  10
ATOM      8  O   UNL     1      49.215   6.632  13.322  0.00  0.00    +0.000 OA
ATOM      9  C   UNL     1      48.616   6.894  14.360  0.00  0.00    +0.000 C 
ATOM     10  N   UNL     1      47.428   7.577  14.377  0.00  0.00    +0.000 N 
ATOM     11  H   UNL     1      47.047   7.896  15.260  0.00  0.00    +0.000 HD
BRANCH   9  12
ATOM     12  C   UNL     1      49.117   6.451  15.665  0.00  0.00    +0.000 A 
ATOM     13  C   UNL     1      50.184   7.101  16.268  0.00  0.00    +0.000 A 
ATOM     14  S   UNL     1      50.587   6.461  17.799  0.00  0.00    +0.000 S 
ATOM     15  C   UNL     1      49.334   5.313  17.708  0.00  0.00    +0.000 A 
ATOM     16  N   UNL     1      49.095   4.445  18.732  0.00  0.00    +0.000 NA
ATOM     17  C   UNL     1      48.088   3.661  18.539  0.00  0.00    +0.000 A 
ATOM     18  N   UNL     1      47.309   3.648  17.411  0.00  0.00    +0.000 N 
ATOM     19  C   UNL     1      47.568   4.437  16.320  0.00  0.00    +0.000 A 
ATOM     20  O   UNL     1      46.958   4.282  15.269  0.00  0.00    +0.000 OA
ATOM     21  C   UNL     1      48.646   5.388  16.514  0.00  0.00    +0.000 A 
ATOM     22  H   UNL     1      46.563   2.979  17.301  0.00  0.00    +0.000 HD
ENDBRANCH   9  12
ENDBRANCH   7  10
ENDBRANCH   1   7
BRANCH   4  23
ATOM     23  C   UNL     1      43.766   3.930  10.572  0.00  0.00    +0.000 C 
BRANCH  23  24
ATOM     24  O   UNL     1      42.629   3.642  11.393  0.00  0.00    +0.000 OA
ATOM     25  H   UNL     1      42.964   3.039  12.083  0.00  0.00    +0.000 HD
ENDBRANCH  23  24
BRANCH  23  26
ATOM     26  C   UNL     1      44.616   2.651  10.467  0.00  0.00    +0.000 C 
BRANCH  26  27
ATOM     27  C   UNL     1      44.455   1.946   9.113  0.00  0.00    +0.000 C 
BRANCH  27  28
ATOM     28  C   UNL     1      45.672   2.114   8.232  0.00  0.00    +0.000 A 
ATOM     29  C   UNL     1      45.966   3.337   7.632  0.00  0.00    +0.000 A 
ATOM     30  C   UNL     1      47.101   3.442   6.826  0.00  0.00    +0.000 A 
ATOM     31  C   UNL     1      47.910   2.327   6.643  0.00  0.00    +0.000 A 
ATOM     32  C   UNL     1      47.548   1.151   7.275  0.00  0.00    +0.000 A 
ATOM     33  N   UNL     1      46.452   1.019   8.055  0.00  0.00    +0.000 NA
ENDBRANCH  27  28
ENDBRANCH  26  27
ENDBRANCH  23  26
ENDBRANCH   4  23
TORSDOF 8
ENDMDL
MODEL 2
REMARK VINA RESULT:    -8.512      1.836      2.078
REMARK INTER + INTRA:         -13.569
REMARK INTER:                 -12.582
REMARK INTRA:                  -0.987
REMARK UNBOUND:                -1.325
REMARK  Name = 
REMARK  8 active torsions:
REMARK  status: ('A' for Active; 'I' for Inactive)
REMARK    1  A    between atoms: C_2  and  C_21
REMARK    2  A    between atoms: N_3  and  C_4
REMARK    3  A    between atoms: C_4  and  C_5
REMARK    4  A    between atoms: C_8  and  C_9
REMARK    5  A    between atoms: C_9  and  O_10
REMARK    6  A    between atoms: C_9  and  C_11
REMARK    7  A    between atoms: C_11  and  C_12
REMARK    8  A    between atoms: C_12  and  C_13
REMARK                            x       y       z     vdW  Elec       q    Type
REMARK                         _______ _______ _______ _____ _____    ______ ____
ROOT
ATOM      1  C   UNL     1      47.065   5.766  13.275  0.00  0.00    +0.000 A 
ATOM      2  C   UNL     1      46.577   6.262  12.066  0.00  0.00    +0.000 A 
ATOM      3  C   UNL     1      45.509   5.617  11.434  0.00  0.00    +0.000 A 
ATOM      4  C   UNL     1      44.930   4.504  12.034  0.00  0.00    +0.000 A 
ATOM      5  N   UNL     1      45.345   4.044  13.244  0.00  0.00    +0.000 NA
ATOM      6  C   UNL     1      46.397   4.676  13.823  0.00  0.00    +0.000 A 
ENDROOT
BRANCH   1   7
ATOM      7  C   UNL     1      48.273   6.361  13.944  0.00  0.00    +0.000 C 
BRANCH   7  10
ATOM      8  O   UNL     1      50.279   6.293  15.914  0.00  0.00    +0.000 OA
ATOM      9  C   UNL     1      49.126   6.550  16.246  0.00  0.00    +0.000 C 
ATOM     10  N   UNL     1      48.086   6.569  15.354  0.00  0.00    +0.000 N 
ATOM     11  H   UNL     1      47.184   6.927  15.645  0.00  0.00    +0.000 HD
BRANCH   9  12
ATOM     12  C   UNL     1      48.774   6.817  17.644  0.00  0.00    +0.000 A 
ATOM     13  C   UNL     1      48.392   8.089  18.045  0.00  0.00    +0.000 A 
ATOM     14  S   UNL     1      47.984   8.181  19.700  0.00  0.00    +0.000 S 
ATOM     15  C   UNL     1      48.284   6.520  19.922  0.00  0.00    +0.000 A 
ATOM     16  N   UNL     1      48.092   5.923  21.132  0.00  0.00    +0.000 NA
ATOM     17  C   UNL     1      48.321   4.653  21.139  0.00  0.00    +0.000 A 
ATOM     18  N   UNL     1      48.744   3.926  20.056  0.00  0.00    +0.000 N 
ATOM     19  C   UNL     1      49.038   4.499  18.846  0.00  0.00    +0.000 A 
ATOM     20  O   UNL     1      49.571   3.851  17.953  0.00  0.00    +0.000 OA
ATOM     21  C   UNL     1      48.729   5.914  18.765  0.00  0.00    +0.000 A 
ATOM     22  H   UNL     1      48.949   2.942  20.137  0.00  0.00    +0.000 HD
ENDBRANCH   9  12
ENDBRANCH   7  10
ENDBRANCH   1   7
BRANCH   4  23
ATOM     23  C   UNL     1      43.795   3.741  11.356  0.00  0.00    +0.000 C 
BRANCH  23  24
ATOM     24  O   UNL     1      43.689   2.434  11.932  0.00  0.00    +0.000 OA
ATOM     25  H   UNL     1      43.837   1.819  11.189  0.00  0.00    +0.000 HD
ENDBRANCH  23  24
BRANCH  23  26
ATOM     26  C   UNL     1      44.050   3.578   9.846  0.00  0.00    +0.000 C 
BRANCH  26  27
ATOM     27  C   UNL     1      44.594   2.188   9.488  0.00  0.00    +0.000 C 
BRANCH  27  28
ATOM     28  C   UNL     1      45.633   2.245   8.390  0.00  0.00    +0.000 A 
ATOM     29  C   UNL     1      45.812   3.395   7.625  0.00  0.00    +0.000 A 
ATOM     30  C   UNL     1      46.783   3.397   6.622  0.00  0.00    +0.000 A 
ATOM     31  C   UNL     1      47.548   2.256   6.414  0.00  0.00    +0.000 A 
ATOM     32  C   UNL     1      47.307   1.157   7.218  0.00  0.00    +0.000 A 
ATOM     33  N   UNL     1      46.370   1.124   8.192  0.00  0.00    +0.000 NA
ENDBRANCH  27  28
ENDBRANCH  26  27
ENDBRANCH  23  26
ENDBRANCH   4  23
TORSDOF 8
ENDMDL
MODEL 3
REMARK VINA RESULT:    -8.283      2.350      2.718
REMARK INTER + INTRA:         -13.240
REMARK INTER:                 -12.091
REMARK INTRA:                  -1.148
REMARK UNBOUND:                -1.325
REMARK  Name = 
REMARK  8 active torsions:
REMARK  status: ('A' for Active; 'I' for Inactive)
REMARK    1  A    between atoms: C_2  and  C_21
REMARK    2  A    between atoms: N_3  and  C_4
REMARK    3  A    between atoms: C_4  and  C_5
REMARK    4  A    between atoms: C_8  and  C_9
REMARK    5  A    between atoms: C_9  and  O_10
REMARK    6  A    between atoms: C_9  and  C_11
REMARK    7  A    between atoms: C_11  and  C_12
REMARK    8  A    between atoms: C_12  and  C_13
REMARK                            x       y       z     vdW  Elec       q    Type
REMARK                         _______ _______ _______ _____ _____    ______ ____
ROOT
ATOM      1  C   UNL     1      46.980   5.863  13.440  0.00  0.00    +0.000 A 
ATOM      2  C   UNL     1      46.591   6.323  12.182  0.00  0.00    +0.000 A 
ATOM      3  C   UNL     1      45.558   5.675  11.497  0.00  0.00    +0.000 A 
ATOM      4  C   UNL     1      44.913   4.596  12.093  0.00  0.00    +0.000 A 
ATOM      5  N   UNL     1      45.230   4.174  13.345  0.00  0.00    +0.000 NA
ATOM      6  C   UNL     1      46.251   4.807  13.976  0.00  0.00    +0.000 A 
ENDROOT
BRANCH   1   7
ATOM      7  C   UNL     1      48.148   6.460  14.174  0.00  0.00    +0.000 C 
BRANCH   7  10
ATOM      8  O   UNL     1      50.271   6.189  15.999  0.00  0.00    +0.000 OA
ATOM      9  C   UNL     1      49.122   6.246  16.426  0.00  0.00    +0.000 C 
ATOM     10  N   UNL     1      48.031   6.343  15.603  0.00  0.00    +0.000 N 
ATOM     11  H   UNL     1      47.120   6.534  16.001  0.00  0.00    +0.000 HD
BRANCH   9  12
ATOM     12  C   UNL     1      48.835   6.172  17.861  0.00  0.00    +0.000 A 
ATOM     13  C   UNL     1      49.107   5.013  18.576  0.00  0.00    +0.000 A 
ATOM     14  S   UNL     1      48.740   5.144  20.238  0.00  0.00    +0.000 S 
ATOM     15  C   UNL     1      48.232   6.758  20.055  0.00  0.00    +0.000 A 
ATOM     16  N   UNL     1      47.812   7.492  21.124  0.00  0.00    +0.000 NA
ATOM     17  C   UNL     1      47.496   8.710  20.838  0.00  0.00    +0.000 A 
ATOM     18  N   UNL     1      47.539   9.259  19.583  0.00  0.00    +0.000 N 
ATOM     19  C   UNL     1      47.866   8.534  18.466  0.00  0.00    +0.000 A 
ATOM     20  O   UNL     1      47.733   9.007  17.344  0.00  0.00    +0.000 OA
ATOM     21  C   UNL     1      48.299   7.177  18.741  0.00  0.00    +0.000 A 
ATOM     22  H   UNL     1      47.236  10.206  19.417  0.00  0.00    +0.000 HD
ENDBRANCH   9  12
ENDBRANCH   7  10
ENDBRANCH   1   7
BRANCH   4  23
ATOM     23  C   UNL     1      43.814   3.830  11.361  0.00  0.00    +0.000 C 
BRANCH  23  24
ATOM     24  O   UNL     1      43.709   2.511  11.909  0.00  0.00    +0.000 OA
ATOM     25  H   UNL     1      44.591   2.322  12.280  0.00  0.00    +0.000 HD
ENDBRANCH  23  24
BRANCH  23  26
ATOM     26  C   UNL     1      44.124   3.699   9.858  0.00  0.00    +0.000 C 
BRANCH  26  27
ATOM     27  C   UNL     1      44.528   2.273   9.462  0.00  0.00    +0.000 C 
BRANCH  27  28
ATOM     28  C   UNL     1      45.572   2.255   8.369  0.00  0.00    +0.000 A 
ATOM     29  C   UNL     1      45.801   3.375   7.571  0.00  0.00    +0.000 A 
ATOM     30  C   UNL     1      46.776   3.309   6.574  0.00  0.00    +0.000 A 
ATOM     31  C   UNL     1      47.495   2.132   6.403  0.00  0.00    +0.000 A 
ATOM     32  C   UNL     1      47.207   1.068   7.238  0.00  0.00    +0.000 A 
ATOM     33  N   UNL     1      46.265   1.101   8.207  0.00  0.00    +0.000 NA
ENDBRANCH  27  28
ENDBRANCH  26  27
ENDBRANCH  23  26
ENDBRANCH   4  23
TORSDOF 8
ENDMDL
MODEL 4
REMARK VINA RESULT:    -7.748      1.230      1.514
REMARK INTER + INTRA:         -12.471
REMARK INTER:                 -11.482
REMARK INTRA:                  -0.989
REMARK UNBOUND:                -1.325
REMARK  Name = 
REMARK  8 active torsions:
REMARK  status: ('A' for Active; 'I' for Inactive)
REMARK    1  A    between atoms: C_2  and  C_21
REMARK    2  A    between atoms: N_3  and  C_4
REMARK    3  A    between atoms: C_4  and  C_5
REMARK    4  A    between atoms: C_8  and  C_9
REMARK    5  A    between atoms: C_9  and  O_10
REMARK    6  A    between atoms: C_9  and  C_11
REMARK    7  A    between atoms: C_11  and  C_12
REMARK    8  A    between atoms: C_12  and  C_13
REMARK                            x       y       z     vdW  Elec       q    Type
REMARK                         _______ _______ _______ _____ _____    ______ ____
ROOT
ATOM      1  C   UNL     1      46.464   6.939  12.819  0.00  0.00    +0.000 A 
ATOM      2  C   UNL     1      46.568   5.640  13.316  0.00  0.00    +0.000 A 
ATOM      3  C   UNL     1      45.733   4.637  12.813  0.00  0.00    +0.000 A 
ATOM      4  C   UNL     1      44.827   4.944  11.803  0.00  0.00    +0.000 A 
ATOM      5  N   UNL     1      44.755   6.186  11.257  0.00  0.00    +0.000 NA
ATOM      6  C   UNL     1      45.562   7.144  11.781  0.00  0.00    +0.000 A 
ENDROOT
BRANCH   1   7
ATOM      7  C   UNL     1      47.267   8.072  13.393  0.00  0.00    +0.000 C 
BRANCH   7  10
ATOM      8  O   UNL     1      49.727   7.004  14.240  0.00  0.00    +0.000 OA
ATOM      9  C   UNL     1      48.903   7.344  15.084  0.00  0.00    +0.000 C 
ATOM     10  N   UNL     1      47.669   7.840  14.754  0.00  0.00    +0.000 N 
ATOM     11  H   UNL     1      47.082   8.241  15.476  0.00  0.00    +0.000 HD
BRANCH   9  12
ATOM     12  C   UNL     1      49.172   7.199  16.517  0.00  0.00    +0.000 A 
ATOM     13  C   UNL     1      49.697   8.257  17.247  0.00  0.00    +0.000 A 
ATOM     14  S   UNL     1      49.897   7.900  18.904  0.00  0.00    +0.000 S 
ATOM     15  C   UNL     1      49.268   6.333  18.699  0.00  0.00    +0.000 A 
ATOM     16  N   UNL     1      49.127   5.484  19.756  0.00  0.00    +0.000 NA
ATOM     17  C   UNL     1      48.598   4.345  19.454  0.00  0.00    +0.000 A 
ATOM     18  N   UNL     1      48.217   3.966  18.194  0.00  0.00    +0.000 N 
ATOM     19  C   UNL     1      48.424   4.749  17.088  0.00  0.00    +0.000 A 
ATOM     20  O   UNL     1      48.226   4.315  15.960  0.00  0.00    +0.000 OA
ATOM     21  C   UNL     1      48.949   6.069  17.381  0.00  0.00    +0.000 A 
ATOM     22  H   UNL     1      47.851   3.044  18.015  0.00  0.00    +0.000 HD
ENDBRANCH   9  12
ENDBRANCH   7  10
ENDBRANCH   1   7
BRANCH   4  23
ATOM     23  C   UNL     1      43.863   3.892  11.260  0.00  0.00    +0.000 C 
BRANCH  23  24
ATOM     24  O   UNL     1      44.122   2.636  11.897  0.00  0.00    +0.000 OA
ATOM     25  H   UNL     1      45.039   2.704  12.223  0.00  0.00    +0.000 HD
ENDBRANCH  23  24
BRANCH  23  26
ATOM     26  C   UNL     1      44.035   3.702   9.741  0.00  0.00    +0.000 C 
BRANCH  26  27
ATOM     27  C   UNL     1      44.553   2.303   9.379  0.00  0.00    +0.000 C 
BRANCH  27  28
ATOM     28  C   UNL     1      45.634   2.349   8.322  0.00  0.00    +0.000 A 
ATOM     29  C   UNL     1      46.429   1.236   8.055  0.00  0.00    +0.000 A 
ATOM     30  C   UNL     1      47.414   1.328   7.070  0.00  0.00    +0.000 A 
ATOM     31  C   UNL     1      47.576   2.523   6.380  0.00  0.00    +0.000 A 
ATOM     32  C   UNL     1      46.745   3.579   6.705  0.00  0.00    +0.000 A 
ATOM     33  N   UNL     1      45.787   3.521   7.658  0.00  0.00    +0.000 NA
ENDBRANCH  27  28
ENDBRANCH  26  27
ENDBRANCH  23  26
ENDBRANCH   4  23
TORSDOF 8
ENDMDL
MODEL 5
REMARK VINA RESULT:    -7.428      2.717      3.260
REMARK INTER + INTRA:         -12.010
REMARK INTER:                 -11.046
REMARK INTRA:                  -0.964
REMARK UNBOUND:                -1.325
REMARK  Name = 
REMARK  8 active torsions:
REMARK  status: ('A' for Active; 'I' for Inactive)
REMARK    1  A    between atoms: C_2  and  C_21
REMARK    2  A    between atoms: N_3  and  C_4
REMARK    3  A    between atoms: C_4  and  C_5
REMARK    4  A    between atoms: C_8  and  C_9
REMARK    5  A    between atoms: C_9  and  O_10
REMARK    6  A    between atoms: C_9  and  C_11
REMARK    7  A    between atoms: C_11  and  C_12
REMARK    8  A    between atoms: C_12  and  C_13
REMARK                            x       y       z     vdW  Elec       q    Type
REMARK                         _______ _______ _______ _____ _____    ______ ____
ROOT
ATOM      1  C   UNL     1      46.723   4.850  13.887  0.00  0.00    +0.000 A 
ATOM      2  C   UNL     1      45.984   5.913  13.368  0.00  0.00    +0.000 A 
ATOM      3  C   UNL     1      45.017   5.670  12.387  0.00  0.00    +0.000 A 
ATOM      4  C   UNL     1      44.787   4.366  11.961  0.00  0.00    +0.000 A 
ATOM      5  N   UNL     1      45.447   3.308  12.502  0.00  0.00    +0.000 NA
ATOM      6  C   UNL     1      46.395   3.577  13.436  0.00  0.00    +0.000 A 
ENDROOT
BRANCH   1   7
ATOM      7  C   UNL     1      47.841   5.069  14.868  0.00  0.00    +0.000 C 
BRANCH   7  10
ATOM      8  O   UNL     1      50.151   6.353  15.828  0.00  0.00    +0.000 OA
ATOM      9  C   UNL     1      49.106   6.990  15.747  0.00  0.00    +0.000 C 
ATOM     10  N   UNL     1      47.929   6.430  15.322  0.00  0.00    +0.000 N 
ATOM     11  H   UNL     1      47.132   7.025  15.133  0.00  0.00    +0.000 HD
BRANCH   9  12
ATOM     12  C   UNL     1      49.036   8.400  16.143  0.00  0.00    +0.000 A 
ATOM     13  C   UNL     1      49.574   9.388  15.330  0.00  0.00    +0.000 A 
ATOM     14  S   UNL     1      49.353  10.965  15.948  0.00  0.00    +0.000 S 
ATOM     15  C   UNL     1      48.514  10.373  17.306  0.00  0.00    +0.000 A 
ATOM     16  N   UNL     1      48.005  11.219  18.245  0.00  0.00    +0.000 NA
ATOM     17  C   UNL     1      47.359  10.629  19.195  0.00  0.00    +0.000 A 
ATOM     18  N   UNL     1      47.192   9.274  19.306  0.00  0.00    +0.000 N 
ATOM     19  C   UNL     1      47.763   8.381  18.438  0.00  0.00    +0.000 A 
ATOM     20  O   UNL     1      47.735   7.176  18.659  0.00  0.00    +0.000 OA
ATOM     21  C   UNL     1      48.440   8.995  17.310  0.00  0.00    +0.000 A 
ATOM     22  H   UNL     1      46.714   8.871  20.098  0.00  0.00    +0.000 HD
ENDBRANCH   9  12
ENDBRANCH   7  10
ENDBRANCH   1   7
BRANCH   4  23
ATOM     23  C   UNL     1      43.776   4.061  10.859  0.00  0.00    +0.000 C 
BRANCH  23  24
ATOM     24  O   UNL     1      42.591   3.506  11.440  0.00  0.00    +0.000 OA
ATOM     25  H   UNL     1      42.389   2.721  10.897  0.00  0.00    +0.000 HD
ENDBRANCH  23  24
BRANCH  23  26
ATOM     26  C   UNL     1      44.336   3.042   9.848  0.00  0.00    +0.000 C 
BRANCH  26  27
ATOM     27  C   UNL     1      44.692   3.684   8.501  0.00  0.00    +0.000 C 
BRANCH  27  28
ATOM     28  C   UNL     1      45.776   2.923   7.772  0.00  0.00    +0.000 A 
ATOM     29  C   UNL     1      46.433   3.475   6.674  0.00  0.00    +0.000 A 
ATOM     30  C   UNL     1      47.426   2.731   6.034  0.00  0.00    +0.000 A 
ATOM     31  C   UNL     1      47.737   1.463   6.507  0.00  0.00    +0.000 A 
ATOM     32  C   UNL     1      47.039   0.989   7.603  0.00  0.00    +0.000 A 
ATOM     33  N   UNL     1      46.068   1.684   8.239  0.00  0.00    +0.000 NA
ENDBRANCH  27  28
ENDBRANCH  26  27
ENDBRANCH  23  26
ENDBRANCH   4  23
TORSDOF 8
ENDMDL
MODEL 6
REMARK VINA RESULT:    -7.223      3.223      4.273
REMARK INTER + INTRA:         -11.715
REMARK INTER:                 -10.511
REMARK INTRA:                  -1.204
REMARK UNBOUND:                -1.325
REMARK  Name = 
REMARK  8 active torsions:
REMARK  status: ('A' for Active; 'I' for Inactive)
REMARK    1  A    between atoms: C_2  and  C_21
REMARK    2  A    between atoms: N_3  and  C_4
REMARK    3  A    between atoms: C_4  and  C_5
REMARK    4  A    between atoms: C_8  and  C_9
REMARK    5  A    between atoms: C_9  and  O_10
REMARK    6  A    between atoms: C_9  and  C_11
REMARK    7  A    between atoms: C_11  and  C_12
REMARK    8  A    between atoms: C_12  and  C_13
REMARK                            x       y       z     vdW  Elec       q    Type
REMARK                         _______ _______ _______ _____ _____    ______ ____
ROOT
ATOM      1  C   UNL     1      46.142   7.561  12.815  0.00  0.00    +0.000 A 
ATOM      2  C   UNL     1      46.694   6.345  13.218  0.00  0.00    +0.000 A 
ATOM      3  C   UNL     1      46.129   5.146  12.769  0.00  0.00    +0.000 A 
ATOM      4  C   UNL     1      45.040   5.184  11.904  0.00  0.00    +0.000 A 
ATOM      5  N   UNL     1      44.530   6.357  11.445  0.00  0.00    +0.000 NA
ATOM      6  C   UNL     1      45.084   7.504  11.915  0.00  0.00    +0.000 A 
ENDROOT
BRANCH   1   7
ATOM      7  C   UNL     1      46.648   8.873  13.346  0.00  0.00    +0.000 C 
BRANCH   7  10
ATOM      8  O   UNL     1      48.794   8.889  15.164  0.00  0.00    +0.000 OA
ATOM      9  C   UNL     1      49.022   9.070  13.972  0.00  0.00    +0.000 C 
ATOM     10  N   UNL     1      48.030   9.111  13.027  0.00  0.00    +0.000 N 
ATOM     11  H   UNL     1      48.275   9.117  12.045  0.00  0.00    +0.000 HD
BRANCH   9  12
ATOM     12  C   UNL     1      50.384   9.299  13.479  0.00  0.00    +0.000 A 
ATOM     13  C   UNL     1      51.223  10.199  14.119  0.00  0.00    +0.000 A 
ATOM     14  S   UNL     1      52.777  10.290  13.417  0.00  0.00    +0.000 S 
ATOM     15  C   UNL     1      52.379   9.113  12.254  0.00  0.00    +0.000 A 
ATOM     16  N   UNL     1      53.294   8.688  11.338  0.00  0.00    +0.000 NA
ATOM     17  C   UNL     1      52.862   7.764  10.547  0.00  0.00    +0.000 A 
ATOM     18  N   UNL     1      51.596   7.239  10.571  0.00  0.00    +0.000 N 
ATOM     19  C   UNL     1      50.617   7.699  11.412  0.00  0.00    +0.000 A 
ATOM     20  O   UNL     1      49.456   7.326  11.295  0.00  0.00    +0.000 OA
ATOM     21  C   UNL     1      51.071   8.688  12.371  0.00  0.00    +0.000 A 
ATOM     22  H   UNL     1      51.305   6.549   9.896  0.00  0.00    +0.000 HD
ENDBRANCH   9  12
ENDBRANCH   7  10
ENDBRANCH   1   7
BRANCH   4  23
ATOM     23  C   UNL     1      44.363   3.902  11.430  0.00  0.00    +0.000 C 
BRANCH  23  24
ATOM     24  O   UNL     1      45.066   2.770  11.955  0.00  0.00    +0.000 OA
ATOM     25  H   UNL     1      46.004   2.937  11.743  0.00  0.00    +0.000 HD
ENDBRANCH  23  24
BRANCH  23  26
ATOM     26  C   UNL     1      44.369   3.797   9.893  0.00  0.00    +0.000 C 
BRANCH  26  27
ATOM     27  C   UNL     1      44.605   2.362   9.403  0.00  0.00    +0.000 C 
BRANCH  27  28
ATOM     28  C   UNL     1      45.628   2.297   8.292  0.00  0.00    +0.000 A 
ATOM     29  C   UNL     1      45.791   3.353   7.397  0.00  0.00    +0.000 A 
ATOM     30  C   UNL     1      46.749   3.245   6.388  0.00  0.00    +0.000 A 
ATOM     31  C   UNL     1      47.517   2.090   6.300  0.00  0.00    +0.000 A 
ATOM     32  C   UNL     1      47.293   1.089   7.228  0.00  0.00    +0.000 A 
ATOM     33  N   UNL     1      46.369   1.164   8.212  0.00  0.00    +0.000 NA
ENDBRANCH  27  28
ENDBRANCH  26  27
ENDBRANCH  23  26
ENDBRANCH   4  23
TORSDOF 8
ENDMDL
MODEL 7
REMARK VINA RESULT:    -7.201      2.247      3.269
REMARK INTER + INTRA:         -11.683
REMARK INTER:                 -10.648
REMARK INTRA:                  -1.035
REMARK UNBOUND:                -1.325
REMARK  Name = 
REMARK  8 active torsions:
REMARK  status: ('A' for Active; 'I' for Inactive)
REMARK    1  A    between atoms: C_2  and  C_21
REMARK    2  A    between atoms: N_3  and  C_4
REMARK    3  A    between atoms: C_4  and  C_5
REMARK    4  A    between atoms: C_8  and  C_9
REMARK    5  A    between atoms: C_9  and  O_10
REMARK    6  A    between atoms: C_9  and  C_11
REMARK    7  A    between atoms: C_11  and  C_12
REMARK    8  A    between atoms: C_12  and  C_13
REMARK                            x       y       z     vdW  Elec       q    Type
REMARK                         _______ _______ _______ _____ _____    ______ ____
ROOT
ATOM      1  C   UNL     1      46.777   4.562  14.206  0.00  0.00    +0.000 A 
ATOM      2  C   UNL     1      47.128   5.825  13.730  0.00  0.00    +0.000 A 
ATOM      3  C   UNL     1      46.561   6.300  12.543  0.00  0.00    +0.000 A 
ATOM      4  C   UNL     1      45.633   5.515  11.866  0.00  0.00    +0.000 A 
ATOM      5  N   UNL     1      45.226   4.311  12.347  0.00  0.00    +0.000 NA
ATOM      6  C   UNL     1      45.810   3.866  13.489  0.00  0.00    +0.000 A 
ENDROOT
BRANCH   1   7
ATOM      7  C   UNL     1      47.431   3.964  15.421  0.00  0.00    +0.000 C 
BRANCH   7  10
ATOM      8  O   UNL     1      46.752   4.589  18.077  0.00  0.00    +0.000 OA
ATOM      9  C   UNL     1      47.697   5.168  17.552  0.00  0.00    +0.000 C 
ATOM     10  N   UNL     1      48.071   4.947  16.253  0.00  0.00    +0.000 N 
ATOM     11  H   UNL     1      48.940   5.337  15.909  0.00  0.00    +0.000 HD
BRANCH   9  12
ATOM     12  C   UNL     1      48.473   6.179  18.277  0.00  0.00    +0.000 A 
ATOM     13  C   UNL     1      47.834   7.213  18.946  0.00  0.00    +0.000 A 
ATOM     14  S   UNL     1      48.911   8.258  19.761  0.00  0.00    +0.000 S 
ATOM     15  C   UNL     1      50.258   7.345  19.262  0.00  0.00    +0.000 A 
ATOM     16  N   UNL     1      51.521   7.681  19.650  0.00  0.00    +0.000 NA
ATOM     17  C   UNL     1      52.437   6.875  19.228  0.00  0.00    +0.000 A 
ATOM     18  N   UNL     1      52.213   5.776  18.440  0.00  0.00    +0.000 N 
ATOM     19  C   UNL     1      50.974   5.453  17.951  0.00  0.00    +0.000 A 
ATOM     20  O   UNL     1      50.835   4.567  17.117  0.00  0.00    +0.000 OA
ATOM     21  C   UNL     1      49.898   6.287  18.453  0.00  0.00    +0.000 A 
ATOM     22  H   UNL     1      52.978   5.210  18.106  0.00  0.00    +0.000 HD
ENDBRANCH   9  12
ENDBRANCH   7  10
ENDBRANCH   1   7
BRANCH   4  23
ATOM     23  C   UNL     1      45.027   5.972  10.542  0.00  0.00    +0.000 C 
BRANCH  23  24
ATOM     24  O   UNL     1      43.643   5.606  10.500  0.00  0.00    +0.000 OA
ATOM     25  H   UNL     1      43.481   5.341   9.575  0.00  0.00    +0.000 HD
ENDBRANCH  23  24
BRANCH  23  26
ATOM     26  C   UNL     1      45.732   5.313   9.342  0.00  0.00    +0.000 C 
BRANCH  26  27
ATOM     27  C   UNL     1      44.893   4.194   8.709  0.00  0.00    +0.000 C 
BRANCH  27  28
ATOM     28  C   UNL     1      45.745   3.188   7.969  0.00  0.00    +0.000 A 
ATOM     29  C   UNL     1      45.908   1.889   8.446  0.00  0.00    +0.000 A 
ATOM     30  C   UNL     1      46.705   0.998   7.728  0.00  0.00    +0.000 A 
ATOM     31  C   UNL     1      47.314   1.424   6.554  0.00  0.00    +0.000 A 
ATOM     32  C   UNL     1      47.100   2.729   6.148  0.00  0.00    +0.000 A 
ATOM     33  N   UNL     1      46.339   3.616   6.827  0.00  0.00    +0.000 NA
ENDBRANCH  27  28
ENDBRANCH  26  27
ENDBRANCH  23  26
ENDBRANCH   4  23
TORSDOF 8
ENDMDL
MODEL 8
REMARK VINA RESULT:    -7.033      3.086      4.229
REMARK INTER + INTRA:         -11.441
REMARK INTER:                 -10.255
REMARK INTRA:                  -1.186
REMARK UNBOUND:                -1.325
REMARK  Name = 
REMARK  8 active torsions:
REMARK  status: ('A' for Active; 'I' for Inactive)
REMARK    1  A    between atoms: C_2  and  C_21
REMARK    2  A    between atoms: N_3  and  C_4
REMARK    3  A    between atoms: C_4  and  C_5
REMARK    4  A    between atoms: C_8  and  C_9
REMARK    5  A    between atoms: C_9  and  O_10
REMARK    6  A    between atoms: C_9  and  C_11
REMARK    7  A    between atoms: C_11  and  C_12
REMARK    8  A    between atoms: C_12  and  C_13
REMARK                            x       y       z     vdW  Elec       q    Type
REMARK                         _______ _______ _______ _____ _____    ______ ____
ROOT
ATOM      1  C   UNL     1      49.005   6.383  15.713  0.00  0.00    +0.000 A 
ATOM      2  C   UNL     1      48.740   6.827  14.417  0.00  0.00    +0.000 A 
ATOM      3  C   UNL     1      47.726   6.219  13.670  0.00  0.00    +0.000 A 
ATOM      4  C   UNL     1      46.976   5.195  14.241  0.00  0.00    +0.000 A 
ATOM      5  N   UNL     1      47.172   4.793  15.524  0.00  0.00    +0.000 NA
ATOM      6  C   UNL     1      48.177   5.386  16.217  0.00  0.00    +0.000 A 
ENDROOT
BRANCH   1   7
ATOM      7  C   UNL     1      50.147   6.935  16.520  0.00  0.00    +0.000 C 
BRANCH   7  10
ATOM      8  O   UNL     1      50.556   5.999  19.140  0.00  0.00    +0.000 OA
ATOM      9  C   UNL     1      51.201   5.502  18.222  0.00  0.00    +0.000 C 
ATOM     10  N   UNL     1      51.086   5.924  16.924  0.00  0.00    +0.000 N 
ATOM     11  H   UNL     1      51.527   5.391  16.184  0.00  0.00    +0.000 HD
BRANCH   9  12
ATOM     12  C   UNL     1      52.181   4.438  18.464  0.00  0.00    +0.000 A 
ATOM     13  C   UNL     1      53.352   4.703  19.160  0.00  0.00    +0.000 A 
ATOM     14  S   UNL     1      54.337   3.325  19.372  0.00  0.00    +0.000 S 
ATOM     15  C   UNL     1      53.217   2.332  18.561  0.00  0.00    +0.000 A 
ATOM     16  N   UNL     1      53.435   0.995  18.415  0.00  0.00    +0.000 NA
ATOM     17  C   UNL     1      52.481   0.365  17.815  0.00  0.00    +0.000 A 
ATOM     18  N   UNL     1      51.340   0.949  17.328  0.00  0.00    +0.000 N 
ATOM     19  C   UNL     1      51.121   2.301  17.370  0.00  0.00    +0.000 A 
ATOM     20  O   UNL     1      50.174   2.807  16.780  0.00  0.00    +0.000 OA
ATOM     21  C   UNL     1      52.130   3.046  18.099  0.00  0.00    +0.000 A 
ATOM     22  H   UNL     1      50.651   0.408  16.828  0.00  0.00    +0.000 HD
ENDBRANCH   9  12
ENDBRANCH   7  10
ENDBRANCH   1   7
BRANCH   4  23
ATOM     23  C   UNL     1      45.894   4.471  13.445  0.00  0.00    +0.000 C 
BRANCH  23  24
ATOM     24  O   UNL     1      46.359   3.163  13.092  0.00  0.00    +0.000 OA
ATOM     25  H   UNL     1      47.055   2.959  13.744  0.00  0.00    +0.000 HD
ENDBRANCH  23  24
BRANCH  23  26
ATOM     26  C   UNL     1      45.552   5.223  12.146  0.00  0.00    +0.000 C 
BRANCH  26  27
ATOM     27  C   UNL     1      44.438   4.536  11.344  0.00  0.00    +0.000 C 
BRANCH  27  28
ATOM     28  C   UNL     1      44.959   3.882  10.084  0.00  0.00    +0.000 A 
ATOM     29  C   UNL     1      45.446   4.644   9.023  0.00  0.00    +0.000 A 
ATOM     30  C   UNL     1      45.916   3.994   7.881  0.00  0.00    +0.000 A 
ATOM     31  C   UNL     1      45.889   2.606   7.829  0.00  0.00    +0.000 A 
ATOM     32  C   UNL     1      45.391   1.925   8.925  0.00  0.00    +0.000 A 
ATOM     33  N   UNL     1      44.924   2.527  10.042  0.00  0.00    +0.000 NA
ENDBRANCH  27  28
ENDBRANCH  26  27
ENDBRANCH  23  26
ENDBRANCH   4  23
TORSDOF 8
ENDMDL
MODEL 9
REMARK VINA RESULT:    -6.910      3.271      5.288
REMARK INTER + INTRA:         -11.265
REMARK INTER:                 -10.212
REMARK INTRA:                  -1.053
REMARK UNBOUND:                -1.325
REMARK  Name = 
REMARK  8 active torsions:
REMARK  status: ('A' for Active; 'I' for Inactive)
REMARK    1  A    between atoms: C_2  and  C_21
REMARK    2  A    between atoms: N_3  and  C_4
REMARK    3  A    between atoms: C_4  and  C_5
REMARK    4  A    between atoms: C_8  and  C_9
REMARK    5  A    between atoms: C_9  and  O_10
REMARK    6  A    between atoms: C_9  and  C_11
REMARK    7  A    between atoms: C_11  and  C_12
REMARK    8  A    between atoms: C_12  and  C_13
REMARK                            x       y       z     vdW  Elec       q    Type
REMARK                         _______ _______ _______ _____ _____    ______ ____
ROOT
ATOM      1  C   UNL     1      47.884   3.963  16.425  0.00  0.00    +0.000 A 
ATOM      2  C   UNL     1      47.123   3.513  15.346  0.00  0.00    +0.000 A 
ATOM      3  C   UNL     1      46.875   4.370  14.269  0.00  0.00    +0.000 A 
ATOM      4  C   UNL     1      47.413   5.653  14.277  0.00  0.00    +0.000 A 
ATOM      5  N   UNL     1      48.213   6.089  15.286  0.00  0.00    +0.000 NA
ATOM      6  C   UNL     1      48.418   5.243  16.327  0.00  0.00    +0.000 A 
ENDROOT
BRANCH   1   7
ATOM      7  C   UNL     1      48.096   3.117  17.649  0.00  0.00    +0.000 C 
BRANCH   7  10
ATOM      8  O   UNL     1      49.890   1.593  16.109  0.00  0.00    +0.000 OA
ATOM      9  C   UNL     1      50.302   2.158  17.117  0.00  0.00    +0.000 C 
ATOM     10  N   UNL     1      49.487   2.891  17.940  0.00  0.00    +0.000 N 
ATOM     11  H   UNL     1      49.895   3.457  18.674  0.00  0.00    +0.000 HD
BRANCH   9  12
ATOM     12  C   UNL     1      51.703   2.052  17.535  0.00  0.00    +0.000 A 
ATOM     13  C   UNL     1      52.300   0.809  17.691  0.00  0.00    +0.000 A 
ATOM     14  S   UNL     1      53.944   0.902  18.142  0.00  0.00    +0.000 S 
ATOM     15  C   UNL     1      53.911   2.603  18.118  0.00  0.00    +0.000 A 
ATOM     16  N   UNL     1      55.029   3.335  18.385  0.00  0.00    +0.000 NA
ATOM     17  C   UNL     1      54.861   4.612  18.290  0.00  0.00    +0.000 A 
ATOM     18  N   UNL     1      53.678   5.227  17.975  0.00  0.00    +0.000 N 
ATOM     19  C   UNL     1      52.508   4.537  17.789  0.00  0.00    +0.000 A 
ATOM     20  O   UNL     1      51.439   5.124  17.675  0.00  0.00    +0.000 OA
ATOM     21  C   UNL     1      52.657   3.094  17.814  0.00  0.00    +0.000 A 
ATOM     22  H   UNL     1      53.601   6.232  17.960  0.00  0.00    +0.000 HD
ENDBRANCH   9  12
ENDBRANCH   7  10
ENDBRANCH   1   7
BRANCH   4  23
ATOM     23  C   UNL     1      47.126   6.638  13.146  0.00  0.00    +0.000 C 
BRANCH  23  24
ATOM     24  O   UNL     1      46.935   7.947  13.694  0.00  0.00    +0.000 OA
ATOM     25  H   UNL     1      45.967   8.060  13.743  0.00  0.00    +0.000 HD
ENDBRANCH  23  24
BRANCH  23  26
ATOM     26  C   UNL     1      45.851   6.252  12.374  0.00  0.00    +0.000 C 
BRANCH  26  27
ATOM     27  C   UNL     1      46.074   6.205  10.856  0.00  0.00    +0.000 C 
BRANCH  27  28
ATOM     28  C   UNL     1      45.502   4.952  10.232  0.00  0.00    +0.000 A 
ATOM     29  C   UNL     1      45.603   4.717   8.862  0.00  0.00    +0.000 A 
ATOM     30  C   UNL     1      45.058   3.546   8.333  0.00  0.00    +0.000 A 
ATOM     31  C   UNL     1      44.431   2.643   9.183  0.00  0.00    +0.000 A 
ATOM     32  C   UNL     1      44.375   2.952  10.530  0.00  0.00    +0.000 A 
ATOM     33  N   UNL     1      44.887   4.081  11.070  0.00  0.00    +0.000 NA
ENDBRANCH  27  28
ENDBRANCH  26  27
ENDBRANCH  23  26
ENDBRANCH   4  23
TORSDOF 8
ENDMDL
