MODEL 1
REMARK VINA RESULT:    -6.810      0.000      0.000
REMARK INTER + INTRA:          -9.770
REMARK INTER:                  -9.199
REMARK INTRA:                  -0.572
REMARK UNBOUND:                -0.572
REMARK  Name = 
REMARK  8 active torsions:
REMARK  status: ('A' for Active; 'I' for Inactive)
REMARK    1  A    between atoms: C_1  and  O_2
REMARK    2  A    between atoms: O_2  and  C_3
REMARK    3  A    between atoms: C_5  and  C_6
REMARK    4  A    between atoms: C_11  and  N_12
REMARK    5  A    between atoms: N_12  and  C_13
REMARK    6  A    between atoms: C_13  and  C_14
REMARK    7  A    between atoms: C_19  and  S_20
REMARK    8  A    between atoms: S_20  and  C_21
REMARK                            x       y       z     vdW  Elec       q    Type
REMARK                         _______ _______ _______ _____ _____    ______ ____
ROOT
ATOM      1  C   UNL     1      44.169   3.028   9.915  0.00  0.00    +0.000 A 
ATOM      2  N   UNL     1      44.846   2.014   9.319  0.00  0.00    +0.000 NA
ATOM      3  C   UNL     1      45.840   2.389   8.471  0.00  0.00    +0.000 A 
ATOM      4  C   UNL     1      46.162   3.706   8.189  0.00  0.00    +0.000 A 
ATOM      5  C   UNL     1      45.425   4.716   8.804  0.00  0.00    +0.000 A 
ATOM      6  C   UNL     1      44.416   4.404   9.714  0.00  0.00    +0.000 A 
ENDROOT
BRANCH   3   7
ATOM      7  C   UNL     1      46.612   1.290   7.820  0.00  0.00    +0.000 C 
ATOM      8  N   UNL     1      47.572   1.691   6.932  0.00  0.00    +0.000 N 
ATOM      9  O   UNL     1      46.410   0.104   8.055  0.00  0.00    +0.000 OA
ATOM     10  H   UNL     1      47.736   2.679   6.784  0.00  0.00    +0.000 HD
ATOM     11  H   UNL     1      48.142   0.997   6.467  0.00  0.00    +0.000 HD
ENDBRANCH   3   7
BRANCH   1  13
ATOM     12  C   UNL     1      43.675   2.176  12.034  0.00  0.00    +0.000 C 
ATOM     13  O   UNL     1      43.161   2.709  10.816  0.00  0.00    +0.000 OA
ENDBRANCH   1  13
BRANCH   6  14
ATOM     14  N   UNL     1      43.616   5.382  10.318  0.00  0.00    +0.000 N 
ATOM     15  H   UNL     1      42.652   5.307   9.992  0.00  0.00    +0.000 HD
BRANCH  14  16
ATOM     16  C   UNL     1      43.724   5.648  11.750  0.00  0.00    +0.000 C 
BRANCH  16  17
ATOM     17  C   UNL     1      44.905   6.555  12.044  0.00  0.00    +0.000 A 
ATOM     18  C   UNL     1      44.781   7.915  11.679  0.00  0.00    +0.000 A 
ATOM     19  C   UNL     1      45.766   8.849  11.993  0.00  0.00    +0.000 A 
ATOM     20  C   UNL     1      46.896   8.446  12.687  0.00  0.00    +0.000 A 
ATOM     21  C   UNL     1      47.048   7.107  13.048  0.00  0.00    +0.000 A 
ATOM     22  C   UNL     1      46.076   6.144  12.715  0.00  0.00    +0.000 A 
BRANCH  22  23
ATOM     23  S   UNL     1      46.345   4.465  13.294  0.00  0.00    +0.000 S 
ATOM     24  C   UNL     1      47.157   4.755  14.899  0.00  0.00    +0.000 C 
ENDBRANCH  22  23
ENDBRANCH  16  17
ENDBRANCH  14  16
ENDBRANCH   6  14
TORSDOF 6
ENDMDL
MODEL 2
REMARK VINA RESULT:    -6.751      1.329      2.214
REMARK INTER + INTRA:          -9.690
REMARK INTER:                  -9.211
REMARK INTRA:                  -0.479
REMARK UNBOUND:                -0.572
REMARK  Name = 
REMARK  8 active torsions:
REMARK  status: ('A' for Active; 'I' for Inactive)
REMARK    1  A    between atoms: C_1  and  O_2
REMARK    2  A    between atoms: O_2  and  C_3
REMARK    3  A    between atoms: C_5  and  C_6
REMARK    4  A    between atoms: C_11  and  N_12
REMARK    5  A    between atoms: N_12  and  C_13
REMARK    6  A    between atoms: C_13  and  C_14
REMARK    7  A    between atoms: C_19  and  S_20
REMARK    8  A    between atoms: S_20  and  C_21
REMARK                            x       y       z     vdW  Elec       q    Type
REMARK                         _______ _______ _______ _____ _____    ______ ____
ROOT
ATOM      1  C   UNL     1      44.140   3.169  10.017  0.00  0.00    +0.000 A 
ATOM      2  N   UNL     1      44.797   2.143   9.419  0.00  0.00    +0.000 NA
ATOM      3  C   UNL     1      45.780   2.501   8.550  0.00  0.00    +0.000 A 
ATOM      4  C   UNL     1      46.111   3.813   8.252  0.00  0.00    +0.000 A 
ATOM      5  C   UNL     1      45.395   4.835   8.871  0.00  0.00    +0.000 A 
ATOM      6  C   UNL     1      44.397   4.540   9.800  0.00  0.00    +0.000 A 
ENDROOT
BRANCH   3   7
ATOM      7  C   UNL     1      46.531   1.389   7.896  0.00  0.00    +0.000 C 
ATOM      8  N   UNL     1      47.518   1.774   7.031  0.00  0.00    +0.000 N 
ATOM      9  O   UNL     1      46.290   0.206   8.110  0.00  0.00    +0.000 OA
ATOM     10  H   UNL     1      47.713   2.759   6.899  0.00  0.00    +0.000 HD
ATOM     11  H   UNL     1      48.074   1.070   6.565  0.00  0.00    +0.000 HD
ENDBRANCH   3   7
BRANCH   1  13
ATOM     12  C   UNL     1      43.677   2.403  12.175  0.00  0.00    +0.000 C 
ATOM     13  O   UNL     1      43.144   2.867  10.937  0.00  0.00    +0.000 OA
ENDBRANCH   1  13
BRANCH   6  14
ATOM     14  N   UNL     1      43.618   5.531  10.409  0.00  0.00    +0.000 N 
ATOM     15  H   UNL     1      42.648   5.465  10.096  0.00  0.00    +0.000 HD
BRANCH  14  16
ATOM     16  C   UNL     1      43.748   5.805  11.838  0.00  0.00    +0.000 C 
BRANCH  16  17
ATOM     17  C   UNL     1      45.137   6.323  12.164  0.00  0.00    +0.000 A 
ATOM     18  C   UNL     1      46.074   5.388  12.660  0.00  0.00    +0.000 A 
ATOM     19  C   UNL     1      47.402   5.739  12.897  0.00  0.00    +0.000 A 
ATOM     20  C   UNL     1      47.826   7.033  12.635  0.00  0.00    +0.000 A 
ATOM     21  C   UNL     1      46.917   7.977  12.157  0.00  0.00    +0.000 A 
ATOM     22  C   UNL     1      45.566   7.648  11.938  0.00  0.00    +0.000 A 
BRANCH  22  23
ATOM     23  S   UNL     1      44.505   8.926  11.253  0.00  0.00    +0.000 S 
ATOM     24  C   UNL     1      45.353  10.442  11.803  0.00  0.00    +0.000 C 
ENDBRANCH  22  23
ENDBRANCH  16  17
ENDBRANCH  14  16
ENDBRANCH   6  14
TORSDOF 6
ENDMDL
MODEL 3
REMARK VINA RESULT:    -6.359      1.904      3.067
REMARK INTER + INTRA:          -9.162
REMARK INTER:                  -8.506
REMARK INTRA:                  -0.655
REMARK UNBOUND:                -0.572
REMARK  Name = 
REMARK  8 active torsions:
REMARK  status: ('A' for Active; 'I' for Inactive)
REMARK    1  A    between atoms: C_1  and  O_2
REMARK    2  A    between atoms: O_2  and  C_3
REMARK    3  A    between atoms: C_5  and  C_6
REMARK    4  A    between atoms: C_11  and  N_12
REMARK    5  A    between atoms: N_12  and  C_13
REMARK    6  A    between atoms: C_13  and  C_14
REMARK    7  A    between atoms: C_19  and  S_20
REMARK    8  A    between atoms: S_20  and  C_21
REMARK                            x       y       z     vdW  Elec       q    Type
REMARK                         _______ _______ _______ _____ _____    ______ ____
ROOT
ATOM      1  C   UNL     1      45.646   4.057   8.516  0.00  0.00    +0.000 A 
ATOM      2  N   UNL     1      46.487   3.184   7.907  0.00  0.00    +0.000 NA
ATOM      3  C   UNL     1      46.176   1.869   8.052  0.00  0.00    +0.000 A 
ATOM      4  C   UNL     1      45.093   1.405   8.780  0.00  0.00    +0.000 A 
ATOM      5  C   UNL     1      44.269   2.335   9.410  0.00  0.00    +0.000 A 
ATOM      6  C   UNL     1      44.508   3.702   9.273  0.00  0.00    +0.000 A 
ENDROOT
BRANCH   3   7
ATOM      7  C   UNL     1      47.075   0.891   7.372  0.00  0.00    +0.000 C 
ATOM      8  N   UNL     1      46.840  -0.425   7.661  0.00  0.00    +0.000 N 
ATOM      9  O   UNL     1      47.970   1.229   6.606  0.00  0.00    +0.000 OA
ATOM     10  H   UNL     1      46.073  -0.675   8.274  0.00  0.00    +0.000 HD
ATOM     11  H   UNL     1      47.404  -1.140   7.223  0.00  0.00    +0.000 HD
ENDBRANCH   3   7
BRANCH   1  13
ATOM     12  C   UNL     1      46.788   5.905   9.375  0.00  0.00    +0.000 C 
ATOM     13  O   UNL     1      45.893   5.417   8.379  0.00  0.00    +0.000 OA
ENDBRANCH   1  13
BRANCH   6  14
ATOM     14  N   UNL     1      43.738   4.671   9.927  0.00  0.00    +0.000 N 
ATOM     15  H   UNL     1      42.927   4.925   9.361  0.00  0.00    +0.000 HD
BRANCH  14  16
ATOM     16  C   UNL     1      43.433   4.541  11.350  0.00  0.00    +0.000 C 
BRANCH  16  17
ATOM     17  C   UNL     1      44.667   4.807  12.193  0.00  0.00    +0.000 A 
ATOM     18  C   UNL     1      45.357   3.683  12.700  0.00  0.00    +0.000 A 
ATOM     19  C   UNL     1      46.554   3.815  13.401  0.00  0.00    +0.000 A 
ATOM     20  C   UNL     1      47.093   5.076  13.605  0.00  0.00    +0.000 A 
ATOM     21  C   UNL     1      46.424   6.202  13.126  0.00  0.00    +0.000 A 
ATOM     22  C   UNL     1      45.200   6.091  12.440  0.00  0.00    +0.000 A 
BRANCH  22  23
ATOM     23  S   UNL     1      44.467   7.603  11.807  0.00  0.00    +0.000 S 
ATOM     24  C   UNL     1      45.564   8.871  12.520  0.00  0.00    +0.000 C 
ENDBRANCH  22  23
ENDBRANCH  16  17
ENDBRANCH  14  16
ENDBRANCH   6  14
TORSDOF 6
ENDMDL
MODEL 4
REMARK VINA RESULT:    -6.109      1.575      2.134
REMARK INTER + INTRA:          -8.823
REMARK INTER:                  -8.187
REMARK INTRA:                  -0.637
REMARK UNBOUND:                -0.572
REMARK  Name = 
REMARK  8 active torsions:
REMARK  status: ('A' for Active; 'I' for Inactive)
REMARK    1  A    between atoms: C_1  and  O_2
REMARK    2  A    between atoms: O_2  and  C_3
REMARK    3  A    between atoms: C_5  and  C_6
REMARK    4  A    between atoms: C_11  and  N_12
REMARK    5  A    between atoms: N_12  and  C_13
REMARK    6  A    between atoms: C_13  and  C_14
REMARK    7  A    between atoms: C_19  and  S_20
REMARK    8  A    between atoms: S_20  and  C_21
REMARK                            x       y       z     vdW  Elec       q    Type
REMARK                         _______ _______ _______ _____ _____    ______ ____
ROOT
ATOM      1  C   UNL     1      45.611   4.064   8.523  0.00  0.00    +0.000 A 
ATOM      2  N   UNL     1      46.447   3.191   7.907  0.00  0.00    +0.000 NA
ATOM      3  C   UNL     1      46.134   1.876   8.050  0.00  0.00    +0.000 A 
ATOM      4  C   UNL     1      45.053   1.412   8.782  0.00  0.00    +0.000 A 
ATOM      5  C   UNL     1      44.235   2.342   9.418  0.00  0.00    +0.000 A 
ATOM      6  C   UNL     1      44.476   3.709   9.285  0.00  0.00    +0.000 A 
ENDROOT
BRANCH   3   7
ATOM      7  C   UNL     1      47.027   0.897   7.362  0.00  0.00    +0.000 C 
ATOM      8  N   UNL     1      46.760  -0.421   7.611  0.00  0.00    +0.000 N 
ATOM      9  O   UNL     1      47.944   1.238   6.622  0.00  0.00    +0.000 OA
ATOM     10  H   UNL     1      45.976  -0.670   8.202  0.00  0.00    +0.000 HD
ATOM     11  H   UNL     1      47.319  -1.135   7.165  0.00  0.00    +0.000 HD
ENDBRANCH   3   7
BRANCH   1  13
ATOM     12  C   UNL     1      46.882   5.873   9.277  0.00  0.00    +0.000 C 
ATOM     13  O   UNL     1      45.862   5.424   8.390  0.00  0.00    +0.000 OA
ENDBRANCH   1  13
BRANCH   6  14
ATOM     14  N   UNL     1      43.712   4.677   9.946  0.00  0.00    +0.000 N 
ATOM     15  H   UNL     1      42.772   4.721   9.552  0.00  0.00    +0.000 HD
BRANCH  14  16
ATOM     16  C   UNL     1      43.735   4.774  11.404  0.00  0.00    +0.000 C 
BRANCH  16  17
ATOM     17  C   UNL     1      44.684   5.867  11.858  0.00  0.00    +0.000 A 
ATOM     18  C   UNL     1      44.376   7.191  11.471  0.00  0.00    +0.000 A 
ATOM     19  C   UNL     1      45.127   8.276  11.917  0.00  0.00    +0.000 A 
ATOM     20  C   UNL     1      46.200   8.064  12.770  0.00  0.00    +0.000 A 
ATOM     21  C   UNL     1      46.532   6.765  13.156  0.00  0.00    +0.000 A 
ATOM     22  C   UNL     1      45.802   5.654  12.693  0.00  0.00    +0.000 A 
BRANCH  22  23
ATOM     23  S   UNL     1      46.276   4.036  13.315  0.00  0.00    +0.000 S 
ATOM     24  C   UNL     1      47.087   4.470  14.887  0.00  0.00    +0.000 C 
ENDBRANCH  22  23
ENDBRANCH  16  17
ENDBRANCH  14  16
ENDBRANCH   6  14
TORSDOF 6
ENDMDL
MODEL 5
REMARK VINA RESULT:    -6.092      3.780      6.598
REMARK INTER + INTRA:          -8.800
REMARK INTER:                  -8.328
REMARK INTRA:                  -0.472
REMARK UNBOUND:                -0.572
REMARK  Name = 
REMARK  8 active torsions:
REMARK  status: ('A' for Active; 'I' for Inactive)
REMARK    1  A    between atoms: C_1  and  O_2
REMARK    2  A    between atoms: O_2  and  C_3
REMARK    3  A    between atoms: C_5  and  C_6
REMARK    4  A    between atoms: C_11  and  N_12
REMARK    5  A    between atoms: N_12  and  C_13
REMARK    6  A    between atoms: C_13  and  C_14
REMARK    7  A    between atoms: C_19  and  S_20
REMARK    8  A    between atoms: S_20  and  C_21
REMARK                            x       y       z     vdW  Elec       q    Type
REMARK                         _______ _______ _______ _____ _____    ______ ____
ROOT
ATOM      1  C   UNL     1      47.929   6.330  13.963  0.00  0.00    +0.000 A 
ATOM      2  N   UNL     1      48.164   5.897  15.227  0.00  0.00    +0.000 NA
ATOM      3  C   UNL     1      47.566   4.724  15.568  0.00  0.00    +0.000 A 
ATOM      4  C   UNL     1      46.748   3.997  14.719  0.00  0.00    +0.000 A 
ATOM      5  C   UNL     1      46.514   4.491  13.438  0.00  0.00    +0.000 A 
ATOM      6  C   UNL     1      47.125   5.669  13.009  0.00  0.00    +0.000 A 
ENDROOT
BRANCH   3   7
ATOM      7  C   UNL     1      47.828   4.217  16.947  0.00  0.00    +0.000 C 
ATOM      8  N   UNL     1      46.961   3.260  17.397  0.00  0.00    +0.000 N 
ATOM      9  O   UNL     1      48.753   4.622  17.642  0.00  0.00    +0.000 OA
ATOM     10  H   UNL     1      46.225   2.924  16.787  0.00  0.00    +0.000 HD
ATOM     11  H   UNL     1      47.090   2.863  18.318  0.00  0.00    +0.000 HD
ENDBRANCH   3   7
BRANCH   1  13
ATOM     12  C   UNL     1      47.981   8.656  14.180  0.00  0.00    +0.000 C 
ATOM     13  O   UNL     1      48.537   7.508  13.545  0.00  0.00    +0.000 OA
ENDBRANCH   1  13
BRANCH   6  14
ATOM     14  N   UNL     1      46.880   6.230  11.750  0.00  0.00    +0.000 N 
ATOM     15  H   UNL     1      47.550   5.878  11.066  0.00  0.00    +0.000 HD
BRANCH  14  16
ATOM     16  C   UNL     1      45.518   6.326  11.232  0.00  0.00    +0.000 C 
BRANCH  16  17
ATOM     17  C   UNL     1      45.235   5.207  10.245  0.00  0.00    +0.000 A 
ATOM     18  C   UNL     1      46.003   5.184   9.059  0.00  0.00    +0.000 A 
ATOM     19  C   UNL     1      45.891   4.147   8.135  0.00  0.00    +0.000 A 
ATOM     20  C   UNL     1      45.013   3.102   8.382  0.00  0.00    +0.000 A 
ATOM     21  C   UNL     1      44.235   3.108   9.540  0.00  0.00    +0.000 A 
ATOM     22  C   UNL     1      44.314   4.162  10.470  0.00  0.00    +0.000 A 
BRANCH  22  23
ATOM     23  S   UNL     1      43.318   4.026  11.959  0.00  0.00    +0.000 S 
ATOM     24  C   UNL     1      42.264   5.507  11.832  0.00  0.00    +0.000 C 
ENDBRANCH  22  23
ENDBRANCH  16  17
ENDBRANCH  14  16
ENDBRANCH   6  14
TORSDOF 6
ENDMDL
MODEL 6
REMARK VINA RESULT:    -6.039      3.594      6.478
REMARK INTER + INTRA:          -8.729
REMARK INTER:                  -8.052
REMARK INTRA:                  -0.677
REMARK UNBOUND:                -0.572
REMARK  Name = 
REMARK  8 active torsions:
REMARK  status: ('A' for Active; 'I' for Inactive)
REMARK    1  A    between atoms: C_1  and  O_2
REMARK    2  A    between atoms: O_2  and  C_3
REMARK    3  A    between atoms: C_5  and  C_6
REMARK    4  A    between atoms: C_11  and  N_12
REMARK    5  A    between atoms: N_12  and  C_13
REMARK    6  A    between atoms: C_13  and  C_14
REMARK    7  A    between atoms: C_19  and  S_20
REMARK    8  A    between atoms: S_20  and  C_21
REMARK                            x       y       z     vdW  Elec       q    Type
REMARK                         _______ _______ _______ _____ _____    ______ ____
ROOT
ATOM      1  C   UNL     1      45.461   4.663  13.242  0.00  0.00    +0.000 A 
ATOM      2  N   UNL     1      44.897   5.678  12.540  0.00  0.00    +0.000 NA
ATOM      3  C   UNL     1      45.579   6.854  12.556  0.00  0.00    +0.000 A 
ATOM      4  C   UNL     1      46.765   7.053  13.244  0.00  0.00    +0.000 A 
ATOM      5  C   UNL     1      47.296   5.990  13.971  0.00  0.00    +0.000 A 
ATOM      6  C   UNL     1      46.668   4.745  13.970  0.00  0.00    +0.000 A 
ENDROOT
BRANCH   3   7
ATOM      7  C   UNL     1      44.988   7.980  11.774  0.00  0.00    +0.000 C 
ATOM      8  N   UNL     1      43.805   7.703  11.145  0.00  0.00    +0.000 N 
ATOM      9  O   UNL     1      45.516   9.083  11.690  0.00  0.00    +0.000 OA
ATOM     10  H   UNL     1      43.378   6.791  11.260  0.00  0.00    +0.000 HD
ATOM     11  H   UNL     1      43.344   8.426  10.610  0.00  0.00    +0.000 HD
ENDBRANCH   3   7
BRANCH   1  13
ATOM     12  C   UNL     1      43.916   3.290  12.152  0.00  0.00    +0.000 C 
ATOM     13  O   UNL     1      44.827   3.427  13.240  0.00  0.00    +0.000 OA
ENDBRANCH   1  13
BRANCH   6  14
ATOM     14  N   UNL     1      47.137   3.664  14.725  0.00  0.00    +0.000 N 
ATOM     15  H   UNL     1      48.023   3.323  14.349  0.00  0.00    +0.000 HD
BRANCH  14  16
ATOM     16  C   UNL     1      47.107   3.708  16.185  0.00  0.00    +0.000 C 
BRANCH  16  17
ATOM     17  C   UNL     1      48.497   3.514  16.761  0.00  0.00    +0.000 A 
ATOM     18  C   UNL     1      49.087   2.239  16.608  0.00  0.00    +0.000 A 
ATOM     19  C   UNL     1      50.396   1.985  17.013  0.00  0.00    +0.000 A 
ATOM     20  C   UNL     1      51.150   3.005  17.574  0.00  0.00    +0.000 A 
ATOM     21  C   UNL     1      50.586   4.270  17.746  0.00  0.00    +0.000 A 
ATOM     22  C   UNL     1      49.256   4.537  17.369  0.00  0.00    +0.000 A 
BRANCH  22  23
ATOM     23  S   UNL     1      48.662   6.220  17.573  0.00  0.00    +0.000 S 
ATOM     24  C   UNL     1      47.558   6.048  19.013  0.00  0.00    +0.000 C 
ENDBRANCH  22  23
ENDBRANCH  16  17
ENDBRANCH  14  16
ENDBRANCH   6  14
TORSDOF 6
ENDMDL
MODEL 7
REMARK VINA RESULT:    -5.830      3.505      6.034
REMARK INTER + INTRA:          -8.447
REMARK INTER:                  -7.812
REMARK INTRA:                  -0.634
REMARK UNBOUND:                -0.572
REMARK  Name = 
REMARK  8 active torsions:
REMARK  status: ('A' for Active; 'I' for Inactive)
REMARK    1  A    between atoms: C_1  and  O_2
REMARK    2  A    between atoms: O_2  and  C_3
REMARK    3  A    between atoms: C_5  and  C_6
REMARK    4  A    between atoms: C_11  and  N_12
REMARK    5  A    between atoms: N_12  and  C_13
REMARK    6  A    between atoms: C_13  and  C_14
REMARK    7  A    between atoms: C_19  and  S_20
REMARK    8  A    between atoms: S_20  and  C_21
REMARK                            x       y       z     vdW  Elec       q    Type
REMARK                         _______ _______ _______ _____ _____    ______ ____
ROOT
ATOM      1  C   UNL     1      46.343   6.020  13.069  0.00  0.00    +0.000 A 
ATOM      2  N   UNL     1      45.639   5.804  11.930  0.00  0.00    +0.000 NA
ATOM      3  C   UNL     1      45.315   4.508  11.676  0.00  0.00    +0.000 A 
ATOM      4  C   UNL     1      45.675   3.446  12.489  0.00  0.00    +0.000 A 
ATOM      5  C   UNL     1      46.419   3.711  13.637  0.00  0.00    +0.000 A 
ATOM      6  C   UNL     1      46.755   5.021  13.977  0.00  0.00    +0.000 A 
ENDROOT
BRANCH   3   7
ATOM      7  C   UNL     1      44.522   4.248  10.438  0.00  0.00    +0.000 C 
ATOM      8  N   UNL     1      44.984   4.856   9.304  0.00  0.00    +0.000 N 
ATOM      9  O   UNL     1      43.521   3.540  10.425  0.00  0.00    +0.000 OA
ATOM     10  H   UNL     1      45.832   5.409   9.341  0.00  0.00    +0.000 HD
ATOM     11  H   UNL     1      44.501   4.709   8.428  0.00  0.00    +0.000 HD
ENDBRANCH   3   7
BRANCH   1  13
ATOM     12  C   UNL     1      45.706   8.265  12.946  0.00  0.00    +0.000 C 
ATOM     13  O   UNL     1      46.679   7.328  13.399  0.00  0.00    +0.000 OA
ENDBRANCH   1  13
BRANCH   6  14
ATOM     14  N   UNL     1      47.543   5.331  15.092  0.00  0.00    +0.000 N 
ATOM     15  H   UNL     1      47.645   6.342  15.188  0.00  0.00    +0.000 HD
BRANCH  14  16
ATOM     16  C   UNL     1      47.329   4.647  16.366  0.00  0.00    +0.000 C 
BRANCH  16  17
ATOM     17  C   UNL     1      48.605   3.975  16.838  0.00  0.00    +0.000 A 
ATOM     18  C   UNL     1      48.716   2.581  16.629  0.00  0.00    +0.000 A 
ATOM     19  C   UNL     1      49.884   1.886  16.937  0.00  0.00    +0.000 A 
ATOM     20  C   UNL     1      50.973   2.571  17.453  0.00  0.00    +0.000 A 
ATOM     21  C   UNL     1      50.884   3.945  17.680  0.00  0.00    +0.000 A 
ATOM     22  C   UNL     1      49.704   4.659  17.402  0.00  0.00    +0.000 A 
BRANCH  22  23
ATOM     23  S   UNL     1      49.730   6.435  17.667  0.00  0.00    +0.000 S 
ATOM     24  C   UNL     1      50.581   7.019  16.165  0.00  0.00    +0.000 C 
ENDBRANCH  22  23
ENDBRANCH  16  17
ENDBRANCH  14  16
ENDBRANCH   6  14
TORSDOF 6
ENDMDL
MODEL 8
REMARK VINA RESULT:    -5.722      2.988      4.523
REMARK INTER + INTRA:          -8.301
REMARK INTER:                  -7.671
REMARK INTRA:                  -0.629
REMARK UNBOUND:                -0.572
REMARK  Name = 
REMARK  8 active torsions:
REMARK  status: ('A' for Active; 'I' for Inactive)
REMARK    1  A    between atoms: C_1  and  O_2
REMARK    2  A    between atoms: O_2  and  C_3
REMARK    3  A    between atoms: C_5  and  C_6
REMARK    4  A    between atoms: C_11  and  N_12
REMARK    5  A    between atoms: N_12  and  C_13
REMARK    6  A    between atoms: C_13  and  C_14
REMARK    7  A    between atoms: C_19  and  S_20
REMARK    8  A    between atoms: S_20  and  C_21
REMARK                            x       y       z     vdW  Elec       q    Type
REMARK                         _______ _______ _______ _____ _____    ______ ____
ROOT
ATOM      1  C   UNL     1      45.907   4.599  13.558  0.00  0.00    +0.000 A 
ATOM      2  N   UNL     1      45.174   3.602  13.001  0.00  0.00    +0.000 NA
ATOM      3  C   UNL     1      44.775   3.812  11.718  0.00  0.00    +0.000 A 
ATOM      4  C   UNL     1      45.058   4.960  10.997  0.00  0.00    +0.000 A 
ATOM      5  C   UNL     1      45.793   5.968  11.616  0.00  0.00    +0.000 A 
ATOM      6  C   UNL     1      46.266   5.805  12.918  0.00  0.00    +0.000 A 
ENDROOT
BRANCH   3   7
ATOM      7  C   UNL     1      43.985   2.719  11.077  0.00  0.00    +0.000 C 
ATOM      8  N   UNL     1      44.521   2.201   9.930  0.00  0.00    +0.000 N 
ATOM      9  O   UNL     1      42.927   2.305  11.535  0.00  0.00    +0.000 OA
ATOM     10  H   UNL     1      45.413   2.543   9.594  0.00  0.00    +0.000 HD
ATOM     11  H   UNL     1      44.043   1.448   9.453  0.00  0.00    +0.000 HD
ENDBRANCH   3   7
BRANCH   1  13
ATOM     12  C   UNL     1      47.443   3.495  14.930  0.00  0.00    +0.000 C 
ATOM     13  O   UNL     1      46.370   4.430  14.857  0.00  0.00    +0.000 OA
ENDBRANCH   1  13
BRANCH   6  14
ATOM     14  N   UNL     1      46.964   6.809  13.598  0.00  0.00    +0.000 N 
ATOM     15  H   UNL     1      46.878   6.684  14.607  0.00  0.00    +0.000 HD
BRANCH  14  16
ATOM     16  C   UNL     1      48.308   7.197  13.175  0.00  0.00    +0.000 C 
BRANCH  16  17
ATOM     17  C   UNL     1      48.279   8.516  12.424  0.00  0.00    +0.000 A 
ATOM     18  C   UNL     1      47.130   9.324  12.584  0.00  0.00    +0.000 A 
ATOM     19  C   UNL     1      47.046  10.594  12.017  0.00  0.00    +0.000 A 
ATOM     20  C   UNL     1      48.114  11.090  11.283  0.00  0.00    +0.000 A 
ATOM     21  C   UNL     1      49.253  10.306  11.101  0.00  0.00    +0.000 A 
ATOM     22  C   UNL     1      49.345   9.009  11.642  0.00  0.00    +0.000 A 
BRANCH  22  23
ATOM     23  S   UNL     1      50.888   8.122  11.402  0.00  0.00    +0.000 S 
ATOM     24  C   UNL     1      52.098   9.484  11.390  0.00  0.00    +0.000 C 
ENDBRANCH  22  23
ENDBRANCH  16  17
ENDBRANCH  14  16
ENDBRANCH   6  14
TORSDOF 6
ENDMDL
MODEL 9
REMARK VINA RESULT:    -5.655      3.245      4.591
REMARK INTER + INTRA:          -8.211
REMARK INTER:                  -7.484
REMARK INTRA:                  -0.727
REMARK UNBOUND:                -0.572
REMARK  Name = 
REMARK  8 active torsions:
REMARK  status: ('A' for Active; 'I' for Inactive)
REMARK    1  A    between atoms: C_1  and  O_2
REMARK    2  A    between atoms: O_2  and  C_3
REMARK    3  A    between atoms: C_5  and  C_6
REMARK    4  A    between atoms: C_11  and  N_12
REMARK    5  A    between atoms: N_12  and  C_13
REMARK    6  A    between atoms: C_13  and  C_14
REMARK    7  A    between atoms: C_19  and  S_20
REMARK    8  A    between atoms: S_20  and  C_21
REMARK                            x       y       z     vdW  Elec       q    Type
REMARK                         _______ _______ _______ _____ _____    ______ ____
ROOT
ATOM      1  C   UNL     1      45.988   4.640  13.645  0.00  0.00    +0.000 A 
ATOM      2  N   UNL     1      45.261   3.689  13.006  0.00  0.00    +0.000 NA
ATOM      3  C   UNL     1      44.924   3.970  11.720  0.00  0.00    +0.000 A 
ATOM      4  C   UNL     1      45.264   5.145  11.069  0.00  0.00    +0.000 A 
ATOM      5  C   UNL     1      45.990   6.105  11.770  0.00  0.00    +0.000 A 
ATOM      6  C   UNL     1      46.400   5.867  13.082  0.00  0.00    +0.000 A 
ENDROOT
BRANCH   3   7
ATOM      7  C   UNL     1      44.142   2.928  10.991  0.00  0.00    +0.000 C 
ATOM      8  N   UNL     1      44.768   2.371   9.910  0.00  0.00    +0.000 N 
ATOM      9  O   UNL     1      43.013   2.586  11.325  0.00  0.00    +0.000 OA
ATOM     10  H   UNL     1      45.713   2.652   9.678  0.00  0.00    +0.000 HD
ATOM     11  H   UNL     1      44.299   1.649   9.381  0.00  0.00    +0.000 HD
ENDBRANCH   3   7
BRANCH   1  13
ATOM     12  C   UNL     1      47.449   3.449  15.025  0.00  0.00    +0.000 C 
ATOM     13  O   UNL     1      46.388   4.398  14.953  0.00  0.00    +0.000 OA
ENDBRANCH   1  13
BRANCH   6  14
ATOM     14  N   UNL     1      47.087   6.821  13.841  0.00  0.00    +0.000 N 
ATOM     15  H   UNL     1      47.839   6.381  14.373  0.00  0.00    +0.000 HD
BRANCH  14  16
ATOM     16  C   UNL     1      47.468   8.104  13.254  0.00  0.00    +0.000 C 
BRANCH  16  17
ATOM     17  C   UNL     1      48.948   8.128  12.922  0.00  0.00    +0.000 A 
ATOM     18  C   UNL     1      49.316   7.828  11.590  0.00  0.00    +0.000 A 
ATOM     19  C   UNL     1      50.638   7.918  11.159  0.00  0.00    +0.000 A 
ATOM     20  C   UNL     1      51.623   8.320  12.048  0.00  0.00    +0.000 A 
ATOM     21  C   UNL     1      51.287   8.609  13.371  0.00  0.00    +0.000 A 
ATOM     22  C   UNL     1      49.962   8.497  13.832  0.00  0.00    +0.000 A 
BRANCH  22  23
ATOM     23  S   UNL     1      49.638   8.964  15.536  0.00  0.00    +0.000 S 
ATOM     24  C   UNL     1      50.014   7.417  16.420  0.00  0.00    +0.000 C 
ENDBRANCH  22  23
ENDBRANCH  16  17
ENDBRANCH  14  16
ENDBRANCH   6  14
TORSDOF 6
ENDMDL
