MODEL 1
REMARK VINA RESULT:    -8.476      0.000      0.000
REMARK INTER + INTRA:         -11.546
REMARK INTER:                 -10.954
REMARK INTRA:                  -0.592
REMARK UNBOUND:                -0.592
REMARK  Name = 
REMARK  5 active torsions:
REMARK  status: ('A' for Active; 'I' for Inactive)
REMARK    1  A    between atoms: C_2  and  C_4
REMARK    2  A    between atoms: C_7  and  N_8
REMARK    3  A    between atoms: N_8  and  C_9
REMARK    4  A    between atoms: C_9  and  C_10
REMARK    5  A    between atoms: C_13  and  C_14
REMARK                            x       y       z     vdW  Elec       q    Type
REMARK                         _______ _______ _______ _____ _____    ______ ____
ROOT
ATOM      1  N   UNL     1      44.499   5.905  10.744  0.00  0.00    +0.000 N 
ATOM      2  H   UNL     1      45.110   6.318  10.045  0.00  0.00    +0.000 HD
ENDROOT
BRANCH   1   6
ATOM      3  C   UNL     1      46.520   4.697  14.105  0.00  0.00    +0.000 A 
ATOM      4  C   UNL     1      47.120   5.540  13.185  0.00  0.00    +0.000 A 
ATOM      5  N   UNL     1      46.469   5.999  12.083  0.00  0.00    +0.000 NA
ATOM      6  C   UNL     1      45.190   5.601  11.919  0.00  0.00    +0.000 A 
ATOM      7  C   UNL     1      44.594   4.771  12.880  0.00  0.00    +0.000 A 
ATOM      8  N   UNL     1      45.225   4.296  13.987  0.00  0.00    +0.000 NA
BRANCH   3  10
ATOM      9  N   UNL     1      47.472   4.980  16.315  0.00  0.00    +0.000 N 
ATOM     10  C   UNL     1      47.321   4.154  15.234  0.00  0.00    +0.000 C 
ATOM     11  O   UNL     1      47.801   3.027  15.213  0.00  0.00    +0.000 OA
ATOM     12  H   UNL     1      47.959   4.642  17.132  0.00  0.00    +0.000 HD
ATOM     13  H   UNL     1      47.020   5.887  16.327  0.00  0.00    +0.000 HD
ENDBRANCH   3  10
ENDBRANCH   1   6
BRANCH   1  14
ATOM     14  C   UNL     1      43.686   4.828  10.175  0.00  0.00    +0.000 C 
BRANCH  14  15
ATOM     15  C   UNL     1      44.547   3.949   9.283  0.00  0.00    +0.000 A 
ATOM     16  C   UNL     1      44.574   2.570   9.494  0.00  0.00    +0.000 A 
ATOM     17  C   UNL     1      45.401   1.777   8.703  0.00  0.00    +0.000 A 
ATOM     18  C   UNL     1      46.193   2.375   7.722  0.00  0.00    +0.000 A 
ATOM     19  C   UNL     1      46.099   3.752   7.573  0.00  0.00    +0.000 A 
ATOM     20  N   UNL     1      45.298   4.547   8.322  0.00  0.00    +0.000 NA
BRANCH  18  21
ATOM     21  C   UNL     1      47.121   1.595   6.845  0.00  0.00    +0.000 C 
ATOM     22  F   UNL     1      48.434   1.736   7.182  0.00  0.00    +0.000 F 
ATOM     23  F   UNL     1      46.871   0.257   6.878  0.00  0.00    +0.000 F 
ATOM     24  F   UNL     1      47.033   1.959   5.536  0.00  0.00    +0.000 F 
ENDBRANCH  18  21
ENDBRANCH  14  15
ENDBRANCH   1  14
TORSDOF 5
ENDMDL
MODEL 2
REMARK VINA RESULT:    -7.980      1.476      2.090
REMARK INTER + INTRA:         -10.905
REMARK INTER:                 -10.337
REMARK INTRA:                  -0.568
REMARK UNBOUND:                -0.592
REMARK  Name = 
REMARK  5 active torsions:
REMARK  status: ('A' for Active; 'I' for Inactive)
REMARK    1  A    between atoms: C_2  and  C_4
REMARK    2  A    between atoms: C_7  and  N_8
REMARK    3  A    between atoms: N_8  and  C_9
REMARK    4  A    between atoms: C_9  and  C_10
REMARK    5  A    between atoms: C_13  and  C_14
REMARK                            x       y       z     vdW  Elec       q    Type
REMARK                         _______ _______ _______ _____ _____    ______ ____
ROOT
ATOM      1  N   UNL     1      43.923   3.422  12.080  0.00  0.00    +0.000 N 
ATOM      2  H   UNL     1      43.149   3.415  12.738  0.00  0.00    +0.000 HD
ENDROOT
BRANCH   1   6
ATOM      3  C   UNL     1      47.061   5.333  13.907  0.00  0.00    +0.000 A 
ATOM      4  C   UNL     1      47.011   3.951  13.853  0.00  0.00    +0.000 A 
ATOM      5  N   UNL     1      46.013   3.281  13.217  0.00  0.00    +0.000 NA
ATOM      6  C   UNL     1      45.058   4.028  12.625  0.00  0.00    +0.000 A 
ATOM      7  C   UNL     1      45.145   5.427  12.668  0.00  0.00    +0.000 A 
ATOM      8  N   UNL     1      46.131   6.119  13.300  0.00  0.00    +0.000 NA
BRANCH   3  10
ATOM      9  N   UNL     1      48.031   5.869  16.062  0.00  0.00    +0.000 N 
ATOM     10  C   UNL     1      48.127   5.999  14.703  0.00  0.00    +0.000 C 
ATOM     11  O   UNL     1      49.051   6.610  14.178  0.00  0.00    +0.000 OA
ATOM     12  H   UNL     1      48.756   6.253  16.649  0.00  0.00    +0.000 HD
ATOM     13  H   UNL     1      47.285   5.314  16.467  0.00  0.00    +0.000 HD
ENDBRANCH   3  10
ENDBRANCH   1   6
BRANCH   1  14
ATOM     14  C   UNL     1      43.503   3.907  10.763  0.00  0.00    +0.000 C 
BRANCH  14  15
ATOM     15  C   UNL     1      44.502   3.465   9.707  0.00  0.00    +0.000 A 
ATOM     16  C   UNL     1      45.145   4.424   8.924  0.00  0.00    +0.000 A 
ATOM     17  C   UNL     1      46.024   4.010   7.926  0.00  0.00    +0.000 A 
ATOM     18  C   UNL     1      46.238   2.646   7.722  0.00  0.00    +0.000 A 
ATOM     19  C   UNL     1      45.563   1.760   8.551  0.00  0.00    +0.000 A 
ATOM     20  N   UNL     1      44.710   2.135   9.534  0.00  0.00    +0.000 NA
BRANCH  18  21
ATOM     21  C   UNL     1      47.150   2.121   6.659  0.00  0.00    +0.000 C 
ATOM     22  F   UNL     1      46.814   2.528   5.403  0.00  0.00    +0.000 F 
ATOM     23  F   UNL     1      48.443   2.508   6.841  0.00  0.00    +0.000 F 
ATOM     24  F   UNL     1      47.171   0.760   6.615  0.00  0.00    +0.000 F 
ENDBRANCH  18  21
ENDBRANCH  14  15
ENDBRANCH   1  14
TORSDOF 5
ENDMDL
MODEL 3
REMARK VINA RESULT:    -7.885      4.129      6.771
REMARK INTER + INTRA:         -10.782
REMARK INTER:                 -10.213
REMARK INTRA:                  -0.569
REMARK UNBOUND:                -0.592
REMARK  Name = 
REMARK  5 active torsions:
REMARK  status: ('A' for Active; 'I' for Inactive)
REMARK    1  A    between atoms: C_2  and  C_4
REMARK    2  A    between atoms: C_7  and  N_8
REMARK    3  A    between atoms: N_8  and  C_9
REMARK    4  A    between atoms: C_9  and  C_10
REMARK    5  A    between atoms: C_13  and  C_14
REMARK                            x       y       z     vdW  Elec       q    Type
REMARK                         _______ _______ _______ _____ _____    ______ ____
ROOT
ATOM      1  N   UNL     1      43.741   4.808   9.662  0.00  0.00    +0.000 N 
ATOM      2  H   UNL     1      42.873   4.773   9.134  0.00  0.00    +0.000 HD
ENDROOT
BRANCH   1   6
ATOM      3  C   UNL     1      46.429   2.358   7.761  0.00  0.00    +0.000 A 
ATOM      4  C   UNL     1      46.456   3.727   7.559  0.00  0.00    +0.000 A 
ATOM      5  N   UNL     1      45.613   4.577   8.205  0.00  0.00    +0.000 NA
ATOM      6  C   UNL     1      44.737   4.026   9.070  0.00  0.00    +0.000 A 
ATOM      7  C   UNL     1      44.747   2.640   9.280  0.00  0.00    +0.000 A 
ATOM      8  N   UNL     1      45.578   1.770   8.645  0.00  0.00    +0.000 NA
BRANCH   3  10
ATOM      9  N   UNL     1      48.422   2.073   6.413  0.00  0.00    +0.000 N 
ATOM     10  C   UNL     1      47.312   1.478   6.948  0.00  0.00    +0.000 C 
ATOM     11  O   UNL     1      47.076   0.288   6.784  0.00  0.00    +0.000 OA
ATOM     12  H   UNL     1      49.085   1.512   5.899  0.00  0.00    +0.000 HD
ATOM     13  H   UNL     1      48.620   3.048   6.609  0.00  0.00    +0.000 HD
ENDBRANCH   3  10
ENDBRANCH   1   6
BRANCH   1  14
ATOM     14  C   UNL     1      43.508   4.584  11.090  0.00  0.00    +0.000 C 
BRANCH  14  15
ATOM     15  C   UNL     1      44.653   5.171  11.898  0.00  0.00    +0.000 A 
ATOM     16  C   UNL     1      45.017   6.505  11.709  0.00  0.00    +0.000 A 
ATOM     17  C   UNL     1      46.098   7.023  12.418  0.00  0.00    +0.000 A 
ATOM     18  C   UNL     1      46.801   6.198  13.297  0.00  0.00    +0.000 A 
ATOM     19  C   UNL     1      46.368   4.885  13.431  0.00  0.00    +0.000 A 
ATOM     20  N   UNL     1      45.316   4.358  12.760  0.00  0.00    +0.000 NA
BRANCH  18  21
ATOM     21  C   UNL     1      47.984   6.673  14.080  0.00  0.00    +0.000 C 
ATOM     22  F   UNL     1      47.852   7.947  14.546  0.00  0.00    +0.000 F 
ATOM     23  F   UNL     1      48.232   5.902  15.173  0.00  0.00    +0.000 F 
ATOM     24  F   UNL     1      49.133   6.663  13.348  0.00  0.00    +0.000 F 
ENDBRANCH  18  21
ENDBRANCH  14  15
ENDBRANCH   1  14
TORSDOF 5
ENDMDL
MODEL 4
REMARK VINA RESULT:    -6.865      4.173      6.709
REMARK INTER + INTRA:          -9.464
REMARK INTER:                  -9.298
REMARK INTRA:                  -0.166
REMARK UNBOUND:                -0.592
REMARK  Name = 
REMARK  5 active torsions:
REMARK  status: ('A' for Active; 'I' for Inactive)
REMARK    1  A    between atoms: C_2  and  C_4
REMARK    2  A    between atoms: C_7  and  N_8
REMARK    3  A    between atoms: N_8  and  C_9
REMARK    4  A    between atoms: C_9  and  C_10
REMARK    5  A    between atoms: C_13  and  C_14
REMARK                            x       y       z     vdW  Elec       q    Type
REMARK                         _______ _______ _______ _____ _____    ______ ____
ROOT
ATOM      1  N   UNL     1      43.998   5.001   9.600  0.00  0.00    +0.000 N 
ATOM      2  H   UNL     1      43.330   5.459   8.986  0.00  0.00    +0.000 HD
ENDROOT
BRANCH   1   6
ATOM      3  C   UNL     1      46.287   2.092   7.830  0.00  0.00    +0.000 A 
ATOM      4  C   UNL     1      45.218   1.753   8.640  0.00  0.00    +0.000 A 
ATOM      5  N   UNL     1      44.407   2.686   9.208  0.00  0.00    +0.000 NA
ATOM      6  C   UNL     1      44.686   3.979   8.942  0.00  0.00    +0.000 A 
ATOM      7  C   UNL     1      45.758   4.297   8.094  0.00  0.00    +0.000 A 
ATOM      8  N   UNL     1      46.583   3.382   7.518  0.00  0.00    +0.000 NA
BRANCH   3  10
ATOM      9  N   UNL     1      46.849  -0.259   7.653  0.00  0.00    +0.000 N 
ATOM     10  C   UNL     1      47.192   1.024   7.323  0.00  0.00    +0.000 C 
ATOM     11  O   UNL     1      48.173   1.272   6.633  0.00  0.00    +0.000 OA
ATOM     12  H   UNL     1      47.395  -1.026   7.289  0.00  0.00    +0.000 HD
ATOM     13  H   UNL     1      46.002  -0.438   8.180  0.00  0.00    +0.000 HD
ENDBRANCH   3  10
ENDBRANCH   1   6
BRANCH   1  14
ATOM     14  C   UNL     1      43.390   4.647  10.885  0.00  0.00    +0.000 C 
BRANCH  14  15
ATOM     15  C   UNL     1      44.458   4.592  11.964  0.00  0.00    +0.000 A 
ATOM     16  C   UNL     1      45.065   3.374  12.272  0.00  0.00    +0.000 A 
ATOM     17  C   UNL     1      46.009   3.324  13.295  0.00  0.00    +0.000 A 
ATOM     18  C   UNL     1      46.323   4.488  13.997  0.00  0.00    +0.000 A 
ATOM     19  C   UNL     1      45.678   5.659  13.621  0.00  0.00    +0.000 A 
ATOM     20  N   UNL     1      44.763   5.738  12.625  0.00  0.00    +0.000 NA
BRANCH  18  21
ATOM     21  C   UNL     1      47.311   4.513  15.121  0.00  0.00    +0.000 C 
ATOM     22  F   UNL     1      46.734   4.633  16.350  0.00  0.00    +0.000 F 
ATOM     23  F   UNL     1      48.069   3.384  15.176  0.00  0.00    +0.000 F 
ATOM     24  F   UNL     1      48.190   5.548  15.021  0.00  0.00    +0.000 F 
ENDBRANCH  18  21
ENDBRANCH  14  15
ENDBRANCH   1  14
TORSDOF 5
ENDMDL
MODEL 5
REMARK VINA RESULT:    -6.104      5.352      8.508
REMARK INTER + INTRA:          -8.480
REMARK INTER:                  -8.074
REMARK INTRA:                  -0.406
REMARK UNBOUND:                -0.592
REMARK  Name = 
REMARK  5 active torsions:
REMARK  status: ('A' for Active; 'I' for Inactive)
REMARK    1  A    between atoms: C_2  and  C_4
REMARK    2  A    between atoms: C_7  and  N_8
REMARK    3  A    between atoms: N_8  and  C_9
REMARK    4  A    between atoms: C_9  and  C_10
REMARK    5  A    between atoms: C_13  and  C_14
REMARK                            x       y       z     vdW  Elec       q    Type
REMARK                         _______ _______ _______ _____ _____    ______ ____
ROOT
ATOM      1  N   UNL     1      47.245   4.972  15.183  0.00  0.00    +0.000 N 
ATOM      2  H   UNL     1      47.103   5.920  15.521  0.00  0.00    +0.000 HD
ENDROOT
BRANCH   1   6
ATOM      3  C   UNL     1      45.190   4.319  11.692  0.00  0.00    +0.000 A 
ATOM      4  C   UNL     1      45.602   3.257  12.478  0.00  0.00    +0.000 A 
ATOM      5  N   UNL     1      46.245   3.432  13.663  0.00  0.00    +0.000 NA
ATOM      6  C   UNL     1      46.464   4.704  14.056  0.00  0.00    +0.000 A 
ATOM      7  C   UNL     1      46.011   5.765  13.258  0.00  0.00    +0.000 A 
ATOM      8  N   UNL     1      45.369   5.614  12.068  0.00  0.00    +0.000 NA
BRANCH   3  10
ATOM      9  N   UNL     1      43.792   5.052   9.853  0.00  0.00    +0.000 N 
ATOM     10  C   UNL     1      44.581   4.054  10.360  0.00  0.00    +0.000 C 
ATOM     11  O   UNL     1      44.787   3.018   9.742  0.00  0.00    +0.000 OA
ATOM     12  H   UNL     1      43.399   4.949   8.929  0.00  0.00    +0.000 HD
ATOM     13  H   UNL     1      43.682   5.920  10.363  0.00  0.00    +0.000 HD
ENDBRANCH   3  10
ENDBRANCH   1   6
BRANCH   1  14
ATOM     14  C   UNL     1      47.161   3.997  16.273  0.00  0.00    +0.000 C 
BRANCH  14  15
ATOM     15  C   UNL     1      48.554   3.679  16.790  0.00  0.00    +0.000 A 
ATOM     16  C   UNL     1      49.338   4.700  17.329  0.00  0.00    +0.000 A 
ATOM     17  C   UNL     1      50.631   4.411  17.757  0.00  0.00    +0.000 A 
ATOM     18  C   UNL     1      51.122   3.111  17.632  0.00  0.00    +0.000 A 
ATOM     19  C   UNL     1      50.273   2.154  17.091  0.00  0.00    +0.000 A 
ATOM     20  N   UNL     1      49.009   2.405  16.674  0.00  0.00    +0.000 NA
BRANCH  18  21
ATOM     21  C   UNL     1      52.506   2.725  18.049  0.00  0.00    +0.000 C 
ATOM     22  F   UNL     1      52.745   1.386  17.965  0.00  0.00    +0.000 F 
ATOM     23  F   UNL     1      53.466   3.323  17.293  0.00  0.00    +0.000 F 
ATOM     24  F   UNL     1      52.777   3.069  19.338  0.00  0.00    +0.000 F 
ENDBRANCH  18  21
ENDBRANCH  14  15
ENDBRANCH   1  14
TORSDOF 5
ENDMDL
MODEL 6
REMARK VINA RESULT:    -5.956      3.082      4.779
REMARK INTER + INTRA:          -8.290
REMARK INTER:                  -7.928
REMARK INTRA:                  -0.362
REMARK UNBOUND:                -0.592
REMARK  Name = 
REMARK  5 active torsions:
REMARK  status: ('A' for Active; 'I' for Inactive)
REMARK    1  A    between atoms: C_2  and  C_4
REMARK    2  A    between atoms: C_7  and  N_8
REMARK    3  A    between atoms: N_8  and  C_9
REMARK    4  A    between atoms: C_9  and  C_10
REMARK    5  A    between atoms: C_13  and  C_14
REMARK                            x       y       z     vdW  Elec       q    Type
REMARK                         _______ _______ _______ _____ _____    ______ ____
ROOT
ATOM      1  N   UNL     1      47.090   3.690  14.950  0.00  0.00    +0.000 N 
ATOM      2  H   UNL     1      46.596   2.818  14.783  0.00  0.00    +0.000 HD
ENDROOT
BRANCH   1   6
ATOM      3  C   UNL     1      48.542   4.076  18.769  0.00  0.00    +0.000 A 
ATOM      4  C   UNL     1      47.699   5.035  18.233  0.00  0.00    +0.000 A 
ATOM      5  N   UNL     1      47.161   4.921  16.990  0.00  0.00    +0.000 NA
ATOM      6  C   UNL     1      47.480   3.815  16.286  0.00  0.00    +0.000 A 
ATOM      7  C   UNL     1      48.311   2.843  16.860  0.00  0.00    +0.000 A 
ATOM      8  N   UNL     1      48.863   2.936  18.100  0.00  0.00    +0.000 NA
BRANCH   3  10
ATOM      9  N   UNL     1      50.516   4.575  20.081  0.00  0.00    +0.000 N 
ATOM     10  C   UNL     1      49.173   4.311  20.095  0.00  0.00    +0.000 C 
ATOM     11  O   UNL     1      48.531   4.293  21.138  0.00  0.00    +0.000 OA
ATOM     12  H   UNL     1      50.986   4.797  20.947  0.00  0.00    +0.000 HD
ATOM     13  H   UNL     1      51.012   4.636  19.199  0.00  0.00    +0.000 HD
ENDBRANCH   3  10
ENDBRANCH   1   6
BRANCH   1  14
ATOM     14  C   UNL     1      46.373   4.831  14.377  0.00  0.00    +0.000 C 
BRANCH  14  15
ATOM     15  C   UNL     1      45.961   4.518  12.949  0.00  0.00    +0.000 A 
ATOM     16  C   UNL     1      46.004   5.525  11.983  0.00  0.00    +0.000 A 
ATOM     17  C   UNL     1      45.579   5.243  10.687  0.00  0.00    +0.000 A 
ATOM     18  C   UNL     1      45.112   3.964  10.380  0.00  0.00    +0.000 A 
ATOM     19  C   UNL     1      45.109   3.020  11.399  0.00  0.00    +0.000 A 
ATOM     20  N   UNL     1      45.523   3.264  12.665  0.00  0.00    +0.000 NA
BRANCH  18  21
ATOM     21  C   UNL     1      44.620   3.588   9.018  0.00  0.00    +0.000 C 
ATOM     22  F   UNL     1      45.610   3.514   8.084  0.00  0.00    +0.000 F 
ATOM     23  F   UNL     1      44.003   2.375   9.001  0.00  0.00    +0.000 F 
ATOM     24  F   UNL     1      43.712   4.476   8.527  0.00  0.00    +0.000 F 
ENDBRANCH  18  21
ENDBRANCH  14  15
ENDBRANCH   1  14
TORSDOF 5
ENDMDL
MODEL 7
REMARK VINA RESULT:    -5.848      4.463      7.010
REMARK INTER + INTRA:          -8.149
REMARK INTER:                  -7.628
REMARK INTRA:                  -0.521
REMARK UNBOUND:                -0.592
REMARK  Name = 
REMARK  5 active torsions:
REMARK  status: ('A' for Active; 'I' for Inactive)
REMARK    1  A    between atoms: C_2  and  C_4
REMARK    2  A    between atoms: C_7  and  N_8
REMARK    3  A    between atoms: N_8  and  C_9
REMARK    4  A    between atoms: C_9  and  C_10
REMARK    5  A    between atoms: C_13  and  C_14
REMARK                            x       y       z     vdW  Elec       q    Type
REMARK                         _______ _______ _______ _____ _____    ______ ____
ROOT
ATOM      1  N   UNL     1      44.435   5.093  11.730  0.00  0.00    +0.000 N 
ATOM      2  H   UNL     1      43.477   4.888  11.998  0.00  0.00    +0.000 HD
ENDROOT
BRANCH   1   6
ATOM      3  C   UNL     1      45.818   3.189   8.368  0.00  0.00    +0.000 A 
ATOM      4  C   UNL     1      45.257   2.467   9.408  0.00  0.00    +0.000 A 
ATOM      5  N   UNL     1      44.746   3.064  10.518  0.00  0.00    +0.000 NA
ATOM      6  C   UNL     1      44.802   4.412  10.566  0.00  0.00    +0.000 A 
ATOM      7  C   UNL     1      45.348   5.123   9.488  0.00  0.00    +0.000 A 
ATOM      8  N   UNL     1      45.867   4.548   8.370  0.00  0.00    +0.000 NA
BRANCH   3  10
ATOM      9  N   UNL     1      46.978   1.239   7.517  0.00  0.00    +0.000 N 
ATOM     10  C   UNL     1      46.447   2.467   7.229  0.00  0.00    +0.000 C 
ATOM     11  O   UNL     1      46.472   2.930   6.095  0.00  0.00    +0.000 OA
ATOM     12  H   UNL     1      47.368   0.681   6.772  0.00  0.00    +0.000 HD
ATOM     13  H   UNL     1      46.897   0.858   8.453  0.00  0.00    +0.000 HD
ENDBRANCH   3  10
ENDBRANCH   1   6
BRANCH   1  14
ATOM     14  C   UNL     1      45.349   4.966  12.867  0.00  0.00    +0.000 C 
BRANCH  14  15
ATOM     15  C   UNL     1      46.438   6.021  12.776  0.00  0.00    +0.000 A 
ATOM     16  C   UNL     1      46.107   7.320  12.389  0.00  0.00    +0.000 A 
ATOM     17  C   UNL     1      47.117   8.270  12.260  0.00  0.00    +0.000 A 
ATOM     18  C   UNL     1      48.440   7.905  12.512  0.00  0.00    +0.000 A 
ATOM     19  C   UNL     1      48.681   6.593  12.899  0.00  0.00    +0.000 A 
ATOM     20  N   UNL     1      47.717   5.651  13.040  0.00  0.00    +0.000 NA
BRANCH  18  21
ATOM     21  C   UNL     1      49.584   8.860  12.378  0.00  0.00    +0.000 C 
ATOM     22  F   UNL     1      49.529   9.618  11.246  0.00  0.00    +0.000 F 
ATOM     23  F   UNL     1      49.652   9.743  13.412  0.00  0.00    +0.000 F 
ATOM     24  F   UNL     1      50.790   8.230  12.345  0.00  0.00    +0.000 F 
ENDBRANCH  18  21
ENDBRANCH  14  15
ENDBRANCH   1  14
TORSDOF 5
ENDMDL
