MODEL 1
REMARK VINA RESULT:    -8.767      0.000      0.000
REMARK INTER + INTRA:         -11.510
REMARK INTER:                 -11.329
REMARK INTRA:                  -0.181
REMARK UNBOUND:                -0.181
REMARK  Name = 
REMARK  5 active torsions:
REMARK  status: ('A' for Active; 'I' for Inactive)
REMARK    1  A    between atoms: C_2  and  C_3
REMARK    2  A    between atoms: C_5  and  C_6
REMARK    3  A    between atoms: C_12  and  C_13
REMARK    4  A    between atoms: C_13  and  N_14
REMARK    5  A    between atoms: C_18  and  C_19
REMARK                            x       y       z     vdW  Elec       q    Type
REMARK                         _______ _______ _______ _____ _____    ______ ____
ROOT
ATOM      1  C   UNL     1      43.937   5.290  11.180  0.00  0.00    +0.000 C 
ATOM      2  C   UNL     1      42.588   5.609  11.796  0.00  0.00    +0.000 C 
ATOM      3  C   UNL     1      42.988   4.186  11.649  0.00  0.00    +0.000 C 
ENDROOT
BRANCH   1   4
ATOM      4  N   UNL     1      44.351   5.145   9.797  0.00  0.00    +0.000 N 
ATOM      5  C   UNL     1      45.001   4.126   9.131  0.00  0.00    +0.000 A 
ATOM      6  C   UNL     1      45.056   2.805   9.538  0.00  0.00    +0.000 A 
ATOM      7  C   UNL     1      45.781   1.888   8.770  0.00  0.00    +0.000 A 
ATOM      8  C   UNL     1      46.412   2.318   7.604  0.00  0.00    +0.000 A 
ATOM      9  C   UNL     1      46.271   3.648   7.250  0.00  0.00    +0.000 A 
ATOM     10  N   UNL     1      45.578   4.546   7.983  0.00  0.00    +0.000 NA
ATOM     11  H   UNL     1      44.532   5.995   9.267  0.00  0.00    +0.000 HD
BRANCH   8  12
ATOM     12  C   UNL     1      47.263   1.460   6.758  0.00  0.00    +0.000 C 
ATOM     13  N   UNL     1      48.339   2.038   6.147  0.00  0.00    +0.000 N 
ATOM     14  O   UNL     1      47.023   0.267   6.618  0.00  0.00    +0.000 OA
ATOM     15  H   UNL     1      48.705   2.939   6.417  0.00  0.00    +0.000 HD
ATOM     16  H   UNL     1      48.951   1.414   5.637  0.00  0.00    +0.000 HD
ENDBRANCH   8  12
ENDBRANCH   1   4
BRANCH   1  22
ATOM     17  C   UNL     1      45.495   7.050  12.217  0.00  0.00    +0.000 A 
ATOM     18  C   UNL     1      46.555   7.392  13.070  0.00  0.00    +0.000 A 
ATOM     19  C   UNL     1      47.280   6.392  13.738  0.00  0.00    +0.000 A 
ATOM     20  C   UNL     1      46.990   5.050  13.472  0.00  0.00    +0.000 A 
ATOM     21  C   UNL     1      45.937   4.713  12.627  0.00  0.00    +0.000 A 
ATOM     22  C   UNL     1      45.133   5.698  12.031  0.00  0.00    +0.000 A 
BRANCH  19  23
ATOM     23  C   UNL     1      48.332   6.729  14.765  0.00  0.00    +0.000 C 
ATOM     24  F   UNL     1      48.376   5.852  15.804  0.00  0.00    +0.000 F 
ATOM     25  F   UNL     1      49.581   6.729  14.222  0.00  0.00    +0.000 F 
ATOM     26  F   UNL     1      48.158   7.961  15.311  0.00  0.00    +0.000 F 
ENDBRANCH  19  23
BRANCH  17  28
ATOM     27  N   UNL     1      44.193   8.943  10.997  0.00  0.00    +0.000 NA
ATOM     28  C   UNL     1      44.779   8.100  11.534  0.00  0.00    +0.000 C 
ENDBRANCH  17  28
ENDBRANCH   1  22
TORSDOF 5
ENDMDL
MODEL 2
REMARK VINA RESULT:    -8.292      1.966      2.800
REMARK INTER + INTRA:         -10.897
REMARK INTER:                 -10.214
REMARK INTRA:                  -0.683
REMARK UNBOUND:                -0.181
REMARK  Name = 
REMARK  5 active torsions:
REMARK  status: ('A' for Active; 'I' for Inactive)
REMARK    1  A    between atoms: C_2  and  C_3
REMARK    2  A    between atoms: C_5  and  C_6
REMARK    3  A    between atoms: C_12  and  C_13
REMARK    4  A    between atoms: C_13  and  N_14
REMARK    5  A    between atoms: C_18  and  C_19
REMARK                            x       y       z     vdW  Elec       q    Type
REMARK                         _______ _______ _______ _____ _____    ______ ____
ROOT
ATOM      1  C   UNL     1      43.820   5.114  11.780  0.00  0.00    +0.000 C 
ATOM      2  C   UNL     1      42.392   5.618  11.687  0.00  0.00    +0.000 C 
ATOM      3  C   UNL     1      42.786   4.799  12.862  0.00  0.00    +0.000 C 
ENDROOT
BRANCH   1   4
ATOM      4  N   UNL     1      44.459   3.932  11.231  0.00  0.00    +0.000 N 
ATOM      5  C   UNL     1      45.090   3.702  10.027  0.00  0.00    +0.000 A 
ATOM      6  C   UNL     1      45.630   4.672   9.202  0.00  0.00    +0.000 A 
ATOM      7  C   UNL     1      46.216   4.286   7.991  0.00  0.00    +0.000 A 
ATOM      8  C   UNL     1      46.262   2.934   7.654  0.00  0.00    +0.000 A 
ATOM      9  C   UNL     1      45.736   2.027   8.556  0.00  0.00    +0.000 A 
ATOM     10  N   UNL     1      45.164   2.386   9.726  0.00  0.00    +0.000 NA
ATOM     11  H   UNL     1      44.143   3.025  11.567  0.00  0.00    +0.000 HD
BRANCH   8  12
ATOM     12  C   UNL     1      46.786   2.418   6.375  0.00  0.00    +0.000 C 
ATOM     13  N   UNL     1      46.944   3.304   5.349  0.00  0.00    +0.000 N 
ATOM     14  O   UNL     1      47.085   1.237   6.241  0.00  0.00    +0.000 OA
ATOM     15  H   UNL     1      46.939   4.305   5.483  0.00  0.00    +0.000 HD
ATOM     16  H   UNL     1      47.379   2.943   4.509  0.00  0.00    +0.000 HD
ENDBRANCH   8  12
ENDBRANCH   1   4
BRANCH   1  22
ATOM     17  C   UNL     1      46.057   5.967  12.712  0.00  0.00    +0.000 A 
ATOM     18  C   UNL     1      47.029   6.972  12.826  0.00  0.00    +0.000 A 
ATOM     19  C   UNL     1      46.819   8.232  12.243  0.00  0.00    +0.000 A 
ATOM     20  C   UNL     1      45.592   8.500  11.627  0.00  0.00    +0.000 A 
ATOM     21  C   UNL     1      44.630   7.501  11.514  0.00  0.00    +0.000 A 
ATOM     22  C   UNL     1      44.862   6.204  11.998  0.00  0.00    +0.000 A 
BRANCH  19  23
ATOM     23  C   UNL     1      47.896   9.287  12.228  0.00  0.00    +0.000 C 
ATOM     24  F   UNL     1      48.524   9.440  13.425  0.00  0.00    +0.000 F 
ATOM     25  F   UNL     1      48.875   8.992  11.327  0.00  0.00    +0.000 F 
ATOM     26  F   UNL     1      47.425  10.515  11.884  0.00  0.00    +0.000 F 
ENDBRANCH  19  23
BRANCH  17  28
ATOM     27  N   UNL     1      46.474   3.656  13.830  0.00  0.00    +0.000 NA
ATOM     28  C   UNL     1      46.297   4.687  13.334  0.00  0.00    +0.000 C 
ENDBRANCH  17  28
ENDBRANCH   1  22
TORSDOF 5
ENDMDL
MODEL 3
REMARK VINA RESULT:    -7.306      4.585      6.953
REMARK INTER + INTRA:          -9.622
REMARK INTER:                  -9.393
REMARK INTRA:                  -0.229
REMARK UNBOUND:                -0.181
REMARK  Name = 
REMARK  5 active torsions:
REMARK  status: ('A' for Active; 'I' for Inactive)
REMARK    1  A    between atoms: C_2  and  C_3
REMARK    2  A    between atoms: C_5  and  C_6
REMARK    3  A    between atoms: C_12  and  C_13
REMARK    4  A    between atoms: C_13  and  N_14
REMARK    5  A    between atoms: C_18  and  C_19
REMARK                            x       y       z     vdW  Elec       q    Type
REMARK                         _______ _______ _______ _____ _____    ______ ____
ROOT
ATOM      1  C   UNL     1      44.029   5.431  11.523  0.00  0.00    +0.000 C 
ATOM      2  C   UNL     1      42.528   5.548  11.338  0.00  0.00    +0.000 C 
ATOM      3  C   UNL     1      43.359   6.775  11.234  0.00  0.00    +0.000 C 
ENDROOT
BRANCH   1   4
ATOM      4  N   UNL     1      44.854   5.442  12.717  0.00  0.00    +0.000 N 
ATOM      5  C   UNL     1      46.055   6.057  13.001  0.00  0.00    +0.000 A 
ATOM      6  C   UNL     1      46.573   7.157  12.342  0.00  0.00    +0.000 A 
ATOM      7  C   UNL     1      47.823   7.653  12.725  0.00  0.00    +0.000 A 
ATOM      8  C   UNL     1      48.509   7.043  13.775  0.00  0.00    +0.000 A 
ATOM      9  C   UNL     1      47.899   5.974  14.407  0.00  0.00    +0.000 A 
ATOM     10  N   UNL     1      46.695   5.482  14.044  0.00  0.00    +0.000 NA
ATOM     11  H   UNL     1      44.783   4.646  13.347  0.00  0.00    +0.000 HD
BRANCH   8  12
ATOM     12  C   UNL     1      49.862   7.431  14.216  0.00  0.00    +0.000 C 
ATOM     13  N   UNL     1      50.761   7.802  13.258  0.00  0.00    +0.000 N 
ATOM     14  O   UNL     1      50.167   7.437  15.403  0.00  0.00    +0.000 OA
ATOM     15  H   UNL     1      50.491   8.037  12.314  0.00  0.00    +0.000 HD
ATOM     16  H   UNL     1      51.655   8.139  13.590  0.00  0.00    +0.000 HD
ENDBRANCH   8  12
ENDBRANCH   1   4
BRANCH   1  22
ATOM     17  C   UNL     1      44.557   3.281  10.219  0.00  0.00    +0.000 A 
ATOM     18  C   UNL     1      45.172   2.627   9.141  0.00  0.00    +0.000 A 
ATOM     19  C   UNL     1      45.994   3.338   8.253  0.00  0.00    +0.000 A 
ATOM     20  C   UNL     1      46.263   4.687   8.508  0.00  0.00    +0.000 A 
ATOM     21  C   UNL     1      45.651   5.335   9.577  0.00  0.00    +0.000 A 
ATOM     22  C   UNL     1      44.744   4.667  10.416  0.00  0.00    +0.000 A 
BRANCH  19  23
ATOM     23  C   UNL     1      46.558   2.698   7.009  0.00  0.00    +0.000 C 
ATOM     24  F   UNL     1      45.976   3.138   5.861  0.00  0.00    +0.000 F 
ATOM     25  F   UNL     1      47.890   2.950   6.875  0.00  0.00    +0.000 F 
ATOM     26  F   UNL     1      46.428   1.345   7.010  0.00  0.00    +0.000 F 
ENDBRANCH  19  23
BRANCH  17  28
ATOM     27  N   UNL     1      43.061   1.920  11.853  0.00  0.00    +0.000 NA
ATOM     28  C   UNL     1      43.730   2.518  11.122  0.00  0.00    +0.000 C 
ENDBRANCH  17  28
ENDBRANCH   1  22
TORSDOF 5
ENDMDL
MODEL 4
REMARK VINA RESULT:    -6.932      4.600      6.872
REMARK INTER + INTRA:          -9.139
REMARK INTER:                  -9.036
REMARK INTRA:                  -0.103
REMARK UNBOUND:                -0.181
REMARK  Name = 
REMARK  5 active torsions:
REMARK  status: ('A' for Active; 'I' for Inactive)
REMARK    1  A    between atoms: C_2  and  C_3
REMARK    2  A    between atoms: C_5  and  C_6
REMARK    3  A    between atoms: C_12  and  C_13
REMARK    4  A    between atoms: C_13  and  N_14
REMARK    5  A    between atoms: C_18  and  C_19
REMARK                            x       y       z     vdW  Elec       q    Type
REMARK                         _______ _______ _______ _____ _____    ______ ____
ROOT
ATOM      1  C   UNL     1      44.285   5.648  11.308  0.00  0.00    +0.000 C 
ATOM      2  C   UNL     1      42.773   5.548  11.387  0.00  0.00    +0.000 C 
ATOM      3  C   UNL     1      43.384   6.834  10.965  0.00  0.00    +0.000 C 
ENDROOT
BRANCH   1   4
ATOM      4  N   UNL     1      45.281   5.952  12.318  0.00  0.00    +0.000 N 
ATOM      5  C   UNL     1      45.995   5.146  13.180  0.00  0.00    +0.000 A 
ATOM      6  C   UNL     1      46.232   3.794  13.008  0.00  0.00    +0.000 A 
ATOM      7  C   UNL     1      46.952   3.100  13.987  0.00  0.00    +0.000 A 
ATOM      8  C   UNL     1      47.432   3.789  15.100  0.00  0.00    +0.000 A 
ATOM      9  C   UNL     1      47.185   5.148  15.172  0.00  0.00    +0.000 A 
ATOM     10  N   UNL     1      46.489   5.830  14.236  0.00  0.00    +0.000 NA
ATOM     11  H   UNL     1      45.254   6.875  12.745  0.00  0.00    +0.000 HD
BRANCH   8  12
ATOM     12  C   UNL     1      48.137   3.150  16.228  0.00  0.00    +0.000 C 
ATOM     13  N   UNL     1      47.804   3.548  17.491  0.00  0.00    +0.000 N 
ATOM     14  O   UNL     1      48.980   2.282  16.042  0.00  0.00    +0.000 OA
ATOM     15  H   UNL     1      46.967   4.073  17.699  0.00  0.00    +0.000 HD
ATOM     16  H   UNL     1      48.243   3.041  18.249  0.00  0.00    +0.000 HD
ENDBRANCH   8  12
ENDBRANCH   1   4
BRANCH   1  22
ATOM     17  C   UNL     1      44.614   3.441  10.033  0.00  0.00    +0.000 A 
ATOM     18  C   UNL     1      45.155   2.721   8.958  0.00  0.00    +0.000 A 
ATOM     19  C   UNL     1      46.017   3.349   8.045  0.00  0.00    +0.000 A 
ATOM     20  C   UNL     1      46.400   4.675   8.272  0.00  0.00    +0.000 A 
ATOM     21  C   UNL     1      45.860   5.388   9.339  0.00  0.00    +0.000 A 
ATOM     22  C   UNL     1      44.917   4.810  10.203  0.00  0.00    +0.000 A 
BRANCH  19  23
ATOM     23  C   UNL     1      46.506   2.644   6.804  0.00  0.00    +0.000 C 
ATOM     24  F   UNL     1      46.533   1.289   6.923  0.00  0.00    +0.000 F 
ATOM     25  F   UNL     1      45.710   2.910   5.730  0.00  0.00    +0.000 F 
ATOM     26  F   UNL     1      47.761   3.022   6.445  0.00  0.00    +0.000 F 
ENDBRANCH  19  23
BRANCH  17  28
ATOM     27  N   UNL     1      43.034   2.214  11.695  0.00  0.00    +0.000 NA
ATOM     28  C   UNL     1      43.743   2.763  10.962  0.00  0.00    +0.000 C 
ENDBRANCH  17  28
ENDBRANCH   1  22
TORSDOF 5
ENDMDL
MODEL 5
REMARK VINA RESULT:    -6.537      6.385      8.640
REMARK INTER + INTRA:          -8.629
REMARK INTER:                  -8.260
REMARK INTRA:                  -0.369
REMARK UNBOUND:                -0.181
REMARK  Name = 
REMARK  5 active torsions:
REMARK  status: ('A' for Active; 'I' for Inactive)
REMARK    1  A    between atoms: C_2  and  C_3
REMARK    2  A    between atoms: C_5  and  C_6
REMARK    3  A    between atoms: C_12  and  C_13
REMARK    4  A    between atoms: C_13  and  N_14
REMARK    5  A    between atoms: C_18  and  C_19
REMARK                            x       y       z     vdW  Elec       q    Type
REMARK                         _______ _______ _______ _____ _____    ______ ____
ROOT
ATOM      1  C   UNL     1      48.992   5.753  17.511  0.00  0.00    +0.000 C 
ATOM      2  C   UNL     1      48.016   5.736  18.671  0.00  0.00    +0.000 C 
ATOM      3  C   UNL     1      48.798   6.972  18.412  0.00  0.00    +0.000 C 
ENDROOT
BRANCH   1   4
ATOM      4  N   UNL     1      50.374   5.322  17.411  0.00  0.00    +0.000 N 
ATOM      5  C   UNL     1      50.958   4.074  17.477  0.00  0.00    +0.000 A 
ATOM      6  C   UNL     1      50.315   2.871  17.246  0.00  0.00    +0.000 A 
ATOM      7  C   UNL     1      51.034   1.679  17.379  0.00  0.00    +0.000 A 
ATOM      8  C   UNL     1      52.386   1.730  17.720  0.00  0.00    +0.000 A 
ATOM      9  C   UNL     1      52.960   2.977  17.891  0.00  0.00    +0.000 A 
ATOM     10  N   UNL     1      52.276   4.135  17.770  0.00  0.00    +0.000 NA
ATOM     11  H   UNL     1      51.097   5.990  17.672  0.00  0.00    +0.000 HD
BRANCH   8  12
ATOM     12  C   UNL     1      53.224   0.540  17.960  0.00  0.00    +0.000 C 
ATOM     13  N   UNL     1      52.620  -0.567  18.483  0.00  0.00    +0.000 N 
ATOM     14  O   UNL     1      54.418   0.538  17.685  0.00  0.00    +0.000 OA
ATOM     15  H   UNL     1      51.619  -0.689  18.501  0.00  0.00    +0.000 HD
ATOM     16  H   UNL     1      53.198  -1.394  18.565  0.00  0.00    +0.000 HD
ENDBRANCH   8  12
ENDBRANCH   1   4
BRANCH   1  22
ATOM     17  C   UNL     1      47.387   4.707  15.799  0.00  0.00    +0.000 A 
ATOM     18  C   UNL     1      46.749   4.731  14.549  0.00  0.00    +0.000 A 
ATOM     19  C   UNL     1      47.061   5.728  13.611  0.00  0.00    +0.000 A 
ATOM     20  C   UNL     1      48.080   6.642  13.903  0.00  0.00    +0.000 A 
ATOM     21  C   UNL     1      48.710   6.617  15.144  0.00  0.00    +0.000 A 
ATOM     22  C   UNL     1      48.339   5.694  16.135  0.00  0.00    +0.000 A 
BRANCH  19  23
ATOM     23  C   UNL     1      46.299   5.865  12.317  0.00  0.00    +0.000 C 
ATOM     24  F   UNL     1      47.046   6.371  11.298  0.00  0.00    +0.000 F 
ATOM     25  F   UNL     1      45.834   4.661  11.879  0.00  0.00    +0.000 F 
ATOM     26  F   UNL     1      45.211   6.671  12.431  0.00  0.00    +0.000 F 
ENDBRANCH  19  23
BRANCH  17  28
ATOM     27  N   UNL     1      46.771   2.824  17.484  0.00  0.00    +0.000 NA
ATOM     28  C   UNL     1      47.054   3.661  16.735  0.00  0.00    +0.000 C 
ENDBRANCH  17  28
ENDBRANCH   1  22
TORSDOF 5
ENDMDL
MODEL 6
REMARK VINA RESULT:    -6.394      4.817      7.231
REMARK INTER + INTRA:          -8.445
REMARK INTER:                  -8.088
REMARK INTRA:                  -0.356
REMARK UNBOUND:                -0.181
REMARK  Name = 
REMARK  5 active torsions:
REMARK  status: ('A' for Active; 'I' for Inactive)
REMARK    1  A    between atoms: C_2  and  C_3
REMARK    2  A    between atoms: C_5  and  C_6
REMARK    3  A    between atoms: C_12  and  C_13
REMARK    4  A    between atoms: C_13  and  N_14
REMARK    5  A    between atoms: C_18  and  C_19
REMARK                            x       y       z     vdW  Elec       q    Type
REMARK                         _______ _______ _______ _____ _____    ______ ____
ROOT
ATOM      1  C   UNL     1      48.622   5.718  16.726  0.00  0.00    +0.000 C 
ATOM      2  C   UNL     1      49.062   7.166  16.830  0.00  0.00    +0.000 C 
ATOM      3  C   UNL     1      47.995   6.675  17.739  0.00  0.00    +0.000 C 
ENDROOT
BRANCH   1   4
ATOM      4  N   UNL     1      47.650   5.068  15.866  0.00  0.00    +0.000 N 
ATOM      5  C   UNL     1      47.226   5.342  14.583  0.00  0.00    +0.000 A 
ATOM      6  C   UNL     1      47.928   6.073  13.641  0.00  0.00    +0.000 A 
ATOM      7  C   UNL     1      47.352   6.293  12.385  0.00  0.00    +0.000 A 
ATOM      8  C   UNL     1      46.097   5.756  12.103  0.00  0.00    +0.000 A 
ATOM      9  C   UNL     1      45.484   5.003  13.088  0.00  0.00    +0.000 A 
ATOM     10  N   UNL     1      46.026   4.785  14.306  0.00  0.00    +0.000 NA
ATOM     11  H   UNL     1      46.896   4.551  16.314  0.00  0.00    +0.000 HD
BRANCH   8  12
ATOM     12  C   UNL     1      45.363   5.984  10.844  0.00  0.00    +0.000 C 
ATOM     13  N   UNL     1      44.180   6.662  10.914  0.00  0.00    +0.000 N 
ATOM     14  O   UNL     1      45.804   5.593   9.771  0.00  0.00    +0.000 OA
ATOM     15  H   UNL     1      43.902   7.199  11.722  0.00  0.00    +0.000 HD
ATOM     16  H   UNL     1      43.734   6.875  10.030  0.00  0.00    +0.000 HD
ENDBRANCH   8  12
ENDBRANCH   1   4
BRANCH   1  22
ATOM     17  C   UNL     1      49.337   3.382  17.523  0.00  0.00    +0.000 A 
ATOM     18  C   UNL     1      50.340   2.456  17.846  0.00  0.00    +0.000 A 
ATOM     19  C   UNL     1      51.691   2.837  17.831  0.00  0.00    +0.000 A 
ATOM     20  C   UNL     1      52.017   4.173  17.578  0.00  0.00    +0.000 A 
ATOM     21  C   UNL     1      51.021   5.090  17.256  0.00  0.00    +0.000 A 
ATOM     22  C   UNL     1      49.674   4.705  17.163  0.00  0.00    +0.000 A 
BRANCH  19  23
ATOM     23  C   UNL     1      52.799   1.835  18.037  0.00  0.00    +0.000 C 
ATOM     24  F   UNL     1      53.727   1.839  17.043  0.00  0.00    +0.000 F 
ATOM     25  F   UNL     1      53.484   2.075  19.190  0.00  0.00    +0.000 F 
ATOM     26  F   UNL     1      52.342   0.558  18.129  0.00  0.00    +0.000 F 
ENDBRANCH  19  23
BRANCH  17  28
ATOM     27  N   UNL     1      46.849   2.626  17.576  0.00  0.00    +0.000 NA
ATOM     28  C   UNL     1      47.957   2.962  17.561  0.00  0.00    +0.000 C 
ENDBRANCH  17  28
ENDBRANCH   1  22
TORSDOF 5
ENDMDL
MODEL 7
REMARK VINA RESULT:    -6.330      4.502      6.940
REMARK INTER + INTRA:          -8.361
REMARK INTER:                  -8.132
REMARK INTRA:                  -0.228
REMARK UNBOUND:                -0.181
REMARK  Name = 
REMARK  5 active torsions:
REMARK  status: ('A' for Active; 'I' for Inactive)
REMARK    1  A    between atoms: C_2  and  C_3
REMARK    2  A    between atoms: C_5  and  C_6
REMARK    3  A    between atoms: C_12  and  C_13
REMARK    4  A    between atoms: C_13  and  N_14
REMARK    5  A    between atoms: C_18  and  C_19
REMARK                            x       y       z     vdW  Elec       q    Type
REMARK                         _______ _______ _______ _____ _____    ______ ____
ROOT
ATOM      1  C   UNL     1      43.575   5.710  11.624  0.00  0.00    +0.000 C 
ATOM      2  C   UNL     1      42.990   5.056  12.861  0.00  0.00    +0.000 C 
ATOM      3  C   UNL     1      42.064   5.597  11.832  0.00  0.00    +0.000 C 
ENDROOT
BRANCH   1   4
ATOM      4  N   UNL     1      44.023   7.067  11.375  0.00  0.00    +0.000 N 
ATOM      5  C   UNL     1      45.201   7.718  11.677  0.00  0.00    +0.000 A 
ATOM      6  C   UNL     1      46.415   7.108  11.937  0.00  0.00    +0.000 A 
ATOM      7  C   UNL     1      47.521   7.902  12.259  0.00  0.00    +0.000 A 
ATOM      8  C   UNL     1      47.381   9.289  12.290  0.00  0.00    +0.000 A 
ATOM      9  C   UNL     1      46.142   9.818  11.977  0.00  0.00    +0.000 A 
ATOM     10  N   UNL     1      45.065   9.063  11.668  0.00  0.00    +0.000 NA
ATOM     11  H   UNL     1      43.313   7.790  11.281  0.00  0.00    +0.000 HD
BRANCH   8  12
ATOM     12  C   UNL     1      48.454  10.221  12.687  0.00  0.00    +0.000 C 
ATOM     13  N   UNL     1      48.122  11.253  13.517  0.00  0.00    +0.000 N 
ATOM     14  O   UNL     1      49.605  10.067  12.300  0.00  0.00    +0.000 OA
ATOM     15  H   UNL     1      47.260  11.281  14.041  0.00  0.00    +0.000 HD
ATOM     16  H   UNL     1      48.889  11.831  13.839  0.00  0.00    +0.000 HD
ENDBRANCH   8  12
ENDBRANCH   1   4
BRANCH   1  22
ATOM     17  C   UNL     1      45.230   3.801  11.160  0.00  0.00    +0.000 A 
ATOM     18  C   UNL     1      45.821   2.884  10.277  0.00  0.00    +0.000 A 
ATOM     19  C   UNL     1      45.508   2.912   8.909  0.00  0.00    +0.000 A 
ATOM     20  C   UNL     1      44.669   3.921   8.424  0.00  0.00    +0.000 A 
ATOM     21  C   UNL     1      44.083   4.828   9.302  0.00  0.00    +0.000 A 
ATOM     22  C   UNL     1      44.301   4.753  10.686  0.00  0.00    +0.000 A 
BRANCH  19  23
ATOM     23  C   UNL     1      46.017   1.858   7.958  0.00  0.00    +0.000 C 
ATOM     24  F   UNL     1      45.625   0.597   8.285  0.00  0.00    +0.000 F 
ATOM     25  F   UNL     1      45.573   2.071   6.688  0.00  0.00    +0.000 F 
ATOM     26  F   UNL     1      47.374   1.829   7.883  0.00  0.00    +0.000 F 
ENDBRANCH  19  23
BRANCH  17  28
ATOM     27  N   UNL     1      45.884   3.715  13.676  0.00  0.00    +0.000 NA
ATOM     28  C   UNL     1      45.584   3.755  12.558  0.00  0.00    +0.000 C 
ENDBRANCH  17  28
ENDBRANCH   1  22
TORSDOF 5
ENDMDL
MODEL 8
REMARK VINA RESULT:    -6.311      4.836      7.009
REMARK INTER + INTRA:          -8.337
REMARK INTER:                  -7.676
REMARK INTRA:                  -0.661
REMARK UNBOUND:                -0.181
REMARK  Name = 
REMARK  5 active torsions:
REMARK  status: ('A' for Active; 'I' for Inactive)
REMARK    1  A    between atoms: C_2  and  C_3
REMARK    2  A    between atoms: C_5  and  C_6
REMARK    3  A    between atoms: C_12  and  C_13
REMARK    4  A    between atoms: C_13  and  N_14
REMARK    5  A    between atoms: C_18  and  C_19
REMARK                            x       y       z     vdW  Elec       q    Type
REMARK                         _______ _______ _______ _____ _____    ______ ____
ROOT
ATOM      1  C   UNL     1      44.528   4.526  12.775  0.00  0.00    +0.000 C 
ATOM      2  C   UNL     1      43.400   3.685  13.342  0.00  0.00    +0.000 C 
ATOM      3  C   UNL     1      43.170   5.136  13.123  0.00  0.00    +0.000 C 
ENDROOT
BRANCH   1   4
ATOM      4  N   UNL     1      45.643   5.196  13.418  0.00  0.00    +0.000 N 
ATOM      5  C   UNL     1      46.573   4.760  14.339  0.00  0.00    +0.000 A 
ATOM      6  C   UNL     1      46.918   3.442  14.574  0.00  0.00    +0.000 A 
ATOM      7  C   UNL     1      47.861   3.152  15.566  0.00  0.00    +0.000 A 
ATOM      8  C   UNL     1      48.447   4.196  16.279  0.00  0.00    +0.000 A 
ATOM      9  C   UNL     1      48.075   5.488  15.951  0.00  0.00    +0.000 A 
ATOM     10  N   UNL     1      47.163   5.782  14.999  0.00  0.00    +0.000 NA
ATOM     11  H   UNL     1      45.592   6.208  13.519  0.00  0.00    +0.000 HD
BRANCH   8  12
ATOM     12  C   UNL     1      49.394   4.008  17.394  0.00  0.00    +0.000 C 
ATOM     13  N   UNL     1      49.114   4.629  18.577  0.00  0.00    +0.000 N 
ATOM     14  O   UNL     1      50.392   3.308  17.270  0.00  0.00    +0.000 OA
ATOM     15  H   UNL     1      48.205   5.010  18.795  0.00  0.00    +0.000 HD
ATOM     16  H   UNL     1      49.735   4.421  19.349  0.00  0.00    +0.000 HD
ENDBRANCH   8  12
ENDBRANCH   1   4
BRANCH   1  22
ATOM     17  C   UNL     1      45.309   5.208  10.425  0.00  0.00    +0.000 A 
ATOM     18  C   UNL     1      45.706   4.868   9.123  0.00  0.00    +0.000 A 
ATOM     19  C   UNL     1      45.676   3.530   8.698  0.00  0.00    +0.000 A 
ATOM     20  C   UNL     1      45.160   2.555   9.558  0.00  0.00    +0.000 A 
ATOM     21  C   UNL     1      44.767   2.895  10.850  0.00  0.00    +0.000 A 
ATOM     22  C   UNL     1      44.888   4.209  11.329  0.00  0.00    +0.000 A 
BRANCH  19  23
ATOM     23  C   UNL     1      46.225   3.113   7.357  0.00  0.00    +0.000 C 
ATOM     24  F   UNL     1      46.600   1.806   7.307  0.00  0.00    +0.000 F 
ATOM     25  F   UNL     1      45.305   3.276   6.365  0.00  0.00    +0.000 F 
ATOM     26  F   UNL     1      47.313   3.837   6.985  0.00  0.00    +0.000 F 
ENDBRANCH  19  23
BRANCH  17  28
ATOM     27  N   UNL     1      45.377   7.707  11.144  0.00  0.00    +0.000 NA
ATOM     28  C   UNL     1      45.338   6.594  10.826  0.00  0.00    +0.000 C 
ENDBRANCH  17  28
ENDBRANCH   1  22
TORSDOF 5
ENDMDL
MODEL 9
REMARK VINA RESULT:    -6.278      5.017      6.870
REMARK INTER + INTRA:          -8.293
REMARK INTER:                  -7.851
REMARK INTRA:                  -0.442
REMARK UNBOUND:                -0.181
REMARK  Name = 
REMARK  5 active torsions:
REMARK  status: ('A' for Active; 'I' for Inactive)
REMARK    1  A    between atoms: C_2  and  C_3
REMARK    2  A    between atoms: C_5  and  C_6
REMARK    3  A    between atoms: C_12  and  C_13
REMARK    4  A    between atoms: C_13  and  N_14
REMARK    5  A    between atoms: C_18  and  C_19
REMARK                            x       y       z     vdW  Elec       q    Type
REMARK                         _______ _______ _______ _____ _____    ______ ____
ROOT
ATOM      1  C   UNL     1      47.836   3.540  16.812  0.00  0.00    +0.000 C 
ATOM      2  C   UNL     1      47.129   4.412  17.831  0.00  0.00    +0.000 C 
ATOM      3  C   UNL     1      46.825   2.959  17.800  0.00  0.00    +0.000 C 
ENDROOT
BRANCH   1   4
ATOM      4  N   UNL     1      47.529   3.239  15.426  0.00  0.00    +0.000 N 
ATOM      5  C   UNL     1      47.019   4.015  14.406  0.00  0.00    +0.000 A 
ATOM      6  C   UNL     1      47.057   5.397  14.349  0.00  0.00    +0.000 A 
ATOM      7  C   UNL     1      46.470   6.048  13.259  0.00  0.00    +0.000 A 
ATOM      8  C   UNL     1      45.880   5.293  12.246  0.00  0.00    +0.000 A 
ATOM      9  C   UNL     1      45.924   3.915  12.363  0.00  0.00    +0.000 A 
ATOM     10  N   UNL     1      46.483   3.273  13.411  0.00  0.00    +0.000 NA
ATOM     11  H   UNL     1      47.307   2.274  15.191  0.00  0.00    +0.000 HD
BRANCH   8  12
ATOM     12  C   UNL     1      45.168   5.869  11.090  0.00  0.00    +0.000 C 
ATOM     13  N   UNL     1      45.600   5.525   9.842  0.00  0.00    +0.000 N 
ATOM     14  O   UNL     1      44.211   6.620  11.242  0.00  0.00    +0.000 OA
ATOM     15  H   UNL     1      46.214   4.743   9.671  0.00  0.00    +0.000 HD
ATOM     16  H   UNL     1      45.048   5.870   9.067  0.00  0.00    +0.000 HD
ENDBRANCH   8  12
ENDBRANCH   1   4
BRANCH   1  22
ATOM     17  C   UNL     1      50.197   4.488  17.174  0.00  0.00    +0.000 A 
ATOM     18  C   UNL     1      51.556   4.301  17.469  0.00  0.00    +0.000 A 
ATOM     19  C   UNL     1      52.077   3.008  17.630  0.00  0.00    +0.000 A 
ATOM     20  C   UNL     1      51.245   1.907  17.403  0.00  0.00    +0.000 A 
ATOM     21  C   UNL     1      49.897   2.094  17.112  0.00  0.00    +0.000 A 
ATOM     22  C   UNL     1      49.333   3.378  17.049  0.00  0.00    +0.000 A 
BRANCH  19  23
ATOM     23  C   UNL     1      53.497   2.777  18.082  0.00  0.00    +0.000 C 
ATOM     24  F   UNL     1      53.637   1.700  18.903  0.00  0.00    +0.000 F 
ATOM     25  F   UNL     1      54.330   2.554  17.028  0.00  0.00    +0.000 F 
ATOM     26  F   UNL     1      54.014   3.839  18.754  0.00  0.00    +0.000 F 
ENDBRANCH  19  23
BRANCH  17  28
ATOM     27  N   UNL     1      49.308   6.911  16.856  0.00  0.00    +0.000 NA
ATOM     28  C   UNL     1      49.695   5.830  17.001  0.00  0.00    +0.000 C 
ENDBRANCH  17  28
ENDBRANCH   1  22
TORSDOF 5
ENDMDL
