MODEL 1
REMARK VINA RESULT:    -8.378      0.000      0.000
REMARK INTER + INTRA:         -13.968
REMARK INTER:                 -12.541
REMARK INTRA:                  -1.427
REMARK UNBOUND:                -1.427
REMARK  Name = 
REMARK  10 active torsions:
REMARK  status: ('A' for Active; 'I' for Inactive)
REMARK    1  A    between atoms: C_1  and  C_2
REMARK    2  A    between atoms: C_2  and  N_3
REMARK    3  A    between atoms: C_2  and  C_21
REMARK    4  A    between atoms: N_3  and  C_4
REMARK    5  A    between atoms: C_4  and  C_5
REMARK    6  A    between atoms: C_8  and  C_9
REMARK    7  A    between atoms: C_9  and  C_10
REMARK    8  A    between atoms: C_10  and  C_11
REMARK    9  A    between atoms: C_11  and  O_12
REMARK   10  A    between atoms: C_11  and  C_13
REMARK                            x       y       z     vdW  Elec       q    Type
REMARK                         _______ _______ _______ _____ _____    ______ ____
ROOT
ATOM      1  C   UNL     1      46.229   7.228  12.387  0.00  0.00    +0.000 A 
ATOM      2  C   UNL     1      46.676   6.618  11.206  0.00  0.00    +0.000 A 
ATOM      3  C   UNL     1      45.888   5.667  10.556  0.00  0.00    +0.000 A 
ATOM      4  C   UNL     1      44.643   5.294  11.078  0.00  0.00    +0.000 A 
ATOM      5  C   UNL     1      44.204   5.892  12.266  0.00  0.00    +0.000 A 
ATOM      6  C   UNL     1      44.989   6.850  12.914  0.00  0.00    +0.000 A 
ENDROOT
BRANCH   1   7
ATOM      7  C   UNL     1      47.075   8.279  13.067  0.00  0.00    +0.000 C 
BRANCH   7   8
ATOM      8  N   UNL     1      47.483   7.828  14.397  0.00  0.00    +0.000 NA
ATOM      9  H   UNL     1      46.726   7.264  14.784  0.00  0.00    +0.000 HD
BRANCH   8  11
ATOM     10  C   UNL     1      49.955   7.778  13.949  0.00  0.00    +0.000 C 
ATOM     11  C   UNL     1      48.701   7.012  14.398  0.00  0.00    +0.000 C 
BRANCH  11  12
ATOM     12  C   UNL     1      48.883   6.496  15.816  0.00  0.00    +0.000 A 
ATOM     13  C   UNL     1      49.707   7.087  16.763  0.00  0.00    +0.000 A 
ATOM     14  S   UNL     1      49.788   6.220  18.230  0.00  0.00    +0.000 S 
ATOM     15  C   UNL     1      48.733   5.020  17.644  0.00  0.00    +0.000 A 
ATOM     16  N   UNL     1      48.429   3.921  18.391  0.00  0.00    +0.000 NA
ATOM     17  C   UNL     1      47.637   3.091  17.800  0.00  0.00    +0.000 A 
ATOM     18  N   UNL     1      47.100   3.261  16.552  0.00  0.00    +0.000 N 
ATOM     19  C   UNL     1      47.307   4.394  15.800  0.00  0.00    +0.000 A 
ATOM     20  O   UNL     1      46.700   4.587  14.751  0.00  0.00    +0.000 OA
ATOM     21  C   UNL     1      48.274   5.316  16.370  0.00  0.00    +0.000 A 
ATOM     22  H   UNL     1      46.446   2.591  16.173  0.00  0.00    +0.000 HD
ENDBRANCH  11  12
ENDBRANCH   8  11
ENDBRANCH   7   8
ENDBRANCH   1   7
BRANCH   4  23
ATOM     23  C   UNL     1      43.772   4.293  10.356  0.00  0.00    +0.000 C 
BRANCH  23  24
ATOM     24  C   UNL     1      44.361   3.882   9.004  0.00  0.00    +0.000 C 
BRANCH  24  25
ATOM     25  C   UNL     1      45.214   2.611   9.098  0.00  0.00    +0.000 C 
BRANCH  25  26
ATOM     26  C   UNL     1      46.072   2.466   7.863  0.00  0.00    +0.000 A 
ATOM     27  C   UNL     1      46.162   3.451   6.875  0.00  0.00    +0.000 A 
ATOM     28  C   UNL     1      47.038   3.283   5.805  0.00  0.00    +0.000 A 
ATOM     29  C   UNL     1      47.803   2.131   5.757  0.00  0.00    +0.000 A 
ATOM     30  N   UNL     1      47.747   1.156   6.687  0.00  0.00    +0.000 NA
ATOM     31  C   UNL     1      46.887   1.345   7.714  0.00  0.00    +0.000 A 
ENDBRANCH  25  26
BRANCH  25  32
ATOM     32  O   UNL     1      44.390   1.460   9.273  0.00  0.00    +0.000 OA
ATOM     33  H   UNL     1      43.856   1.349   8.470  0.00  0.00    +0.000 HD
ENDBRANCH  25  32
ENDBRANCH  24  25
ENDBRANCH  23  24
ENDBRANCH   4  23
TORSDOF 9
ENDMDL
MODEL 2
REMARK VINA RESULT:    -8.231      2.269      2.844
REMARK INTER + INTRA:         -13.747
REMARK INTER:                 -12.957
REMARK INTRA:                  -0.790
REMARK UNBOUND:                -1.427
REMARK  Name = 
REMARK  10 active torsions:
REMARK  status: ('A' for Active; 'I' for Inactive)
REMARK    1  A    between atoms: C_1  and  C_2
REMARK    2  A    between atoms: C_2  and  N_3
REMARK    3  A    between atoms: C_2  and  C_21
REMARK    4  A    between atoms: N_3  and  C_4
REMARK    5  A    between atoms: C_4  and  C_5
REMARK    6  A    between atoms: C_8  and  C_9
REMARK    7  A    between atoms: C_9  and  C_10
REMARK    8  A    between atoms: C_10  and  C_11
REMARK    9  A    between atoms: C_11  and  O_12
REMARK   10  A    between atoms: C_11  and  C_13
REMARK                            x       y       z     vdW  Elec       q    Type
REMARK                         _______ _______ _______ _____ _____    ______ ____
ROOT
ATOM      1  C   UNL     1      47.287   5.911  13.940  0.00  0.00    +0.000 A 
ATOM      2  C   UNL     1      47.008   6.782  12.877  0.00  0.00    +0.000 A 
ATOM      3  C   UNL     1      46.031   6.461  11.934  0.00  0.00    +0.000 A 
ATOM      4  C   UNL     1      45.321   5.257  12.023  0.00  0.00    +0.000 A 
ATOM      5  C   UNL     1      45.611   4.380  13.075  0.00  0.00    +0.000 A 
ATOM      6  C   UNL     1      46.584   4.704  14.025  0.00  0.00    +0.000 A 
ENDROOT
BRANCH   1   7
ATOM      7  C   UNL     1      48.324   6.281  14.975  0.00  0.00    +0.000 C 
BRANCH   7   8
ATOM      8  N   UNL     1      48.569   5.160  15.880  0.00  0.00    +0.000 NA
ATOM      9  H   UNL     1      49.455   4.729  15.616  0.00  0.00    +0.000 HD
BRANCH   8  11
ATOM     10  C   UNL     1      47.477   5.051  18.141  0.00  0.00    +0.000 C 
ATOM     11  C   UNL     1      48.657   5.547  17.292  0.00  0.00    +0.000 C 
BRANCH  11  12
ATOM     12  C   UNL     1      49.961   4.976  17.824  0.00  0.00    +0.000 A 
ATOM     13  C   UNL     1      50.911   5.713  18.517  0.00  0.00    +0.000 A 
ATOM     14  S   UNL     1      52.318   4.825  18.893  0.00  0.00    +0.000 S 
ATOM     15  C   UNL     1      51.710   3.430  18.132  0.00  0.00    +0.000 A 
ATOM     16  N   UNL     1      52.460   2.297  18.030  0.00  0.00    +0.000 NA
ATOM     17  C   UNL     1      51.870   1.334  17.405  0.00  0.00    +0.000 A 
ATOM     18  N   UNL     1      50.599   1.382  16.897  0.00  0.00    +0.000 N 
ATOM     19  C   UNL     1      49.774   2.472  17.054  0.00  0.00    +0.000 A 
ATOM     20  O   UNL     1      48.594   2.436  16.719  0.00  0.00    +0.000 OA
ATOM     21  C   UNL     1      50.421   3.624  17.658  0.00  0.00    +0.000 A 
ATOM     22  H   UNL     1      50.184   0.571  16.462  0.00  0.00    +0.000 HD
ENDBRANCH  11  12
ENDBRANCH   8  11
ENDBRANCH   7   8
ENDBRANCH   1   7
BRANCH   4  23
ATOM     23  C   UNL     1      44.237   4.924  11.024  0.00  0.00    +0.000 C 
BRANCH  23  24
ATOM     24  C   UNL     1      44.611   3.732  10.140  0.00  0.00    +0.000 C 
BRANCH  24  25
ATOM     25  C   UNL     1      44.923   4.147   8.696  0.00  0.00    +0.000 C 
BRANCH  25  26
ATOM     26  C   UNL     1      45.731   3.073   8.008  0.00  0.00    +0.000 A 
ATOM     27  C   UNL     1      46.529   3.317   6.886  0.00  0.00    +0.000 A 
ATOM     28  C   UNL     1      47.312   2.295   6.354  0.00  0.00    +0.000 A 
ATOM     29  C   UNL     1      47.275   1.055   6.965  0.00  0.00    +0.000 A 
ATOM     30  N   UNL     1      46.520   0.775   8.047  0.00  0.00    +0.000 NA
ATOM     31  C   UNL     1      45.769   1.786   8.541  0.00  0.00    +0.000 A 
ENDBRANCH  25  26
BRANCH  25  32
ATOM     32  O   UNL     1      45.616   5.393   8.667  0.00  0.00    +0.000 OA
ATOM     33  H   UNL     1      46.397   5.315   9.238  0.00  0.00    +0.000 HD
ENDBRANCH  25  32
ENDBRANCH  24  25
ENDBRANCH  23  24
ENDBRANCH   4  23
TORSDOF 9
ENDMDL
MODEL 3
REMARK VINA RESULT:    -8.002      1.579      1.956
REMARK INTER + INTRA:         -13.405
REMARK INTER:                 -12.040
REMARK INTRA:                  -1.365
REMARK UNBOUND:                -1.427
REMARK  Name = 
REMARK  10 active torsions:
REMARK  status: ('A' for Active; 'I' for Inactive)
REMARK    1  A    between atoms: C_1  and  C_2
REMARK    2  A    between atoms: C_2  and  N_3
REMARK    3  A    between atoms: C_2  and  C_21
REMARK    4  A    between atoms: N_3  and  C_4
REMARK    5  A    between atoms: C_4  and  C_5
REMARK    6  A    between atoms: C_8  and  C_9
REMARK    7  A    between atoms: C_9  and  C_10
REMARK    8  A    between atoms: C_10  and  C_11
REMARK    9  A    between atoms: C_11  and  O_12
REMARK   10  A    between atoms: C_11  and  C_13
REMARK                            x       y       z     vdW  Elec       q    Type
REMARK                         _______ _______ _______ _____ _____    ______ ____
ROOT
ATOM      1  C   UNL     1      47.286   6.251  12.904  0.00  0.00    +0.000 A 
ATOM      2  C   UNL     1      46.523   5.261  13.538  0.00  0.00    +0.000 A 
ATOM      3  C   UNL     1      45.423   4.692  12.896  0.00  0.00    +0.000 A 
ATOM      4  C   UNL     1      45.050   5.111  11.612  0.00  0.00    +0.000 A 
ATOM      5  C   UNL     1      45.803   6.112  10.985  0.00  0.00    +0.000 A 
ATOM      6  C   UNL     1      46.911   6.676  11.624  0.00  0.00    +0.000 A 
ENDROOT
BRANCH   1   7
ATOM      7  C   UNL     1      48.496   6.838  13.593  0.00  0.00    +0.000 C 
BRANCH   7   8
ATOM      8  N   UNL     1      48.731   6.172  14.873  0.00  0.00    +0.000 NA
ATOM      9  H   UNL     1      49.113   5.246  14.680  0.00  0.00    +0.000 HD
BRANCH   8  11
ATOM     10  C   UNL     1      50.055   8.277  15.233  0.00  0.00    +0.000 C 
ATOM     11  C   UNL     1      49.677   6.879  15.743  0.00  0.00    +0.000 C 
BRANCH  11  12
ATOM     12  C   UNL     1      49.023   6.980  17.112  0.00  0.00    +0.000 A 
ATOM     13  C   UNL     1      48.467   8.142  17.627  0.00  0.00    +0.000 A 
ATOM     14  S   UNL     1      47.904   7.974  19.229  0.00  0.00    +0.000 S 
ATOM     15  C   UNL     1      48.396   6.345  19.290  0.00  0.00    +0.000 A 
ATOM     16  N   UNL     1      48.267   5.611  20.431  0.00  0.00    +0.000 NA
ATOM     17  C   UNL     1      48.707   4.402  20.327  0.00  0.00    +0.000 A 
ATOM     18  N   UNL     1      49.237   3.848  19.192  0.00  0.00    +0.000 N 
ATOM     19  C   UNL     1      49.304   4.523  17.995  0.00  0.00    +0.000 A 
ATOM     20  O   UNL     1      49.647   3.959  16.960  0.00  0.00    +0.000 OA
ATOM     21  C   UNL     1      48.920   5.921  18.079  0.00  0.00    +0.000 A 
ATOM     22  H   UNL     1      49.516   2.878  19.171  0.00  0.00    +0.000 HD
ENDBRANCH  11  12
ENDBRANCH   8  11
ENDBRANCH   7   8
ENDBRANCH   1   7
BRANCH   4  23
ATOM     23  C   UNL     1      43.881   4.471  10.899  0.00  0.00    +0.000 C 
BRANCH  23  24
ATOM     24  C   UNL     1      44.253   3.991   9.494  0.00  0.00    +0.000 C 
BRANCH  24  25
ATOM     25  C   UNL     1      44.972   2.635   9.509  0.00  0.00    +0.000 C 
BRANCH  25  26
ATOM     26  C   UNL     1      45.791   2.466   8.251  0.00  0.00    +0.000 A 
ATOM     27  C   UNL     1      45.971   3.486   7.312  0.00  0.00    +0.000 A 
ATOM     28  C   UNL     1      46.807   3.283   6.217  0.00  0.00    +0.000 A 
ATOM     29  C   UNL     1      47.443   2.060   6.096  0.00  0.00    +0.000 A 
ATOM     30  N   UNL     1      47.298   1.049   6.976  0.00  0.00    +0.000 NA
ATOM     31  C   UNL     1      46.478   1.274   8.029  0.00  0.00    +0.000 A 
ENDBRANCH  25  26
BRANCH  25  32
ATOM     32  O   UNL     1      44.036   1.568   9.646  0.00  0.00    +0.000 OA
ATOM     33  H   UNL     1      44.184   1.149  10.509  0.00  0.00    +0.000 HD
ENDBRANCH  25  32
ENDBRANCH  24  25
ENDBRANCH  23  24
ENDBRANCH   4  23
TORSDOF 9
ENDMDL
MODEL 4
REMARK VINA RESULT:    -7.839      2.192      2.912
REMARK INTER + INTRA:         -13.160
REMARK INTER:                 -11.938
REMARK INTRA:                  -1.222
REMARK UNBOUND:                -1.427
REMARK  Name = 
REMARK  10 active torsions:
REMARK  status: ('A' for Active; 'I' for Inactive)
REMARK    1  A    between atoms: C_1  and  C_2
REMARK    2  A    between atoms: C_2  and  N_3
REMARK    3  A    between atoms: C_2  and  C_21
REMARK    4  A    between atoms: N_3  and  C_4
REMARK    5  A    between atoms: C_4  and  C_5
REMARK    6  A    between atoms: C_8  and  C_9
REMARK    7  A    between atoms: C_9  and  C_10
REMARK    8  A    between atoms: C_10  and  C_11
REMARK    9  A    between atoms: C_11  and  O_12
REMARK   10  A    between atoms: C_11  and  C_13
REMARK                            x       y       z     vdW  Elec       q    Type
REMARK                         _______ _______ _______ _____ _____    ______ ____
ROOT
ATOM      1  C   UNL     1      47.888   6.771  13.864  0.00  0.00    +0.000 A 
ATOM      2  C   UNL     1      47.217   5.544  13.948  0.00  0.00    +0.000 A 
ATOM      3  C   UNL     1      46.345   5.140  12.935  0.00  0.00    +0.000 A 
ATOM      4  C   UNL     1      46.112   5.962  11.824  0.00  0.00    +0.000 A 
ATOM      5  C   UNL     1      46.771   7.195  11.749  0.00  0.00    +0.000 A 
ATOM      6  C   UNL     1      47.650   7.596  12.758  0.00  0.00    +0.000 A 
ENDROOT
BRANCH   1   7
ATOM      7  C   UNL     1      48.854   7.186  14.949  0.00  0.00    +0.000 C 
BRANCH   7   8
ATOM      8  N   UNL     1      48.149   7.399  16.211  0.00  0.00    +0.000 NA
ATOM      9  H   UNL     1      47.255   6.911  16.159  0.00  0.00    +0.000 HD
BRANCH   8  11
ATOM     10  C   UNL     1      48.319   7.421  18.718  0.00  0.00    +0.000 C 
ATOM     11  C   UNL     1      48.871   6.895  17.385  0.00  0.00    +0.000 C 
BRANCH  11  12
ATOM     12  C   UNL     1      48.778   5.379  17.341  0.00  0.00    +0.000 A 
ATOM     13  C   UNL     1      47.584   4.670  17.320  0.00  0.00    +0.000 A 
ATOM     14  S   UNL     1      47.798   2.979  17.379  0.00  0.00    +0.000 S 
ATOM     15  C   UNL     1      49.491   3.138  17.446  0.00  0.00    +0.000 A 
ATOM     16  N   UNL     1      50.298   2.048  17.583  0.00  0.00    +0.000 NA
ATOM     17  C   UNL     1      51.555   2.334  17.643  0.00  0.00    +0.000 A 
ATOM     18  N   UNL     1      52.086   3.593  17.554  0.00  0.00    +0.000 N 
ATOM     19  C   UNL     1      51.318   4.711  17.327  0.00  0.00    +0.000 A 
ATOM     20  O   UNL     1      51.828   5.805  17.107  0.00  0.00    +0.000 OA
ATOM     21  C   UNL     1      49.887   4.463  17.355  0.00  0.00    +0.000 A 
ATOM     22  H   UNL     1      53.086   3.735  17.560  0.00  0.00    +0.000 HD
ENDBRANCH  11  12
ENDBRANCH   8  11
ENDBRANCH   7   8
ENDBRANCH   1   7
BRANCH   4  23
ATOM     23  C   UNL     1      45.198   5.511  10.709  0.00  0.00    +0.000 C 
BRANCH  23  24
ATOM     24  C   UNL     1      45.025   3.990  10.681  0.00  0.00    +0.000 C 
BRANCH  24  25
ATOM     25  C   UNL     1      44.361   3.499   9.389  0.00  0.00    +0.000 C 
BRANCH  25  26
ATOM     26  C   UNL     1      45.385   2.846   8.491  0.00  0.00    +0.000 A 
ATOM     27  C   UNL     1      46.149   3.556   7.560  0.00  0.00    +0.000 A 
ATOM     28  C   UNL     1      47.134   2.901   6.825  0.00  0.00    +0.000 A 
ATOM     29  C   UNL     1      47.328   1.549   7.047  0.00  0.00    +0.000 A 
ATOM     30  N   UNL     1      46.614   0.825   7.934  0.00  0.00    +0.000 NA
ATOM     31  C   UNL     1      45.664   1.488   8.632  0.00  0.00    +0.000 A 
ENDBRANCH  25  26
BRANCH  25  32
ATOM     32  O   UNL     1      43.714   4.575   8.712  0.00  0.00    +0.000 OA
ATOM     33  H   UNL     1      43.341   5.170   9.383  0.00  0.00    +0.000 HD
ENDBRANCH  25  32
ENDBRANCH  24  25
ENDBRANCH  23  24
ENDBRANCH   4  23
TORSDOF 9
ENDMDL
MODEL 5
REMARK VINA RESULT:    -7.444      2.469      3.375
REMARK INTER + INTRA:         -12.569
REMARK INTER:                 -11.604
REMARK INTRA:                  -0.964
REMARK UNBOUND:                -1.427
REMARK  Name = 
REMARK  10 active torsions:
REMARK  status: ('A' for Active; 'I' for Inactive)
REMARK    1  A    between atoms: C_1  and  C_2
REMARK    2  A    between atoms: C_2  and  N_3
REMARK    3  A    between atoms: C_2  and  C_21
REMARK    4  A    between atoms: N_3  and  C_4
REMARK    5  A    between atoms: C_4  and  C_5
REMARK    6  A    between atoms: C_8  and  C_9
REMARK    7  A    between atoms: C_9  and  C_10
REMARK    8  A    between atoms: C_10  and  C_11
REMARK    9  A    between atoms: C_11  and  O_12
REMARK   10  A    between atoms: C_11  and  C_13
REMARK                            x       y       z     vdW  Elec       q    Type
REMARK                         _______ _______ _______ _____ _____    ______ ____
ROOT
ATOM      1  C   UNL     1      46.919   5.546  13.769  0.00  0.00    +0.000 A 
ATOM      2  C   UNL     1      46.081   4.425  13.821  0.00  0.00    +0.000 A 
ATOM      3  C   UNL     1      45.131   4.200  12.823  0.00  0.00    +0.000 A 
ATOM      4  C   UNL     1      44.988   5.100  11.759  0.00  0.00    +0.000 A 
ATOM      5  C   UNL     1      45.815   6.229  11.716  0.00  0.00    +0.000 A 
ATOM      6  C   UNL     1      46.772   6.450  12.710  0.00  0.00    +0.000 A 
ENDROOT
BRANCH   1   7
ATOM      7  C   UNL     1      47.966   5.764  14.836  0.00  0.00    +0.000 C 
BRANCH   7   8
ATOM      8  N   UNL     1      47.570   5.115  16.084  0.00  0.00    +0.000 NA
ATOM      9  H   UNL     1      47.792   4.122  16.007  0.00  0.00    +0.000 HD
BRANCH   8  11
ATOM     10  C   UNL     1      47.481   5.422  18.577  0.00  0.00    +0.000 C 
ATOM     11  C   UNL     1      48.257   5.640  17.269  0.00  0.00    +0.000 C 
BRANCH  11  12
ATOM     12  C   UNL     1      49.607   4.945  17.339  0.00  0.00    +0.000 A 
ATOM     13  C   UNL     1      49.779   3.604  17.651  0.00  0.00    +0.000 A 
ATOM     14  S   UNL     1      51.416   3.136  17.756  0.00  0.00    +0.000 S 
ATOM     15  C   UNL     1      51.949   4.713  17.400  0.00  0.00    +0.000 A 
ATOM     16  N   UNL     1      53.275   5.027  17.400  0.00  0.00    +0.000 NA
ATOM     17  C   UNL     1      53.517   6.267  17.136  0.00  0.00    +0.000 A 
ATOM     18  N   UNL     1      52.572   7.214  16.847  0.00  0.00    +0.000 N 
ATOM     19  C   UNL     1      51.231   6.923  16.748  0.00  0.00    +0.000 A 
ATOM     20  O   UNL     1      50.422   7.754  16.346  0.00  0.00    +0.000 OA
ATOM     21  C   UNL     1      50.888   5.566  17.137  0.00  0.00    +0.000 A 
ATOM     22  H   UNL     1      52.840   8.156  16.601  0.00  0.00    +0.000 HD
ENDBRANCH  11  12
ENDBRANCH   8  11
ENDBRANCH   7   8
ENDBRANCH   1   7
BRANCH   4  23
ATOM     23  C   UNL     1      43.986   4.841  10.658  0.00  0.00    +0.000 C 
BRANCH  23  24
ATOM     24  C   UNL     1      44.371   3.633   9.799  0.00  0.00    +0.000 C 
BRANCH  24  25
ATOM     25  C   UNL     1      44.895   4.040   8.416  0.00  0.00    +0.000 C 
BRANCH  25  26
ATOM     26  C   UNL     1      45.787   2.958   7.857  0.00  0.00    +0.000 A 
ATOM     27  C   UNL     1      46.730   3.188   6.850  0.00  0.00    +0.000 A 
ATOM     28  C   UNL     1      47.576   2.159   6.442  0.00  0.00    +0.000 A 
ATOM     29  C   UNL     1      47.454   0.927   7.058  0.00  0.00    +0.000 A 
ATOM     30  N   UNL     1      46.559   0.660   8.031  0.00  0.00    +0.000 NA
ATOM     31  C   UNL     1      45.750   1.678   8.406  0.00  0.00    +0.000 A 
ENDBRANCH  25  26
BRANCH  25  32
ATOM     32  O   UNL     1      45.594   5.281   8.485  0.00  0.00    +0.000 OA
ATOM     33  H   UNL     1      44.949   5.997   8.364  0.00  0.00    +0.000 HD
ENDBRANCH  25  32
ENDBRANCH  24  25
ENDBRANCH  23  24
ENDBRANCH   4  23
TORSDOF 9
ENDMDL
MODEL 6
REMARK VINA RESULT:    -7.268      1.698      2.226
REMARK INTER + INTRA:         -12.306
REMARK INTER:                 -11.376
REMARK INTRA:                  -0.930
REMARK UNBOUND:                -1.427
REMARK  Name = 
REMARK  10 active torsions:
REMARK  status: ('A' for Active; 'I' for Inactive)
REMARK    1  A    between atoms: C_1  and  C_2
REMARK    2  A    between atoms: C_2  and  N_3
REMARK    3  A    between atoms: C_2  and  C_21
REMARK    4  A    between atoms: N_3  and  C_4
REMARK    5  A    between atoms: C_4  and  C_5
REMARK    6  A    between atoms: C_8  and  C_9
REMARK    7  A    between atoms: C_9  and  C_10
REMARK    8  A    between atoms: C_10  and  C_11
REMARK    9  A    between atoms: C_11  and  O_12
REMARK   10  A    between atoms: C_11  and  C_13
REMARK                            x       y       z     vdW  Elec       q    Type
REMARK                         _______ _______ _______ _____ _____    ______ ____
ROOT
ATOM      1  C   UNL     1      47.518   6.533  13.599  0.00  0.00    +0.000 A 
ATOM      2  C   UNL     1      47.089   7.075  12.379  0.00  0.00    +0.000 A 
ATOM      3  C   UNL     1      46.129   6.418  11.608  0.00  0.00    +0.000 A 
ATOM      4  C   UNL     1      45.587   5.198  12.031  0.00  0.00    +0.000 A 
ATOM      5  C   UNL     1      46.027   4.648  13.242  0.00  0.00    +0.000 A 
ATOM      6  C   UNL     1      46.983   5.310  14.018  0.00  0.00    +0.000 A 
ENDROOT
BRANCH   1   7
ATOM      7  C   UNL     1      48.534   7.267  14.442  0.00  0.00    +0.000 C 
BRANCH   7   8
ATOM      8  N   UNL     1      48.125   7.278  15.846  0.00  0.00    +0.000 NA
ATOM      9  H   UNL     1      47.950   6.314  16.130  0.00  0.00    +0.000 HD
BRANCH   8  11
ATOM     10  C   UNL     1      48.551   8.343  18.082  0.00  0.00    +0.000 C 
ATOM     11  C   UNL     1      49.132   7.840  16.751  0.00  0.00    +0.000 C 
BRANCH  11  12
ATOM     12  C   UNL     1      50.154   6.745  17.007  0.00  0.00    +0.000 A 
ATOM     13  C   UNL     1      51.528   6.941  16.994  0.00  0.00    +0.000 A 
ATOM     14  S   UNL     1      52.421   5.504  17.209  0.00  0.00    +0.000 S 
ATOM     15  C   UNL     1      51.002   4.570  17.315  0.00  0.00    +0.000 A 
ATOM     16  N   UNL     1      51.056   3.213  17.434  0.00  0.00    +0.000 NA
ATOM     17  C   UNL     1      49.897   2.647  17.477  0.00  0.00    +0.000 A 
ATOM     18  N   UNL     1      48.694   3.301  17.440  0.00  0.00    +0.000 N 
ATOM     19  C   UNL     1      48.592   4.672  17.410  0.00  0.00    +0.000 A 
ATOM     20  O   UNL     1      47.509   5.237  17.525  0.00  0.00    +0.000 OA
ATOM     21  C   UNL     1      49.863   5.358  17.255  0.00  0.00    +0.000 A 
ATOM     22  H   UNL     1      47.826   2.793  17.529  0.00  0.00    +0.000 HD
ENDBRANCH  11  12
ENDBRANCH   8  11
ENDBRANCH   7   8
ENDBRANCH   1   7
BRANCH   4  23
ATOM     23  C   UNL     1      44.521   4.503  11.217  0.00  0.00    +0.000 C 
BRANCH  23  24
ATOM     24  C   UNL     1      45.055   3.256  10.507  0.00  0.00    +0.000 C 
BRANCH  24  25
ATOM     25  C   UNL     1      44.519   3.121   9.076  0.00  0.00    +0.000 C 
BRANCH  25  26
ATOM     26  C   UNL     1      45.619   2.663   8.148  0.00  0.00    +0.000 A 
ATOM     27  C   UNL     1      46.201   1.394   8.219  0.00  0.00    +0.000 A 
ATOM     28  C   UNL     1      47.153   1.013   7.276  0.00  0.00    +0.000 A 
ATOM     29  C   UNL     1      47.494   1.916   6.286  0.00  0.00    +0.000 A 
ATOM     30  N   UNL     1      46.960   3.150   6.180  0.00  0.00    +0.000 NA
ATOM     31  C   UNL     1      46.039   3.493   7.110  0.00  0.00    +0.000 A 
ENDBRANCH  25  26
BRANCH  25  32
ATOM     32  O   UNL     1      43.963   4.355   8.626  0.00  0.00    +0.000 OA
ATOM     33  H   UNL     1      43.182   4.548   9.169  0.00  0.00    +0.000 HD
ENDBRANCH  25  32
ENDBRANCH  24  25
ENDBRANCH  23  24
ENDBRANCH   4  23
TORSDOF 9
ENDMDL
MODEL 7
REMARK VINA RESULT:    -7.075      3.266      7.984
REMARK INTER + INTRA:         -12.017
REMARK INTER:                 -10.187
REMARK INTRA:                  -1.830
REMARK UNBOUND:                -1.427
REMARK  Name = 
REMARK  10 active torsions:
REMARK  status: ('A' for Active; 'I' for Inactive)
REMARK    1  A    between atoms: C_1  and  C_2
REMARK    2  A    between atoms: C_2  and  N_3
REMARK    3  A    between atoms: C_2  and  C_21
REMARK    4  A    between atoms: N_3  and  C_4
REMARK    5  A    between atoms: C_4  and  C_5
REMARK    6  A    between atoms: C_8  and  C_9
REMARK    7  A    between atoms: C_9  and  C_10
REMARK    8  A    between atoms: C_10  and  C_11
REMARK    9  A    between atoms: C_11  and  O_12
REMARK   10  A    between atoms: C_11  and  C_13
REMARK                            x       y       z     vdW  Elec       q    Type
REMARK                         _______ _______ _______ _____ _____    ______ ____
ROOT
ATOM      1  C   UNL     1      48.605   8.143  13.646  0.00  0.00    +0.000 A 
ATOM      2  C   UNL     1      49.315   7.039  14.138  0.00  0.00    +0.000 A 
ATOM      3  C   UNL     1      49.510   6.873  15.510  0.00  0.00    +0.000 A 
ATOM      4  C   UNL     1      49.012   7.814  16.420  0.00  0.00    +0.000 A 
ATOM      5  C   UNL     1      48.317   8.925  15.928  0.00  0.00    +0.000 A 
ATOM      6  C   UNL     1      48.115   9.088  14.554  0.00  0.00    +0.000 A 
ENDROOT
BRANCH   1   7
ATOM      7  C   UNL     1      48.372   8.298  12.162  0.00  0.00    +0.000 C 
BRANCH   7   8
ATOM      8  N   UNL     1      47.784   7.081  11.604  0.00  0.00    +0.000 NA
ATOM      9  H   UNL     1      48.335   6.287  11.929  0.00  0.00    +0.000 HD
BRANCH   8  11
ATOM     10  C   UNL     1      45.508   8.110  11.883  0.00  0.00    +0.000 C 
ATOM     11  C   UNL     1      46.391   6.859  12.005  0.00  0.00    +0.000 C 
BRANCH  11  12
ATOM     12  C   UNL     1      45.850   5.749  11.119  0.00  0.00    +0.000 A 
ATOM     13  C   UNL     1      46.008   5.703   9.741  0.00  0.00    +0.000 A 
ATOM     14  S   UNL     1      45.200   4.391   9.008  0.00  0.00    +0.000 S 
ATOM     15  C   UNL     1      44.604   3.847  10.506  0.00  0.00    +0.000 A 
ATOM     16  N   UNL     1      43.762   2.778  10.586  0.00  0.00    +0.000 NA
ATOM     17  C   UNL     1      43.378   2.505  11.787  0.00  0.00    +0.000 A 
ATOM     18  N   UNL     1      43.771   3.174  12.916  0.00  0.00    +0.000 N 
ATOM     19  C   UNL     1      44.687   4.200  12.893  0.00  0.00    +0.000 A 
ATOM     20  O   UNL     1      45.131   4.686  13.928  0.00  0.00    +0.000 OA
ATOM     21  C   UNL     1      45.073   4.620  11.557  0.00  0.00    +0.000 A 
ATOM     22  H   UNL     1      43.467   2.871  13.830  0.00  0.00    +0.000 HD
ENDBRANCH  11  12
ENDBRANCH   8  11
ENDBRANCH   7   8
ENDBRANCH   1   7
BRANCH   4  23
ATOM     23  C   UNL     1      49.189   7.618  17.908  0.00  0.00    +0.000 C 
BRANCH  23  24
ATOM     24  C   UNL     1      47.893   7.174  18.591  0.00  0.00    +0.000 C 
BRANCH  24  25
ATOM     25  C   UNL     1      48.044   5.833  19.321  0.00  0.00    +0.000 C 
BRANCH  25  26
ATOM     26  C   UNL     1      48.228   4.714  18.323  0.00  0.00    +0.000 A 
ATOM     27  C   UNL     1      49.387   3.937  18.251  0.00  0.00    +0.000 A 
ATOM     28  C   UNL     1      49.453   2.868  17.360  0.00  0.00    +0.000 A 
ATOM     29  C   UNL     1      48.350   2.606  16.567  0.00  0.00    +0.000 A 
ATOM     30  N   UNL     1      47.212   3.330  16.603  0.00  0.00    +0.000 NA
ATOM     31  C   UNL     1      47.178   4.363  17.476  0.00  0.00    +0.000 A 
ENDBRANCH  25  26
BRANCH  25  32
ATOM     32  O   UNL     1      46.915   5.581  20.154  0.00  0.00    +0.000 OA
ATOM     33  H   UNL     1      46.885   6.273  20.836  0.00  0.00    +0.000 HD
ENDBRANCH  25  32
ENDBRANCH  24  25
ENDBRANCH  23  24
ENDBRANCH   4  23
TORSDOF 9
ENDMDL
MODEL 8
REMARK VINA RESULT:    -6.676      2.785      8.281
REMARK INTER + INTRA:         -11.420
REMARK INTER:                  -9.969
REMARK INTRA:                  -1.451
REMARK UNBOUND:                -1.427
REMARK  Name = 
REMARK  10 active torsions:
REMARK  status: ('A' for Active; 'I' for Inactive)
REMARK    1  A    between atoms: C_1  and  C_2
REMARK    2  A    between atoms: C_2  and  N_3
REMARK    3  A    between atoms: C_2  and  C_21
REMARK    4  A    between atoms: N_3  and  C_4
REMARK    5  A    between atoms: C_4  and  C_5
REMARK    6  A    between atoms: C_8  and  C_9
REMARK    7  A    between atoms: C_9  and  C_10
REMARK    8  A    between atoms: C_10  and  C_11
REMARK    9  A    between atoms: C_11  and  O_12
REMARK   10  A    between atoms: C_11  and  C_13
REMARK                            x       y       z     vdW  Elec       q    Type
REMARK                         _______ _______ _______ _____ _____    ______ ____
ROOT
ATOM      1  C   UNL     1      48.150   7.739  13.183  0.00  0.00    +0.000 A 
ATOM      2  C   UNL     1      48.920   6.816  13.903  0.00  0.00    +0.000 A 
ATOM      3  C   UNL     1      49.272   7.065  15.230  0.00  0.00    +0.000 A 
ATOM      4  C   UNL     1      48.874   8.250  15.863  0.00  0.00    +0.000 A 
ATOM      5  C   UNL     1      48.118   9.180  15.138  0.00  0.00    +0.000 A 
ATOM      6  C   UNL     1      47.759   8.927  13.811  0.00  0.00    +0.000 A 
ENDROOT
BRANCH   1   7
ATOM      7  C   UNL     1      47.748   7.446  11.756  0.00  0.00    +0.000 C 
BRANCH   7   8
ATOM      8  N   UNL     1      46.950   6.223  11.688  0.00  0.00    +0.000 NA
ATOM      9  H   UNL     1      47.383   5.530  12.300  0.00  0.00    +0.000 HD
BRANCH   8  11
ATOM     10  C   UNL     1      44.857   7.594  11.454  0.00  0.00    +0.000 C 
ATOM     11  C   UNL     1      45.559   6.399  12.117  0.00  0.00    +0.000 C 
BRANCH  11  12
ATOM     12  C   UNL     1      44.829   5.109  11.778  0.00  0.00    +0.000 A 
ATOM     13  C   UNL     1      44.018   4.415  12.666  0.00  0.00    +0.000 A 
ATOM     14  S   UNL     1      43.420   2.947  12.034  0.00  0.00    +0.000 S 
ATOM     15  C   UNL     1      44.234   3.186  10.558  0.00  0.00    +0.000 A 
ATOM     16  N   UNL     1      44.201   2.244   9.572  0.00  0.00    +0.000 NA
ATOM     17  C   UNL     1      44.886   2.560   8.525  0.00  0.00    +0.000 A 
ATOM     18  N   UNL     1      45.576   3.730   8.354  0.00  0.00    +0.000 N 
ATOM     19  C   UNL     1      45.565   4.745   9.284  0.00  0.00    +0.000 A 
ATOM     20  O   UNL     1      46.070   5.838   9.045  0.00  0.00    +0.000 OA
ATOM     21  C   UNL     1      44.896   4.403  10.527  0.00  0.00    +0.000 A 
ATOM     22  H   UNL     1      46.050   3.930   7.486  0.00  0.00    +0.000 HD
ENDBRANCH  11  12
ENDBRANCH   8  11
ENDBRANCH   7   8
ENDBRANCH   1   7
BRANCH   4  23
ATOM     23  C   UNL     1      49.221   8.507  17.311  0.00  0.00    +0.000 C 
BRANCH  23  24
ATOM     24  C   UNL     1      49.702   7.240  18.023  0.00  0.00    +0.000 C 
BRANCH  24  25
ATOM     25  C   UNL     1      48.557   6.479  18.704  0.00  0.00    +0.000 C 
BRANCH  25  26
ATOM     26  C   UNL     1      48.366   5.131  18.050  0.00  0.00    +0.000 A 
ATOM     27  C   UNL     1      49.424   4.265  17.759  0.00  0.00    +0.000 A 
ATOM     28  C   UNL     1      49.164   3.003  17.231  0.00  0.00    +0.000 A 
ATOM     29  C   UNL     1      47.846   2.642  17.013  0.00  0.00    +0.000 A 
ATOM     30  N   UNL     1      46.795   3.444  17.279  0.00  0.00    +0.000 NA
ATOM     31  C   UNL     1      47.079   4.665  17.789  0.00  0.00    +0.000 A 
ENDBRANCH  25  26
BRANCH  25  32
ATOM     32  O   UNL     1      47.349   7.235  18.656  0.00  0.00    +0.000 OA
ATOM     33  H   UNL     1      46.743   6.876  19.325  0.00  0.00    +0.000 HD
ENDBRANCH  25  32
ENDBRANCH  24  25
ENDBRANCH  23  24
ENDBRANCH   4  23
TORSDOF 9
ENDMDL
MODEL 9
REMARK VINA RESULT:    -6.641      3.679      7.915
REMARK INTER + INTRA:         -11.368
REMARK INTER:                  -9.566
REMARK INTRA:                  -1.802
REMARK UNBOUND:                -1.427
REMARK  Name = 
REMARK  10 active torsions:
REMARK  status: ('A' for Active; 'I' for Inactive)
REMARK    1  A    between atoms: C_1  and  C_2
REMARK    2  A    between atoms: C_2  and  N_3
REMARK    3  A    between atoms: C_2  and  C_21
REMARK    4  A    between atoms: N_3  and  C_4
REMARK    5  A    between atoms: C_4  and  C_5
REMARK    6  A    between atoms: C_8  and  C_9
REMARK    7  A    between atoms: C_9  and  C_10
REMARK    8  A    between atoms: C_10  and  C_11
REMARK    9  A    between atoms: C_11  and  O_12
REMARK   10  A    between atoms: C_11  and  C_13
REMARK                            x       y       z     vdW  Elec       q    Type
REMARK                         _______ _______ _______ _____ _____    ______ ____
ROOT
ATOM      1  C   UNL     1      48.806   8.445  15.158  0.00  0.00    +0.000 A 
ATOM      2  C   UNL     1      49.818   7.515  14.884  0.00  0.00    +0.000 A 
ATOM      3  C   UNL     1      50.550   6.936  15.922  0.00  0.00    +0.000 A 
ATOM      4  C   UNL     1      50.298   7.285  17.255  0.00  0.00    +0.000 A 
ATOM      5  C   UNL     1      49.297   8.226  17.527  0.00  0.00    +0.000 A 
ATOM      6  C   UNL     1      48.558   8.800  16.489  0.00  0.00    +0.000 A 
ENDROOT
BRANCH   1   7
ATOM      7  C   UNL     1      47.997   9.043  14.031  0.00  0.00    +0.000 C 
BRANCH   7   8
ATOM      8  N   UNL     1      46.754   8.297  13.838  0.00  0.00    +0.000 NA
ATOM      9  H   UNL     1      45.979   8.957  13.890  0.00  0.00    +0.000 HD
BRANCH   8  11
ATOM     10  C   UNL     1      47.958   7.711  11.711  0.00  0.00    +0.000 C 
ATOM     11  C   UNL     1      46.674   7.605  12.547  0.00  0.00    +0.000 C 
BRANCH  11  12
ATOM     12  C   UNL     1      46.364   6.148  12.849  0.00  0.00    +0.000 A 
ATOM     13  C   UNL     1      47.199   5.304  13.568  0.00  0.00    +0.000 A 
ATOM     14  S   UNL     1      46.633   3.697  13.652  0.00  0.00    +0.000 S 
ATOM     15  C   UNL     1      45.259   4.072  12.720  0.00  0.00    +0.000 A 
ATOM     16  N   UNL     1      44.369   3.108  12.354  0.00  0.00    +0.000 NA
ATOM     17  C   UNL     1      43.394   3.544  11.629  0.00  0.00    +0.000 A 
ATOM     18  N   UNL     1      43.207   4.849  11.258  0.00  0.00    +0.000 N 
ATOM     19  C   UNL     1      44.029   5.869  11.678  0.00  0.00    +0.000 A 
ATOM     20  O   UNL     1      43.759   7.044  11.453  0.00  0.00    +0.000 OA
ATOM     21  C   UNL     1      45.202   5.422  12.409  0.00  0.00    +0.000 A 
ATOM     22  H   UNL     1      42.392   5.126  10.730  0.00  0.00    +0.000 HD
ENDBRANCH  11  12
ENDBRANCH   8  11
ENDBRANCH   7   8
ENDBRANCH   1   7
BRANCH   4  23
ATOM     23  C   UNL     1      51.063   6.632  18.382  0.00  0.00    +0.000 C 
BRANCH  23  24
ATOM     24  C   UNL     1      51.885   5.431  17.904  0.00  0.00    +0.000 C 
BRANCH  24  25
ATOM     25  C   UNL     1      51.506   4.135  18.632  0.00  0.00    +0.000 C 
BRANCH  25  26
ATOM     26  C   UNL     1      50.381   3.438  17.904  0.00  0.00    +0.000 A 
ATOM     27  C   UNL     1      49.050   3.861  17.968  0.00  0.00    +0.000 A 
ATOM     28  C   UNL     1      48.079   3.218  17.204  0.00  0.00    +0.000 A 
ATOM     29  C   UNL     1      48.472   2.168  16.393  0.00  0.00    +0.000 A 
ATOM     30  N   UNL     1      49.743   1.726  16.301  0.00  0.00    +0.000 NA
ATOM     31  C   UNL     1      50.664   2.369  17.056  0.00  0.00    +0.000 A 
ENDBRANCH  25  26
BRANCH  25  32
ATOM     32  O   UNL     1      51.139   4.403  19.984  0.00  0.00    +0.000 OA
ATOM     33  H   UNL     1      50.493   5.128  19.981  0.00  0.00    +0.000 HD
ENDBRANCH  25  32
ENDBRANCH  24  25
ENDBRANCH  23  24
ENDBRANCH   4  23
TORSDOF 9
ENDMDL
