MODEL 1
REMARK VINA RESULT:    -7.889      0.000      0.000
REMARK INTER + INTRA:         -13.145
REMARK INTER:                 -11.578
REMARK INTRA:                  -1.567
REMARK UNBOUND:                -1.567
REMARK  Name = 
REMARK  9 active torsions:
REMARK  status: ('A' for Active; 'I' for Inactive)
REMARK    1  A    between atoms: C_1  and  O_2
REMARK    2  A    between atoms: O_2  and  C_3
REMARK    3  A    between atoms: C_10  and  C_11
REMARK    4  A    between atoms: N_13  and  C_14
REMARK    5  A    between atoms: C_14  and  C_15
REMARK    6  A    between atoms: C_18  and  C_19
REMARK    7  A    between atoms: C_19  and  N_20
REMARK    8  A    between atoms: N_20  and  C_21
REMARK    9  A    between atoms: C_21  and  C_22
REMARK                            x       y       z     vdW  Elec       q    Type
REMARK                         _______ _______ _______ _____ _____    ______ ____
ROOT
ATOM      1  C   UNL     1      46.496   7.842  12.988  0.00  0.00    +0.000 C 
ENDROOT
BRANCH   1   2
ATOM      2  C   UNL     1      45.745   6.724  12.317  0.00  0.00    +0.000 A 
ATOM      3  C   UNL     1      46.107   6.299  11.036  0.00  0.00    +0.000 A 
ATOM      4  C   UNL     1      45.411   5.268  10.406  0.00  0.00    +0.000 A 
ATOM      5  C   UNL     1      44.354   4.612  11.062  0.00  0.00    +0.000 A 
ATOM      6  C   UNL     1      43.953   5.085  12.317  0.00  0.00    +0.000 A 
ATOM      7  C   UNL     1      44.635   6.132  12.938  0.00  0.00    +0.000 A 
BRANCH   5   8
ATOM      8  C   UNL     1      43.625   3.435  10.450  0.00  0.00    +0.000 C 
BRANCH   8   9
ATOM      9  N   UNL     1      44.398   2.198  10.355  0.00  0.00    +0.000 NA
ATOM     10  H   UNL     1      44.003   1.499  10.977  0.00  0.00    +0.000 HD
BRANCH   9  11
ATOM     11  C   UNL     1      44.515   1.674   8.993  0.00  0.00    +0.000 C 
BRANCH  11  12
ATOM     12  C   UNL     1      45.826   2.184   8.381  0.00  0.00    +0.000 C 
ATOM     13  C   UNL     1      45.578   3.293   7.349  0.00  0.00    +0.000 C 
ATOM     14  C   UNL     1      46.894   3.743   6.738  0.00  0.00    +0.000 C 
ATOM     15  O   UNL     1      47.579   2.640   6.144  0.00  0.00    +0.000 OA
ATOM     16  C   UNL     1      47.898   1.623   7.093  0.00  0.00    +0.000 C 
ATOM     17  C   UNL     1      46.630   1.055   7.725  0.00  0.00    +0.000 C 
ENDBRANCH  11  12
ENDBRANCH   9  11
ENDBRANCH   8   9
ENDBRANCH   5   8
ENDBRANCH   1   2
BRANCH   1  20
ATOM     18  C   UNL     1      48.399   6.826  14.174  0.00  0.00    +0.000 C 
ATOM     19  O   UNL     1      49.045   6.717  13.135  0.00  0.00    +0.000 OA
ATOM     20  N   UNL     1      47.145   7.363  14.180  0.00  0.00    +0.000 N 
ATOM     21  H   UNL     1      46.614   7.397  15.038  0.00  0.00    +0.000 HD
BRANCH  18  29
ATOM     22  C   UNL     1      47.494   4.364  16.404  0.00  0.00    +0.000 A 
ATOM     23  N   UNL     1      47.362   3.498  17.429  0.00  0.00    +0.000 NA
ATOM     24  C   UNL     1      48.231   3.589  18.440  0.00  0.00    +0.000 A 
ATOM     25  N   UNL     1      49.237   4.450  18.559  0.00  0.00    +0.000 NA
ATOM     26  C   UNL     1      49.337   5.288  17.512  0.00  0.00    +0.000 A 
ATOM     27  S   UNL     1      50.566   6.458  17.493  0.00  0.00    +0.000 S 
ATOM     28  C   UNL     1      50.050   7.049  15.986  0.00  0.00    +0.000 A 
ATOM     29  C   UNL     1      48.945   6.383  15.469  0.00  0.00    +0.000 A 
ATOM     30  C   UNL     1      48.520   5.324  16.386  0.00  0.00    +0.000 A 
BRANCH  22  32
ATOM     31  C   UNL     1      47.145   3.487  14.264  0.00  0.00    +0.000 C 
ATOM     32  O   UNL     1      46.616   4.247  15.348  0.00  0.00    +0.000 OA
ENDBRANCH  22  32
ENDBRANCH  18  29
ENDBRANCH   1  20
TORSDOF 8
ENDMDL
MODEL 2
REMARK VINA RESULT:    -7.628      1.495      1.835
REMARK INTER + INTRA:         -12.762
REMARK INTER:                 -11.511
REMARK INTRA:                  -1.251
REMARK UNBOUND:                -1.567
REMARK  Name = 
REMARK  9 active torsions:
REMARK  status: ('A' for Active; 'I' for Inactive)
REMARK    1  A    between atoms: C_1  and  O_2
REMARK    2  A    between atoms: O_2  and  C_3
REMARK    3  A    between atoms: C_10  and  C_11
REMARK    4  A    between atoms: N_13  and  C_14
REMARK    5  A    between atoms: C_14  and  C_15
REMARK    6  A    between atoms: C_18  and  C_19
REMARK    7  A    between atoms: C_19  and  N_20
REMARK    8  A    between atoms: N_20  and  C_21
REMARK    9  A    between atoms: C_21  and  C_22
REMARK                            x       y       z     vdW  Elec       q    Type
REMARK                         _______ _______ _______ _____ _____    ______ ____
ROOT
ATOM      1  C   UNL     1      47.961   7.055  13.173  0.00  0.00    +0.000 C 
ENDROOT
BRANCH   1   2
ATOM      2  C   UNL     1      46.855   6.199  12.618  0.00  0.00    +0.000 A 
ATOM      3  C   UNL     1      46.294   5.179  13.393  0.00  0.00    +0.000 A 
ATOM      4  C   UNL     1      45.274   4.378  12.881  0.00  0.00    +0.000 A 
ATOM      5  C   UNL     1      44.766   4.602  11.589  0.00  0.00    +0.000 A 
ATOM      6  C   UNL     1      45.376   5.579  10.795  0.00  0.00    +0.000 A 
ATOM      7  C   UNL     1      46.413   6.366  11.298  0.00  0.00    +0.000 A 
BRANCH   5   8
ATOM      8  C   UNL     1      43.605   3.812  11.026  0.00  0.00    +0.000 C 
BRANCH   8   9
ATOM      9  N   UNL     1      43.775   3.337   9.654  0.00  0.00    +0.000 NA
ATOM     10  H   UNL     1      44.186   4.072   9.086  0.00  0.00    +0.000 HD
BRANCH   9  11
ATOM     11  C   UNL     1      44.555   2.102   9.546  0.00  0.00    +0.000 C 
BRANCH  11  12
ATOM     12  C   UNL     1      45.778   2.369   8.659  0.00  0.00    +0.000 C 
ATOM     13  C   UNL     1      45.476   3.411   7.573  0.00  0.00    +0.000 C 
ATOM     14  C   UNL     1      46.697   3.617   6.693  0.00  0.00    +0.000 C 
ATOM     15  O   UNL     1      47.116   2.383   6.111  0.00  0.00    +0.000 OA
ATOM     16  C   UNL     1      47.482   1.415   7.093  0.00  0.00    +0.000 C 
ATOM     17  C   UNL     1      46.298   1.086   7.998  0.00  0.00    +0.000 C 
ENDBRANCH  11  12
ENDBRANCH   9  11
ENDBRANCH   8   9
ENDBRANCH   5   8
ENDBRANCH   1   2
BRANCH   1  20
ATOM     18  C   UNL     1      49.022   7.010  15.394  0.00  0.00    +0.000 C 
ATOM     19  O   UNL     1      50.146   6.932  14.904  0.00  0.00    +0.000 OA
ATOM     20  N   UNL     1      47.907   7.071  14.610  0.00  0.00    +0.000 N 
ATOM     21  H   UNL     1      46.991   7.084  15.036  0.00  0.00    +0.000 HD
BRANCH  18  29
ATOM     22  C   UNL     1      48.868   4.568  17.816  0.00  0.00    +0.000 A 
ATOM     23  N   UNL     1      48.765   3.833  18.941  0.00  0.00    +0.000 NA
ATOM     24  C   UNL     1      48.542   4.478  20.090  0.00  0.00    +0.000 A 
ATOM     25  N   UNL     1      48.409   5.789  20.263  0.00  0.00    +0.000 NA
ATOM     26  C   UNL     1      48.527   6.484  19.117  0.00  0.00    +0.000 A 
ATOM     27  S   UNL     1      48.384   8.174  19.147  0.00  0.00    +0.000 S 
ATOM     28  C   UNL     1      48.628   8.275  17.469  0.00  0.00    +0.000 A 
ATOM     29  C   UNL     1      48.820   7.044  16.853  0.00  0.00    +0.000 A 
ATOM     30  C   UNL     1      48.760   5.969  17.845  0.00  0.00    +0.000 A 
BRANCH  22  32
ATOM     31  C   UNL     1      48.783   2.522  16.685  0.00  0.00    +0.000 C 
ATOM     32  O   UNL     1      49.130   3.904  16.637  0.00  0.00    +0.000 OA
ENDBRANCH  22  32
ENDBRANCH  18  29
ENDBRANCH   1  20
TORSDOF 8
ENDMDL
MODEL 3
REMARK VINA RESULT:    -7.480      2.261      2.972
REMARK INTER + INTRA:         -12.544
REMARK INTER:                 -11.563
REMARK INTRA:                  -0.981
REMARK UNBOUND:                -1.567
REMARK  Name = 
REMARK  9 active torsions:
REMARK  status: ('A' for Active; 'I' for Inactive)
REMARK    1  A    between atoms: C_1  and  O_2
REMARK    2  A    between atoms: O_2  and  C_3
REMARK    3  A    between atoms: C_10  and  C_11
REMARK    4  A    between atoms: N_13  and  C_14
REMARK    5  A    between atoms: C_14  and  C_15
REMARK    6  A    between atoms: C_18  and  C_19
REMARK    7  A    between atoms: C_19  and  N_20
REMARK    8  A    between atoms: N_20  and  C_21
REMARK    9  A    between atoms: C_21  and  C_22
REMARK                            x       y       z     vdW  Elec       q    Type
REMARK                         _______ _______ _______ _____ _____    ______ ____
ROOT
ATOM      1  C   UNL     1      48.030   6.915  13.795  0.00  0.00    +0.000 C 
ENDROOT
BRANCH   1   2
ATOM      2  C   UNL     1      46.959   6.264  12.961  0.00  0.00    +0.000 A 
ATOM      3  C   UNL     1      46.589   6.816  11.731  0.00  0.00    +0.000 A 
ATOM      4  C   UNL     1      45.592   6.222  10.958  0.00  0.00    +0.000 A 
ATOM      5  C   UNL     1      44.965   5.037  11.383  0.00  0.00    +0.000 A 
ATOM      6  C   UNL     1      45.292   4.528  12.645  0.00  0.00    +0.000 A 
ATOM      7  C   UNL     1      46.273   5.134  13.430  0.00  0.00    +0.000 A 
BRANCH   5   8
ATOM      8  C   UNL     1      43.939   4.314  10.539  0.00  0.00    +0.000 C 
BRANCH   8   9
ATOM      9  N   UNL     1      44.478   3.345   9.587  0.00  0.00    +0.000 NA
ATOM     10  H   UNL     1      43.805   2.599   9.439  0.00  0.00    +0.000 HD
BRANCH   9  11
ATOM     11  C   UNL     1      44.891   3.933   8.311  0.00  0.00    +0.000 C 
BRANCH  11  12
ATOM     12  C   UNL     1      45.660   2.874   7.508  0.00  0.00    +0.000 C 
ATOM     13  C   UNL     1      46.064   1.680   8.383  0.00  0.00    +0.000 C 
ATOM     14  C   UNL     1      46.856   0.676   7.563  0.00  0.00    +0.000 C 
ATOM     15  O   UNL     1      48.004   1.291   6.981  0.00  0.00    +0.000 OA
ATOM     16  C   UNL     1      47.660   2.357   6.096  0.00  0.00    +0.000 C 
ATOM     17  C   UNL     1      46.911   3.458   6.841  0.00  0.00    +0.000 C 
ENDBRANCH  11  12
ENDBRANCH   9  11
ENDBRANCH   8   9
ENDBRANCH   5   8
ENDBRANCH   1   2
BRANCH   1  20
ATOM     18  C   UNL     1      49.011   6.344  15.979  0.00  0.00    +0.000 C 
ATOM     19  O   UNL     1      50.149   6.573  15.577  0.00  0.00    +0.000 OA
ATOM     20  N   UNL     1      47.926   6.486  15.164  0.00  0.00    +0.000 N 
ATOM     21  H   UNL     1      47.006   6.243  15.502  0.00  0.00    +0.000 HD
BRANCH  18  29
ATOM     22  C   UNL     1      47.875   7.957  18.801  0.00  0.00    +0.000 A 
ATOM     23  N   UNL     1      47.464   8.333  20.029  0.00  0.00    +0.000 NA
ATOM     24  C   UNL     1      47.460   7.410  20.995  0.00  0.00    +0.000 A 
ATOM     25  N   UNL     1      47.818   6.134  20.889  0.00  0.00    +0.000 NA
ATOM     26  C   UNL     1      48.213   5.801  19.647  0.00  0.00    +0.000 A 
ATOM     27  S   UNL     1      48.707   4.210  19.326  0.00  0.00    +0.000 S 
ATOM     28  C   UNL     1      49.017   4.581  17.697  0.00  0.00    +0.000 A 
ATOM     29  C   UNL     1      48.758   5.905  17.363  0.00  0.00    +0.000 A 
ATOM     30  C   UNL     1      48.274   6.635  18.535  0.00  0.00    +0.000 A 
BRANCH  22  32
ATOM     31  C   UNL     1      49.060   9.647  17.700  0.00  0.00    +0.000 C 
ATOM     32  O   UNL     1      47.848   8.902  17.797  0.00  0.00    +0.000 OA
ENDBRANCH  22  32
ENDBRANCH  18  29
ENDBRANCH   1  20
TORSDOF 8
ENDMDL
MODEL 4
REMARK VINA RESULT:    -7.449      2.100      3.759
REMARK INTER + INTRA:         -12.499
REMARK INTER:                 -11.023
REMARK INTRA:                  -1.476
REMARK UNBOUND:                -1.567
REMARK  Name = 
REMARK  9 active torsions:
REMARK  status: ('A' for Active; 'I' for Inactive)
REMARK    1  A    between atoms: C_1  and  O_2
REMARK    2  A    between atoms: O_2  and  C_3
REMARK    3  A    between atoms: C_10  and  C_11
REMARK    4  A    between atoms: N_13  and  C_14
REMARK    5  A    between atoms: C_14  and  C_15
REMARK    6  A    between atoms: C_18  and  C_19
REMARK    7  A    between atoms: C_19  and  N_20
REMARK    8  A    between atoms: N_20  and  C_21
REMARK    9  A    between atoms: C_21  and  C_22
REMARK                            x       y       z     vdW  Elec       q    Type
REMARK                         _______ _______ _______ _____ _____    ______ ____
ROOT
ATOM      1  C   UNL     1      47.162   4.518  14.862  0.00  0.00    +0.000 C 
ENDROOT
BRANCH   1   2
ATOM      2  C   UNL     1      46.294   4.513  13.633  0.00  0.00    +0.000 A 
ATOM      3  C   UNL     1      46.026   3.316  12.962  0.00  0.00    +0.000 A 
ATOM      4  C   UNL     1      45.229   3.306  11.818  0.00  0.00    +0.000 A 
ATOM      5  C   UNL     1      44.649   4.494  11.338  0.00  0.00    +0.000 A 
ATOM      6  C   UNL     1      44.975   5.697  11.974  0.00  0.00    +0.000 A 
ATOM      7  C   UNL     1      45.792   5.711  13.105  0.00  0.00    +0.000 A 
BRANCH   5   8
ATOM      8  C   UNL     1      43.711   4.517  10.150  0.00  0.00    +0.000 C 
BRANCH   8   9
ATOM      9  N   UNL     1      44.112   3.686   9.017  0.00  0.00    +0.000 NA
ATOM     10  H   UNL     1      43.324   3.560   8.389  0.00  0.00    +0.000 HD
BRANCH   9  11
ATOM     11  C   UNL     1      45.279   4.193   8.292  0.00  0.00    +0.000 C 
BRANCH  11  12
ATOM     12  C   UNL     1      45.912   3.036   7.508  0.00  0.00    +0.000 C 
ATOM     13  C   UNL     1      46.112   1.795   8.389  0.00  0.00    +0.000 C 
ATOM     14  C   UNL     1      46.777   0.688   7.589  0.00  0.00    +0.000 C 
ATOM     15  O   UNL     1      48.020   1.132   7.045  0.00  0.00    +0.000 OA
ATOM     16  C   UNL     1      47.861   2.237   6.156  0.00  0.00    +0.000 C 
ATOM     17  C   UNL     1      47.255   3.434   6.882  0.00  0.00    +0.000 C 
ENDBRANCH  11  12
ENDBRANCH   9  11
ENDBRANCH   8   9
ENDBRANCH   5   8
ENDBRANCH   1   2
BRANCH   1  20
ATOM     18  C   UNL     1      48.650   6.166  15.925  0.00  0.00    +0.000 C 
ATOM     19  O   UNL     1      49.412   5.287  16.321  0.00  0.00    +0.000 OA
ATOM     20  N   UNL     1      47.529   5.865  15.209  0.00  0.00    +0.000 N 
ATOM     21  H   UNL     1      46.891   6.600  14.937  0.00  0.00    +0.000 HD
BRANCH  18  29
ATOM     22  C   UNL     1      48.673   8.991  13.958  0.00  0.00    +0.000 A 
ATOM     23  N   UNL     1      48.751  10.230  13.431  0.00  0.00    +0.000 NA
ATOM     24  C   UNL     1      49.073  11.236  14.248  0.00  0.00    +0.000 A 
ATOM     25  N   UNL     1      49.330  11.163  15.551  0.00  0.00    +0.000 NA
ATOM     26  C   UNL     1      49.232   9.912  16.035  0.00  0.00    +0.000 A 
ATOM     27  S   UNL     1      49.527   9.629  17.682  0.00  0.00    +0.000 S 
ATOM     28  C   UNL     1      49.231   7.966  17.501  0.00  0.00    +0.000 A 
ATOM     29  C   UNL     1      48.908   7.590  16.203  0.00  0.00    +0.000 A 
ATOM     30  C   UNL     1      48.907   8.761  15.324  0.00  0.00    +0.000 A 
BRANCH  22  32
ATOM     31  C   UNL     1      49.420   7.360  12.457  0.00  0.00    +0.000 C 
ATOM     32  O   UNL     1      48.309   7.959  13.119  0.00  0.00    +0.000 OA
ENDBRANCH  22  32
ENDBRANCH  18  29
ENDBRANCH   1  20
TORSDOF 8
ENDMDL
MODEL 5
REMARK VINA RESULT:    -7.310      2.165      3.482
REMARK INTER + INTRA:         -12.296
REMARK INTER:                 -11.100
REMARK INTRA:                  -1.195
REMARK UNBOUND:                -1.567
REMARK  Name = 
REMARK  9 active torsions:
REMARK  status: ('A' for Active; 'I' for Inactive)
REMARK    1  A    between atoms: C_1  and  O_2
REMARK    2  A    between atoms: O_2  and  C_3
REMARK    3  A    between atoms: C_10  and  C_11
REMARK    4  A    between atoms: N_13  and  C_14
REMARK    5  A    between atoms: C_14  and  C_15
REMARK    6  A    between atoms: C_18  and  C_19
REMARK    7  A    between atoms: C_19  and  N_20
REMARK    8  A    between atoms: N_20  and  C_21
REMARK    9  A    between atoms: C_21  and  C_22
REMARK                            x       y       z     vdW  Elec       q    Type
REMARK                         _______ _______ _______ _____ _____    ______ ____
ROOT
ATOM      1  C   UNL     1      47.184   3.727  14.986  0.00  0.00    +0.000 C 
ENDROOT
BRANCH   1   2
ATOM      2  C   UNL     1      46.663   4.270  13.683  0.00  0.00    +0.000 A 
ATOM      3  C   UNL     1      47.007   5.559  13.267  0.00  0.00    +0.000 A 
ATOM      4  C   UNL     1      46.522   6.070  12.064  0.00  0.00    +0.000 A 
ATOM      5  C   UNL     1      45.706   5.286  11.229  0.00  0.00    +0.000 A 
ATOM      6  C   UNL     1      45.311   4.022  11.681  0.00  0.00    +0.000 A 
ATOM      7  C   UNL     1      45.778   3.519  12.896  0.00  0.00    +0.000 A 
BRANCH   5   8
ATOM      8  C   UNL     1      45.226   5.769   9.877  0.00  0.00    +0.000 C 
BRANCH   8   9
ATOM      9  N   UNL     1      45.704   5.001   8.729  0.00  0.00    +0.000 NA
ATOM     10  H   UNL     1      46.633   4.638   8.924  0.00  0.00    +0.000 HD
BRANCH   9  11
ATOM     11  C   UNL     1      44.802   3.924   8.317  0.00  0.00    +0.000 C 
BRANCH  11  12
ATOM     12  C   UNL     1      45.608   2.881   7.531  0.00  0.00    +0.000 C 
ATOM     13  C   UNL     1      45.973   1.671   8.402  0.00  0.00    +0.000 C 
ATOM     14  C   UNL     1      46.803   0.682   7.601  0.00  0.00    +0.000 C 
ATOM     15  O   UNL     1      47.977   1.309   7.084  0.00  0.00    +0.000 OA
ATOM     16  C   UNL     1      47.673   2.391   6.205  0.00  0.00    +0.000 C 
ATOM     17  C   UNL     1      46.888   3.478   6.934  0.00  0.00    +0.000 C 
ENDBRANCH  11  12
ENDBRANCH   9  11
ENDBRANCH   8   9
ENDBRANCH   5   8
ENDBRANCH   1   2
BRANCH   1  20
ATOM     18  C   UNL     1      48.356   4.823  16.853  0.00  0.00    +0.000 C 
ATOM     19  O   UNL     1      49.198   3.929  16.907  0.00  0.00    +0.000 OA
ATOM     20  N   UNL     1      47.341   4.791  15.943  0.00  0.00    +0.000 N 
ATOM     21  H   UNL     1      46.632   5.511  15.950  0.00  0.00    +0.000 HD
BRANCH  18  29
ATOM     22  C   UNL     1      48.732   8.211  16.369  0.00  0.00    +0.000 A 
ATOM     23  N   UNL     1      48.862   9.550  16.465  0.00  0.00    +0.000 NA
ATOM     24  C   UNL     1      48.840  10.093  17.685  0.00  0.00    +0.000 A 
ATOM     25  N   UNL     1      48.702   9.458  18.845  0.00  0.00    +0.000 NA
ATOM     26  C   UNL     1      48.568   8.128  18.702  0.00  0.00    +0.000 A 
ATOM     27  S   UNL     1      48.380   7.155  20.080  0.00  0.00    +0.000 S 
ATOM     28  C   UNL     1      48.290   5.746  19.134  0.00  0.00    +0.000 A 
ATOM     29  C   UNL     1      48.401   5.977  17.768  0.00  0.00    +0.000 A 
ATOM     30  C   UNL     1      48.566   7.408  17.511  0.00  0.00    +0.000 A 
BRANCH  22  32
ATOM     31  C   UNL     1      50.027   7.502  14.555  0.00  0.00    +0.000 C 
ATOM     32  O   UNL     1      48.722   7.655  15.107  0.00  0.00    +0.000 OA
ENDBRANCH  22  32
ENDBRANCH  18  29
ENDBRANCH   1  20
TORSDOF 8
ENDMDL
MODEL 6
REMARK VINA RESULT:    -7.129      2.578      3.355
REMARK INTER + INTRA:         -12.031
REMARK INTER:                 -10.902
REMARK INTRA:                  -1.128
REMARK UNBOUND:                -1.567
REMARK  Name = 
REMARK  9 active torsions:
REMARK  status: ('A' for Active; 'I' for Inactive)
REMARK    1  A    between atoms: C_1  and  O_2
REMARK    2  A    between atoms: O_2  and  C_3
REMARK    3  A    between atoms: C_10  and  C_11
REMARK    4  A    between atoms: N_13  and  C_14
REMARK    5  A    between atoms: C_14  and  C_15
REMARK    6  A    between atoms: C_18  and  C_19
REMARK    7  A    between atoms: C_19  and  N_20
REMARK    8  A    between atoms: N_20  and  C_21
REMARK    9  A    between atoms: C_21  and  C_22
REMARK                            x       y       z     vdW  Elec       q    Type
REMARK                         _______ _______ _______ _____ _____    ______ ____
ROOT
ATOM      1  C   UNL     1      47.424   4.578  14.589  0.00  0.00    +0.000 C 
ENDROOT
BRANCH   1   2
ATOM      2  C   UNL     1      46.446   4.598  13.446  0.00  0.00    +0.000 A 
ATOM      3  C   UNL     1      46.058   5.811  12.868  0.00  0.00    +0.000 A 
ATOM      4  C   UNL     1      45.146   5.836  11.814  0.00  0.00    +0.000 A 
ATOM      5  C   UNL     1      44.626   4.640  11.288  0.00  0.00    +0.000 A 
ATOM      6  C   UNL     1      44.966   3.435  11.912  0.00  0.00    +0.000 A 
ATOM      7  C   UNL     1      45.861   3.411  12.982  0.00  0.00    +0.000 A 
BRANCH   5   8
ATOM      8  C   UNL     1      43.699   4.616  10.091  0.00  0.00    +0.000 C 
BRANCH   8   9
ATOM      9  N   UNL     1      44.131   3.772   8.979  0.00  0.00    +0.000 NA
ATOM     10  H   UNL     1      43.380   3.692   8.299  0.00  0.00    +0.000 HD
BRANCH   9  11
ATOM     11  C   UNL     1      45.368   4.222   8.337  0.00  0.00    +0.000 C 
BRANCH  11  12
ATOM     12  C   UNL     1      45.954   3.057   7.528  0.00  0.00    +0.000 C 
ATOM     13  C   UNL     1      46.140   1.802   8.392  0.00  0.00    +0.000 C 
ATOM     14  C   UNL     1      46.758   0.687   7.567  0.00  0.00    +0.000 C 
ATOM     15  O   UNL     1      48.000   1.104   7.002  0.00  0.00    +0.000 OA
ATOM     16  C   UNL     1      47.852   2.223   6.128  0.00  0.00    +0.000 C 
ATOM     17  C   UNL     1      47.293   3.427   6.879  0.00  0.00    +0.000 C 
ENDBRANCH  11  12
ENDBRANCH   9  11
ENDBRANCH   8   9
ENDBRANCH   5   8
ENDBRANCH   1   2
BRANCH   1  20
ATOM     18  C   UNL     1      48.636   6.245  15.935  0.00  0.00    +0.000 C 
ATOM     19  O   UNL     1      49.491   5.425  16.261  0.00  0.00    +0.000 OA
ATOM     20  N   UNL     1      47.595   5.903  15.123  0.00  0.00    +0.000 N 
ATOM     21  H   UNL     1      46.877   6.581  14.909  0.00  0.00    +0.000 HD
BRANCH  18  29
ATOM     22  C   UNL     1      47.675   7.800  18.853  0.00  0.00    +0.000 A 
ATOM     23  N   UNL     1      47.394   8.645  19.865  0.00  0.00    +0.000 NA
ATOM     24  C   UNL     1      47.683   9.939  19.697  0.00  0.00    +0.000 A 
ATOM     25  N   UNL     1      48.229  10.507  18.626  0.00  0.00    +0.000 NA
ATOM     26  C   UNL     1      48.500   9.627  17.646  0.00  0.00    +0.000 A 
ATOM     27  S   UNL     1      49.201  10.177  16.201  0.00  0.00    +0.000 S 
ATOM     28  C   UNL     1      49.214   8.607  15.552  0.00  0.00    +0.000 A 
ATOM     29  C   UNL     1      48.692   7.641  16.404  0.00  0.00    +0.000 A 
ATOM     30  C   UNL     1      48.265   8.256  17.662  0.00  0.00    +0.000 A 
BRANCH  22  32
ATOM     31  C   UNL     1      48.416   5.788  19.788  0.00  0.00    +0.000 C 
ATOM     32  O   UNL     1      47.406   6.461  19.041  0.00  0.00    +0.000 OA
ENDBRANCH  22  32
ENDBRANCH  18  29
ENDBRANCH   1  20
TORSDOF 8
ENDMDL
MODEL 7
REMARK VINA RESULT:    -6.733      3.156      5.066
REMARK INTER + INTRA:         -11.449
REMARK INTER:                 -10.117
REMARK INTRA:                  -1.331
REMARK UNBOUND:                -1.567
REMARK  Name = 
REMARK  9 active torsions:
REMARK  status: ('A' for Active; 'I' for Inactive)
REMARK    1  A    between atoms: C_1  and  O_2
REMARK    2  A    between atoms: O_2  and  C_3
REMARK    3  A    between atoms: C_10  and  C_11
REMARK    4  A    between atoms: N_13  and  C_14
REMARK    5  A    between atoms: C_14  and  C_15
REMARK    6  A    between atoms: C_18  and  C_19
REMARK    7  A    between atoms: C_19  and  N_20
REMARK    8  A    between atoms: N_20  and  C_21
REMARK    9  A    between atoms: C_21  and  C_22
REMARK                            x       y       z     vdW  Elec       q    Type
REMARK                         _______ _______ _______ _____ _____    ______ ____
ROOT
ATOM      1  C   UNL     1      48.067   6.208  14.135  0.00  0.00    +0.000 C 
ENDROOT
BRANCH   1   2
ATOM      2  C   UNL     1      47.020   5.724  13.169  0.00  0.00    +0.000 A 
ATOM      3  C   UNL     1      46.282   4.570  13.446  0.00  0.00    +0.000 A 
ATOM      4  C   UNL     1      45.316   4.112  12.551  0.00  0.00    +0.000 A 
ATOM      5  C   UNL     1      45.040   4.823  11.369  0.00  0.00    +0.000 A 
ATOM      6  C   UNL     1      45.827   5.939  11.065  0.00  0.00    +0.000 A 
ATOM      7  C   UNL     1      46.810   6.384  11.950  0.00  0.00    +0.000 A 
BRANCH   5   8
ATOM      8  C   UNL     1      43.944   4.409  10.411  0.00  0.00    +0.000 C 
BRANCH   8   9
ATOM      9  N   UNL     1      44.326   3.413   9.412  0.00  0.00    +0.000 NA
ATOM     10  H   UNL     1      43.538   2.799   9.222  0.00  0.00    +0.000 HD
BRANCH   9  11
ATOM     11  C   UNL     1      44.847   3.987   8.170  0.00  0.00    +0.000 C 
BRANCH  11  12
ATOM     12  C   UNL     1      45.650   2.909   7.430  0.00  0.00    +0.000 C 
ATOM     13  C   UNL     1      46.010   1.735   8.350  0.00  0.00    +0.000 C 
ATOM     14  C   UNL     1      46.837   0.711   7.593  0.00  0.00    +0.000 C 
ATOM     15  O   UNL     1      48.013   1.311   7.051  0.00  0.00    +0.000 OA
ATOM     16  C   UNL     1      47.714   2.356   6.127  0.00  0.00    +0.000 C 
ATOM     17  C   UNL     1      46.933   3.475   6.809  0.00  0.00    +0.000 C 
ENDBRANCH  11  12
ENDBRANCH   9  11
ENDBRANCH   8   9
ENDBRANCH   5   8
ENDBRANCH   1   2
BRANCH   1  20
ATOM     18  C   UNL     1      49.882   7.870  14.114  0.00  0.00    +0.000 C 
ATOM     19  O   UNL     1      49.865   7.969  15.339  0.00  0.00    +0.000 OA
ATOM     20  N   UNL     1      49.031   7.032  13.456  0.00  0.00    +0.000 N 
ATOM     21  H   UNL     1      49.029   7.005  12.446  0.00  0.00    +0.000 HD
BRANCH  18  29
ATOM     22  C   UNL     1      49.485   9.986  11.427  0.00  0.00    +0.000 A 
ATOM     23  N   UNL     1      49.614  10.836  10.388  0.00  0.00    +0.000 NA
ATOM     24  C   UNL     1      50.846  11.233  10.057  0.00  0.00    +0.000 A 
ATOM     25  N   UNL     1      51.987  10.886  10.643  0.00  0.00    +0.000 NA
ATOM     26  C   UNL     1      51.811  10.045  11.678  0.00  0.00    +0.000 A 
ATOM     27  S   UNL     1      53.161   9.495  12.546  0.00  0.00    +0.000 S 
ATOM     28  C   UNL     1      52.182   8.568  13.579  0.00  0.00    +0.000 A 
ATOM     29  C   UNL     1      50.824   8.651  13.293  0.00  0.00    +0.000 A 
ATOM     30  C   UNL     1      50.604   9.540  12.151  0.00  0.00    +0.000 A 
BRANCH  22  32
ATOM     31  C   UNL     1      47.512  10.604  12.522  0.00  0.00    +0.000 C 
ATOM     32  O   UNL     1      48.211   9.602  11.787  0.00  0.00    +0.000 OA
ENDBRANCH  22  32
ENDBRANCH  18  29
ENDBRANCH   1  20
TORSDOF 8
ENDMDL
MODEL 8
REMARK VINA RESULT:    -6.510      4.623      9.170
REMARK INTER + INTRA:         -11.121
REMARK INTER:                 -10.136
REMARK INTRA:                  -0.985
REMARK UNBOUND:                -1.567
REMARK  Name = 
REMARK  9 active torsions:
REMARK  status: ('A' for Active; 'I' for Inactive)
REMARK    1  A    between atoms: C_1  and  O_2
REMARK    2  A    between atoms: O_2  and  C_3
REMARK    3  A    between atoms: C_10  and  C_11
REMARK    4  A    between atoms: N_13  and  C_14
REMARK    5  A    between atoms: C_14  and  C_15
REMARK    6  A    between atoms: C_18  and  C_19
REMARK    7  A    between atoms: C_19  and  N_20
REMARK    8  A    between atoms: N_20  and  C_21
REMARK    9  A    between atoms: C_21  and  C_22
REMARK                            x       y       z     vdW  Elec       q    Type
REMARK                         _______ _______ _______ _____ _____    ______ ____
ROOT
ATOM      1  C   UNL     1      47.154   3.340  16.802  0.00  0.00    +0.000 C 
ENDROOT
BRANCH   1   2
ATOM      2  C   UNL     1      48.615   3.352  17.163  0.00  0.00    +0.000 A 
ATOM      3  C   UNL     1      49.220   4.525  17.624  0.00  0.00    +0.000 A 
ATOM      4  C   UNL     1      50.575   4.544  17.952  0.00  0.00    +0.000 A 
ATOM      5  C   UNL     1      51.351   3.375  17.862  0.00  0.00    +0.000 A 
ATOM      6  C   UNL     1      50.757   2.221  17.338  0.00  0.00    +0.000 A 
ATOM      7  C   UNL     1      49.407   2.208  16.986  0.00  0.00    +0.000 A 
BRANCH   5   8
ATOM      8  C   UNL     1      52.803   3.329  18.287  0.00  0.00    +0.000 C 
BRANCH   8   9
ATOM      9  N   UNL     1      53.255   2.055  18.840  0.00  0.00    +0.000 NA
ATOM     10  H   UNL     1      52.887   1.289  18.283  0.00  0.00    +0.000 HD
BRANCH   9  11
ATOM     11  C   UNL     1      54.710   1.948  18.972  0.00  0.00    +0.000 C 
BRANCH  11  12
ATOM     12  C   UNL     1      55.182   0.703  18.210  0.00  0.00    +0.000 C 
ATOM     13  C   UNL     1      54.312   0.428  16.976  0.00  0.00    +0.000 C 
ATOM     14  C   UNL     1      54.786  -0.833  16.272  0.00  0.00    +0.000 C 
ATOM     15  O   UNL     1      54.770  -1.946  17.164  0.00  0.00    +0.000 OA
ATOM     16  C   UNL     1      55.632  -1.758  18.286  0.00  0.00    +0.000 C 
ATOM     17  C   UNL     1      55.201  -0.544  19.103  0.00  0.00    +0.000 C 
ENDBRANCH  11  12
ENDBRANCH   9  11
ENDBRANCH   8   9
ENDBRANCH   5   8
ENDBRANCH   1   2
BRANCH   1  20
ATOM     18  C   UNL     1      46.911   4.217  14.515  0.00  0.00    +0.000 C 
ATOM     19  O   UNL     1      47.215   3.135  14.020  0.00  0.00    +0.000 OA
ATOM     20  N   UNL     1      46.863   4.394  15.867  0.00  0.00    +0.000 N 
ATOM     21  H   UNL     1      46.659   5.306  16.250  0.00  0.00    +0.000 HD
BRANCH  18  29
ATOM     22  C   UNL     1      44.147   5.078  12.651  0.00  0.00    +0.000 A 
ATOM     23  N   UNL     1      43.219   5.648  11.857  0.00  0.00    +0.000 NA
ATOM     24  C   UNL     1      43.514   6.823  11.294  0.00  0.00    +0.000 A 
ATOM     25  N   UNL     1      44.641   7.517  11.428  0.00  0.00    +0.000 NA
ATOM     26  C   UNL     1      45.535   6.916  12.233  0.00  0.00    +0.000 A 
ATOM     27  S   UNL     1      47.033   7.660  12.519  0.00  0.00    +0.000 S 
ATOM     28  C   UNL     1      47.527   6.388  13.532  0.00  0.00    +0.000 A 
ATOM     29  C   UNL     1      46.581   5.381  13.674  0.00  0.00    +0.000 A 
ATOM     30  C   UNL     1      45.384   5.701  12.895  0.00  0.00    +0.000 A 
BRANCH  22  32
ATOM     31  C   UNL     1      43.561   2.838  12.322  0.00  0.00    +0.000 C 
ATOM     32  O   UNL     1      43.828   3.881  13.256  0.00  0.00    +0.000 OA
ENDBRANCH  22  32
ENDBRANCH  18  29
ENDBRANCH   1  20
TORSDOF 8
ENDMDL
MODEL 9
REMARK VINA RESULT:    -6.252      3.614      8.603
REMARK INTER + INTRA:         -10.743
REMARK INTER:                  -9.284
REMARK INTRA:                  -1.458
REMARK UNBOUND:                -1.567
REMARK  Name = 
REMARK  9 active torsions:
REMARK  status: ('A' for Active; 'I' for Inactive)
REMARK    1  A    between atoms: C_1  and  O_2
REMARK    2  A    between atoms: O_2  and  C_3
REMARK    3  A    between atoms: C_10  and  C_11
REMARK    4  A    between atoms: N_13  and  C_14
REMARK    5  A    between atoms: C_14  and  C_15
REMARK    6  A    between atoms: C_18  and  C_19
REMARK    7  A    between atoms: C_19  and  N_20
REMARK    8  A    between atoms: N_20  and  C_21
REMARK    9  A    between atoms: C_21  and  C_22
REMARK                            x       y       z     vdW  Elec       q    Type
REMARK                         _______ _______ _______ _____ _____    ______ ____
ROOT
ATOM      1  C   UNL     1      47.164   3.356  16.817  0.00  0.00    +0.000 C 
ENDROOT
BRANCH   1   2
ATOM      2  C   UNL     1      48.613   3.452  17.210  0.00  0.00    +0.000 A 
ATOM      3  C   UNL     1      49.478   2.375  16.989  0.00  0.00    +0.000 A 
ATOM      4  C   UNL     1      50.820   2.455  17.358  0.00  0.00    +0.000 A 
ATOM      5  C   UNL     1      51.338   3.633  17.926  0.00  0.00    +0.000 A 
ATOM      6  C   UNL     1      50.454   4.682  18.206  0.00  0.00    +0.000 A 
ATOM      7  C   UNL     1      49.106   4.593  17.858  0.00  0.00    +0.000 A 
BRANCH   5   8
ATOM      8  C   UNL     1      52.805   3.793  18.265  0.00  0.00    +0.000 C 
BRANCH   8   9
ATOM      9  N   UNL     1      53.323   5.157  18.178  0.00  0.00    +0.000 NA
ATOM     10  H   UNL     1      54.020   5.305  18.904  0.00  0.00    +0.000 HD
BRANCH   9  11
ATOM     11  C   UNL     1      53.864   5.504  16.862  0.00  0.00    +0.000 C 
BRANCH  11  12
ATOM     12  C   UNL     1      52.976   6.588  16.236  0.00  0.00    +0.000 C 
ATOM     13  C   UNL     1      53.701   7.335  15.109  0.00  0.00    +0.000 C 
ATOM     14  C   UNL     1      52.806   8.424  14.543  0.00  0.00    +0.000 C 
ATOM     15  O   UNL     1      52.395   9.326  15.570  0.00  0.00    +0.000 OA
ATOM     16  C   UNL     1      51.647   8.677  16.598  0.00  0.00    +0.000 C 
ATOM     17  C   UNL     1      52.485   7.599  17.279  0.00  0.00    +0.000 C 
ENDBRANCH  11  12
ENDBRANCH   9  11
ENDBRANCH   8   9
ENDBRANCH   5   8
ENDBRANCH   1   2
BRANCH   1  20
ATOM     18  C   UNL     1      46.893   4.219  14.527  0.00  0.00    +0.000 C 
ATOM     19  O   UNL     1      47.245   3.150  14.035  0.00  0.00    +0.000 OA
ATOM     20  N   UNL     1      46.831   4.395  15.879  0.00  0.00    +0.000 N 
ATOM     21  H   UNL     1      46.587   5.298  16.260  0.00  0.00    +0.000 HD
BRANCH  18  29
ATOM     22  C   UNL     1      44.091   4.970  12.672  0.00  0.00    +0.000 A 
ATOM     23  N   UNL     1      43.139   5.502  11.880  0.00  0.00    +0.000 NA
ATOM     24  C   UNL     1      43.389   6.685  11.311  0.00  0.00    +0.000 A 
ATOM     25  N   UNL     1      44.489   7.420  11.437  0.00  0.00    +0.000 NA
ATOM     26  C   UNL     1      45.408   6.856  12.241  0.00  0.00    +0.000 A 
ATOM     27  S   UNL     1      46.879   7.655  12.518  0.00  0.00    +0.000 S 
ATOM     28  C   UNL     1      47.424   6.407  13.533  0.00  0.00    +0.000 A 
ATOM     29  C   UNL     1      46.516   5.366  13.683  0.00  0.00    +0.000 A 
ATOM     30  C   UNL     1      45.305   5.639  12.908  0.00  0.00    +0.000 A 
BRANCH  22  32
ATOM     31  C   UNL     1      43.565   2.713  12.354  0.00  0.00    +0.000 C 
ATOM     32  O   UNL     1      43.819   3.764  13.283  0.00  0.00    +0.000 OA
ENDBRANCH  22  32
ENDBRANCH  18  29
ENDBRANCH   1  20
TORSDOF 8
ENDMDL
