MODEL 1
REMARK VINA RESULT:    -8.490      0.000      0.000
REMARK INTER + INTRA:         -11.469
REMARK INTER:                 -10.475
REMARK INTRA:                  -0.994
REMARK UNBOUND:                -0.994
REMARK  Name = 
REMARK  4 active torsions:
REMARK  status: ('A' for Active; 'I' for Inactive)
REMARK    1  A    between atoms: C_2  and  C_4
REMARK    2  A    between atoms: N_8  and  C_9
REMARK    3  A    between atoms: C_9  and  C_10
REMARK    4  A    between atoms: C_15  and  N_16
REMARK                            x       y       z     vdW  Elec       q    Type
REMARK                         _______ _______ _______ _____ _____    ______ ____
ROOT
ATOM      1  C   UNL     1      43.780   4.934  11.365  0.00  0.00    +0.000 C 
ATOM      2  C   UNL     1      42.456   5.129  12.095  0.00  0.00    +0.000 C 
ATOM      3  C   UNL     1      42.865   6.102  11.040  0.00  0.00    +0.000 C 
ENDROOT
BRANCH   1   8
ATOM      4  C   UNL     1      46.563   2.783   7.521  0.00  0.00    +0.000 A 
ATOM      5  C   UNL     1      46.160   4.107   7.665  0.00  0.00    +0.000 A 
ATOM      6  C   UNL     1      45.288   4.453   8.697  0.00  0.00    +0.000 A 
ATOM      7  C   UNL     1      44.819   3.468   9.560  0.00  0.00    +0.000 A 
ATOM      8  N   UNL     1      43.852   3.712  10.540  0.00  0.00    +0.000 N 
ATOM      9  N   UNL     1      45.201   2.179   9.432  0.00  0.00    +0.000 NA
ATOM     10  C   UNL     1      46.054   1.860   8.422  0.00  0.00    +0.000 A 
ATOM     11  H   UNL     1      43.755   2.834  11.047  0.00  0.00    +0.000 HD
BRANCH   4  13
ATOM     12  N   UNL     1      47.336   2.960   5.226  0.00  0.00    +0.000 N 
ATOM     13  C   UNL     1      47.447   2.322   6.429  0.00  0.00    +0.000 C 
ATOM     14  O   UNL     1      48.262   1.426   6.599  0.00  0.00    +0.000 OA
ATOM     15  H   UNL     1      47.994   2.683   4.505  0.00  0.00    +0.000 HD
ATOM     16  H   UNL     1      46.852   3.836   5.107  0.00  0.00    +0.000 HD
ENDBRANCH   4  13
ENDBRANCH   1   8
BRANCH   1  17
ATOM     17  C   UNL     1      45.073   5.232  12.116  0.00  0.00    +0.000 A 
ATOM     18  C   UNL     1      45.630   4.315  13.018  0.00  0.00    +0.000 A 
ATOM     19  C   UNL     1      46.849   4.575  13.638  0.00  0.00    +0.000 A 
ATOM     20  C   UNL     1      47.537   5.752  13.351  0.00  0.00    +0.000 A 
ATOM     21  F   UNL     1      48.752   5.898  13.906  0.00  0.00    +0.000 F 
ATOM     22  C   UNL     1      47.034   6.720  12.464  0.00  0.00    +0.000 A 
ATOM     23  C   UNL     1      45.788   6.426  11.877  0.00  0.00    +0.000 A 
BRANCH  22  24
ATOM     24  N   UNL     1      47.728   7.868  12.129  0.00  0.00    +0.000 N 
ATOM     25  C   UNL     1      49.008   7.843  11.408  0.00  0.00    +0.000 C 
ATOM     26  C   UNL     1      49.979   8.839  12.068  0.00  0.00    +0.000 C 
ATOM     27  O   UNL     1      49.421  10.161  12.136  0.00  0.00    +0.000 OA
ATOM     28  C   UNL     1      48.205  10.148  12.907  0.00  0.00    +0.000 C 
ATOM     29  C   UNL     1      47.156   9.216  12.281  0.00  0.00    +0.000 C 
ENDBRANCH  22  24
ENDBRANCH   1  17
TORSDOF 4
ENDMDL
MODEL 2
REMARK VINA RESULT:    -8.214      2.229      3.256
REMARK INTER + INTRA:         -11.128
REMARK INTER:                 -11.042
REMARK INTRA:                  -0.086
REMARK UNBOUND:                -0.994
REMARK  Name = 
REMARK  4 active torsions:
REMARK  status: ('A' for Active; 'I' for Inactive)
REMARK    1  A    between atoms: C_2  and  C_4
REMARK    2  A    between atoms: N_8  and  C_9
REMARK    3  A    between atoms: C_9  and  C_10
REMARK    4  A    between atoms: C_15  and  N_16
REMARK                            x       y       z     vdW  Elec       q    Type
REMARK                         _______ _______ _______ _____ _____    ______ ____
ROOT
ATOM      1  C   UNL     1      43.967   4.897  11.566  0.00  0.00    +0.000 C 
ATOM      2  C   UNL     1      42.818   4.973  12.566  0.00  0.00    +0.000 C 
ATOM      3  C   UNL     1      42.877   5.947  11.437  0.00  0.00    +0.000 C 
ENDROOT
BRANCH   1   8
ATOM      4  C   UNL     1      46.456   2.744   7.527  0.00  0.00    +0.000 A 
ATOM      5  C   UNL     1      46.034   4.061   7.685  0.00  0.00    +0.000 A 
ATOM      6  C   UNL     1      45.247   4.404   8.784  0.00  0.00    +0.000 A 
ATOM      7  C   UNL     1      44.881   3.424   9.702  0.00  0.00    +0.000 A 
ATOM      8  N   UNL     1      43.998   3.662  10.759  0.00  0.00    +0.000 N 
ATOM      9  N   UNL     1      45.284   2.143   9.561  0.00  0.00    +0.000 NA
ATOM     10  C   UNL     1      46.053   1.827   8.485  0.00  0.00    +0.000 A 
ATOM     11  H   UNL     1      43.970   2.792  11.287  0.00  0.00    +0.000 HD
BRANCH   4  13
ATOM     12  N   UNL     1      47.113   2.982   5.202  0.00  0.00    +0.000 N 
ATOM     13  C   UNL     1      47.253   2.286   6.369  0.00  0.00    +0.000 C 
ATOM     14  O   UNL     1      48.024   1.340   6.456  0.00  0.00    +0.000 OA
ATOM     15  H   UNL     1      47.715   2.701   4.434  0.00  0.00    +0.000 HD
ATOM     16  H   UNL     1      46.674   3.887   5.146  0.00  0.00    +0.000 HD
ENDBRANCH   4  13
ENDBRANCH   1   8
BRANCH   1  17
ATOM     17  C   UNL     1      45.349   5.360  12.015  0.00  0.00    +0.000 A 
ATOM     18  C   UNL     1      46.078   6.314  11.291  0.00  0.00    +0.000 A 
ATOM     19  C   UNL     1      47.305   6.778  11.757  0.00  0.00    +0.000 A 
ATOM     20  C   UNL     1      47.813   6.304  12.965  0.00  0.00    +0.000 A 
ATOM     21  F   UNL     1      48.953   6.863  13.407  0.00  0.00    +0.000 F 
ATOM     22  C   UNL     1      47.140   5.342  13.739  0.00  0.00    +0.000 A 
ATOM     23  C   UNL     1      45.914   4.885  13.219  0.00  0.00    +0.000 A 
BRANCH  22  24
ATOM     24  N   UNL     1      47.605   4.901  14.964  0.00  0.00    +0.000 N 
ATOM     25  C   UNL     1      47.483   3.506  15.407  0.00  0.00    +0.000 C 
ATOM     26  C   UNL     1      47.022   3.481  16.875  0.00  0.00    +0.000 C 
ATOM     27  O   UNL     1      47.898   4.243  17.722  0.00  0.00    +0.000 OA
ATOM     28  C   UNL     1      47.934   5.616  17.290  0.00  0.00    +0.000 C 
ATOM     29  C   UNL     1      48.440   5.735  15.844  0.00  0.00    +0.000 C 
ENDBRANCH  22  24
ENDBRANCH   1  17
TORSDOF 4
ENDMDL
MODEL 3
REMARK VINA RESULT:    -6.617      3.717      8.129
REMARK INTER + INTRA:          -9.158
REMARK INTER:                  -8.255
REMARK INTRA:                  -0.902
REMARK UNBOUND:                -0.994
REMARK  Name = 
REMARK  4 active torsions:
REMARK  status: ('A' for Active; 'I' for Inactive)
REMARK    1  A    between atoms: C_2  and  C_4
REMARK    2  A    between atoms: N_8  and  C_9
REMARK    3  A    between atoms: C_9  and  C_10
REMARK    4  A    between atoms: C_15  and  N_16
REMARK                            x       y       z     vdW  Elec       q    Type
REMARK                         _______ _______ _______ _____ _____    ______ ____
ROOT
ATOM      1  C   UNL     1      48.463   7.552  12.522  0.00  0.00    +0.000 C 
ATOM      2  C   UNL     1      49.460   7.774  11.388  0.00  0.00    +0.000 C 
ATOM      3  C   UNL     1      49.248   8.848  12.402  0.00  0.00    +0.000 C 
ENDROOT
BRANCH   1   8
ATOM      4  C   UNL     1      48.392   6.375  17.596  0.00  0.00    +0.000 A 
ATOM      5  C   UNL     1      48.701   7.589  16.991  0.00  0.00    +0.000 A 
ATOM      6  C   UNL     1      48.808   7.658  15.602  0.00  0.00    +0.000 A 
ATOM      7  C   UNL     1      48.620   6.510  14.839  0.00  0.00    +0.000 A 
ATOM      8  N   UNL     1      48.829   6.471  13.458  0.00  0.00    +0.000 N 
ATOM      9  N   UNL     1      48.320   5.326  15.413  0.00  0.00    +0.000 NA
ATOM     10  C   UNL     1      48.216   5.277  16.768  0.00  0.00    +0.000 A 
ATOM     11  H   UNL     1      48.558   5.532  13.171  0.00  0.00    +0.000 HD
BRANCH   4  13
ATOM     12  N   UNL     1      47.227   5.517  19.546  0.00  0.00    +0.000 N 
ATOM     13  C   UNL     1      48.305   6.203  19.062  0.00  0.00    +0.000 C 
ATOM     14  O   UNL     1      49.173   6.632  19.810  0.00  0.00    +0.000 OA
ATOM     15  H   UNL     1      47.213   5.346  20.547  0.00  0.00    +0.000 HD
ATOM     16  H   UNL     1      46.620   4.959  18.967  0.00  0.00    +0.000 HD
ENDBRANCH   4  13
ENDBRANCH   1   8
BRANCH   1  17
ATOM     17  C   UNL     1      46.975   7.591  12.195  0.00  0.00    +0.000 A 
ATOM     18  C   UNL     1      46.260   8.796  12.151  0.00  0.00    +0.000 A 
ATOM     19  C   UNL     1      44.919   8.817  11.778  0.00  0.00    +0.000 A 
ATOM     20  C   UNL     1      44.277   7.631  11.430  0.00  0.00    +0.000 A 
ATOM     21  F   UNL     1      43.012   7.731  10.986  0.00  0.00    +0.000 F 
ATOM     22  C   UNL     1      44.929   6.385  11.459  0.00  0.00    +0.000 A 
ATOM     23  C   UNL     1      46.278   6.408  11.863  0.00  0.00    +0.000 A 
BRANCH  22  24
ATOM     24  N   UNL     1      44.321   5.207  11.066  0.00  0.00    +0.000 N 
ATOM     25  C   UNL     1      43.188   4.615  11.790  0.00  0.00    +0.000 C 
ATOM     26  C   UNL     1      43.413   3.099  11.926  0.00  0.00    +0.000 C 
ATOM     27  O   UNL     1      43.626   2.474  10.650  0.00  0.00    +0.000 OA
ATOM     28  C   UNL     1      44.783   3.041  10.007  0.00  0.00    +0.000 C 
ATOM     29  C   UNL     1      44.616   4.551   9.782  0.00  0.00    +0.000 C 
ENDBRANCH  22  24
ENDBRANCH   1  17
TORSDOF 4
ENDMDL
MODEL 4
REMARK VINA RESULT:    -6.346      3.680      7.534
REMARK INTER + INTRA:          -8.824
REMARK INTER:                  -8.827
REMARK INTRA:                   0.003
REMARK UNBOUND:                -0.994
REMARK  Name = 
REMARK  4 active torsions:
REMARK  status: ('A' for Active; 'I' for Inactive)
REMARK    1  A    between atoms: C_2  and  C_4
REMARK    2  A    between atoms: N_8  and  C_9
REMARK    3  A    between atoms: C_9  and  C_10
REMARK    4  A    between atoms: C_15  and  N_16
REMARK                            x       y       z     vdW  Elec       q    Type
REMARK                         _______ _______ _______ _____ _____    ______ ____
ROOT
ATOM      1  C   UNL     1      48.349   7.727  12.757  0.00  0.00    +0.000 C 
ATOM      2  C   UNL     1      49.326   6.887  11.942  0.00  0.00    +0.000 C 
ATOM      3  C   UNL     1      49.388   8.376  11.859  0.00  0.00    +0.000 C 
ENDROOT
BRANCH   1   8
ATOM      4  C   UNL     1      47.997   4.242  16.614  0.00  0.00    +0.000 A 
ATOM      5  C   UNL     1      47.164   4.403  15.510  0.00  0.00    +0.000 A 
ATOM      6  C   UNL     1      47.344   5.499  14.666  0.00  0.00    +0.000 A 
ATOM      7  C   UNL     1      48.344   6.425  14.945  0.00  0.00    +0.000 A 
ATOM      8  N   UNL     1      48.509   7.608  14.220  0.00  0.00    +0.000 N 
ATOM      9  N   UNL     1      49.159   6.281  16.012  0.00  0.00    +0.000 NA
ATOM     10  C   UNL     1      48.971   5.206  16.823  0.00  0.00    +0.000 A 
ATOM     11  H   UNL     1      49.344   8.047  14.606  0.00  0.00    +0.000 HD
BRANCH   4  13
ATOM     12  N   UNL     1      48.909   2.874  18.401  0.00  0.00    +0.000 N 
ATOM     13  C   UNL     1      47.846   3.137  17.584  0.00  0.00    +0.000 C 
ATOM     14  O   UNL     1      46.804   2.499  17.672  0.00  0.00    +0.000 OA
ATOM     15  H   UNL     1      48.769   2.160  19.109  0.00  0.00    +0.000 HD
ATOM     16  H   UNL     1      49.684   3.507  18.520  0.00  0.00    +0.000 HD
ENDBRANCH   4  13
ENDBRANCH   1   8
BRANCH   1  17
ATOM     17  C   UNL     1      46.892   7.781  12.312  0.00  0.00    +0.000 A 
ATOM     18  C   UNL     1      46.210   8.996  12.166  0.00  0.00    +0.000 A 
ATOM     19  C   UNL     1      44.903   9.027  11.687  0.00  0.00    +0.000 A 
ATOM     20  C   UNL     1      44.265   7.841  11.331  0.00  0.00    +0.000 A 
ATOM     21  F   UNL     1      43.042   7.948  10.784  0.00  0.00    +0.000 F 
ATOM     22  C   UNL     1      44.886   6.586  11.458  0.00  0.00    +0.000 A 
ATOM     23  C   UNL     1      46.199   6.599  11.968  0.00  0.00    +0.000 A 
BRANCH  22  24
ATOM     24  N   UNL     1      44.286   5.405  11.060  0.00  0.00    +0.000 N 
ATOM     25  C   UNL     1      43.126   4.828  11.753  0.00  0.00    +0.000 C 
ATOM     26  C   UNL     1      43.340   3.313  11.918  0.00  0.00    +0.000 C 
ATOM     27  O   UNL     1      43.593   2.670  10.658  0.00  0.00    +0.000 OA
ATOM     28  C   UNL     1      44.775   3.222  10.048  0.00  0.00    +0.000 C 
ATOM     29  C   UNL     1      44.623   4.730   9.796  0.00  0.00    +0.000 C 
ENDBRANCH  22  24
ENDBRANCH   1  17
TORSDOF 4
ENDMDL
MODEL 5
REMARK VINA RESULT:    -6.201      3.779      5.876
REMARK INTER + INTRA:          -8.645
REMARK INTER:                  -8.258
REMARK INTRA:                  -0.387
REMARK UNBOUND:                -0.994
REMARK  Name = 
REMARK  4 active torsions:
REMARK  status: ('A' for Active; 'I' for Inactive)
REMARK    1  A    between atoms: C_2  and  C_4
REMARK    2  A    between atoms: N_8  and  C_9
REMARK    3  A    between atoms: C_9  and  C_10
REMARK    4  A    between atoms: C_15  and  N_16
REMARK                            x       y       z     vdW  Elec       q    Type
REMARK                         _______ _______ _______ _____ _____    ______ ____
ROOT
ATOM      1  C   UNL     1      47.747   8.260  13.098  0.00  0.00    +0.000 C 
ATOM      2  C   UNL     1      47.791   9.756  12.807  0.00  0.00    +0.000 C 
ATOM      3  C   UNL     1      48.282   8.792  11.779  0.00  0.00    +0.000 C 
ENDROOT
BRANCH   1   8
ATOM      4  C   UNL     1      44.654   4.508  11.227  0.00  0.00    +0.000 A 
ATOM      5  C   UNL     1      45.540   5.329  10.535  0.00  0.00    +0.000 A 
ATOM      6  C   UNL     1      46.170   6.379  11.202  0.00  0.00    +0.000 A 
ATOM      7  C   UNL     1      45.894   6.604  12.547  0.00  0.00    +0.000 A 
ATOM      8  N   UNL     1      46.389   7.704  13.253  0.00  0.00    +0.000 N 
ATOM      9  N   UNL     1      45.037   5.816  13.231  0.00  0.00    +0.000 NA
ATOM     10  C   UNL     1      44.434   4.794  12.566  0.00  0.00    +0.000 A 
ATOM     11  H   UNL     1      46.076   7.572  14.213  0.00  0.00    +0.000 HD
BRANCH   4  13
ATOM     12  N   UNL     1      44.160   3.166   9.265  0.00  0.00    +0.000 N 
ATOM     13  C   UNL     1      43.910   3.403  10.587  0.00  0.00    +0.000 C 
ATOM     14  O   UNL     1      43.122   2.711  11.218  0.00  0.00    +0.000 OA
ATOM     15  H   UNL     1      43.696   2.363   8.853  0.00  0.00    +0.000 HD
ATOM     16  H   UNL     1      44.951   3.552   8.773  0.00  0.00    +0.000 HD
ENDBRANCH   4  13
ENDBRANCH   1   8
BRANCH   1  17
ATOM     17  C   UNL     1      48.751   7.685  14.091  0.00  0.00    +0.000 A 
ATOM     18  C   UNL     1      50.082   8.124  14.132  0.00  0.00    +0.000 A 
ATOM     19  C   UNL     1      50.964   7.640  15.094  0.00  0.00    +0.000 A 
ATOM     20  C   UNL     1      50.520   6.719  16.041  0.00  0.00    +0.000 A 
ATOM     21  F   UNL     1      51.393   6.366  17.001  0.00  0.00    +0.000 F 
ATOM     22  C   UNL     1      49.203   6.229  16.055  0.00  0.00    +0.000 A 
ATOM     23  C   UNL     1      48.352   6.728  15.050  0.00  0.00    +0.000 A 
BRANCH  22  24
ATOM     24  N   UNL     1      48.734   5.355  17.019  0.00  0.00    +0.000 N 
ATOM     25  C   UNL     1      48.751   5.669  18.454  0.00  0.00    +0.000 C 
ATOM     26  C   UNL     1      49.246   4.438  19.234  0.00  0.00    +0.000 C 
ATOM     27  O   UNL     1      48.458   3.272  18.944  0.00  0.00    +0.000 OA
ATOM     28  C   UNL     1      48.525   2.965  17.539  0.00  0.00    +0.000 C 
ATOM     29  C   UNL     1      47.994   4.127  16.686  0.00  0.00    +0.000 C 
ENDBRANCH  22  24
ENDBRANCH   1  17
TORSDOF 4
ENDMDL
MODEL 6
REMARK VINA RESULT:    -5.783      5.252      8.678
REMARK INTER + INTRA:          -8.129
REMARK INTER:                  -7.993
REMARK INTRA:                  -0.136
REMARK UNBOUND:                -0.994
REMARK  Name = 
REMARK  4 active torsions:
REMARK  status: ('A' for Active; 'I' for Inactive)
REMARK    1  A    between atoms: C_2  and  C_4
REMARK    2  A    between atoms: N_8  and  C_9
REMARK    3  A    between atoms: C_9  and  C_10
REMARK    4  A    between atoms: C_15  and  N_16
REMARK                            x       y       z     vdW  Elec       q    Type
REMARK                         _______ _______ _______ _____ _____    ______ ____
ROOT
ATOM      1  C   UNL     1      48.190   4.709  16.652  0.00  0.00    +0.000 C 
ATOM      2  C   UNL     1      47.158   4.326  17.707  0.00  0.00    +0.000 C 
ATOM      3  C   UNL     1      47.894   3.254  16.975  0.00  0.00    +0.000 C 
ENDROOT
BRANCH   1   8
ATOM      4  C   UNL     1      53.238   4.001  17.728  0.00  0.00    +0.000 A 
ATOM      5  C   UNL     1      52.175   3.129  17.942  0.00  0.00    +0.000 A 
ATOM      6  C   UNL     1      50.869   3.569  17.720  0.00  0.00    +0.000 A 
ATOM      7  C   UNL     1      50.646   4.877  17.303  0.00  0.00    +0.000 A 
ATOM      8  N   UNL     1      49.367   5.428  17.177  0.00  0.00    +0.000 N 
ATOM      9  N   UNL     1      51.668   5.733  17.092  0.00  0.00    +0.000 NA
ATOM     10  C   UNL     1      52.934   5.287  17.310  0.00  0.00    +0.000 A 
ATOM     11  H   UNL     1      49.513   6.364  16.802  0.00  0.00    +0.000 HD
BRANCH   4  13
ATOM     12  N   UNL     1      55.456   3.471  16.892  0.00  0.00    +0.000 N 
ATOM     13  C   UNL     1      54.647   3.631  17.982  0.00  0.00    +0.000 C 
ATOM     14  O   UNL     1      55.080   3.500  19.119  0.00  0.00    +0.000 OA
ATOM     15  H   UNL     1      56.436   3.286  17.081  0.00  0.00    +0.000 HD
ATOM     16  H   UNL     1      55.208   3.787  15.968  0.00  0.00    +0.000 HD
ENDBRANCH   4  13
ENDBRANCH   1   8
BRANCH   1  17
ATOM     17  C   UNL     1      47.695   5.255  15.318  0.00  0.00    +0.000 A 
ATOM     18  C   UNL     1      48.356   6.300  14.657  0.00  0.00    +0.000 A 
ATOM     19  C   UNL     1      47.930   6.734  13.405  0.00  0.00    +0.000 A 
ATOM     20  C   UNL     1      46.844   6.117  12.788  0.00  0.00    +0.000 A 
ATOM     21  F   UNL     1      46.545   6.517  11.540  0.00  0.00    +0.000 F 
ATOM     22  C   UNL     1      46.129   5.070  13.395  0.00  0.00    +0.000 A 
ATOM     23  C   UNL     1      46.580   4.678  14.670  0.00  0.00    +0.000 A 
BRANCH  22  24
ATOM     24  N   UNL     1      45.083   4.413  12.774  0.00  0.00    +0.000 N 
ATOM     25  C   UNL     1      45.244   3.118  12.099  0.00  0.00    +0.000 C 
ATOM     26  C   UNL     1      44.495   3.153  10.755  0.00  0.00    +0.000 C 
ATOM     27  O   UNL     1      43.112   3.507  10.924  0.00  0.00    +0.000 OA
ATOM     28  C   UNL     1      43.004   4.809  11.529  0.00  0.00    +0.000 C 
ATOM     29  C   UNL     1      43.682   4.846  12.907  0.00  0.00    +0.000 C 
ENDBRANCH  22  24
ENDBRANCH   1  17
TORSDOF 4
ENDMDL
MODEL 7
REMARK VINA RESULT:    -5.774      3.139      4.384
REMARK INTER + INTRA:          -8.118
REMARK INTER:                  -7.237
REMARK INTRA:                  -0.881
REMARK UNBOUND:                -0.994
REMARK  Name = 
REMARK  4 active torsions:
REMARK  status: ('A' for Active; 'I' for Inactive)
REMARK    1  A    between atoms: C_2  and  C_4
REMARK    2  A    between atoms: N_8  and  C_9
REMARK    3  A    between atoms: C_9  and  C_10
REMARK    4  A    between atoms: C_15  and  N_16
REMARK                            x       y       z     vdW  Elec       q    Type
REMARK                         _______ _______ _______ _____ _____    ______ ____
ROOT
ATOM      1  C   UNL     1      45.848   7.843  12.465  0.00  0.00    +0.000 C 
ATOM      2  C   UNL     1      45.109   9.117  12.860  0.00  0.00    +0.000 C 
ATOM      3  C   UNL     1      45.592   8.951  11.457  0.00  0.00    +0.000 C 
ENDROOT
BRANCH   1   8
ATOM      4  C   UNL     1      45.073   3.331   9.978  0.00  0.00    +0.000 A 
ATOM      5  C   UNL     1      45.287   4.595   9.436  0.00  0.00    +0.000 A 
ATOM      6  C   UNL     1      45.324   5.707  10.278  0.00  0.00    +0.000 A 
ATOM      7  C   UNL     1      45.132   5.541  11.646  0.00  0.00    +0.000 A 
ATOM      8  N   UNL     1      45.034   6.614  12.536  0.00  0.00    +0.000 N 
ATOM      9  N   UNL     1      44.924   4.321  12.184  0.00  0.00    +0.000 NA
ATOM     10  C   UNL     1      44.894   3.247  11.350  0.00  0.00    +0.000 A 
ATOM     11  H   UNL     1      44.958   6.191  13.460  0.00  0.00    +0.000 HD
BRANCH   4  13
ATOM     12  N   UNL     1      46.059   1.777   8.393  0.00  0.00    +0.000 N 
ATOM     13  C   UNL     1      44.974   2.106   9.155  0.00  0.00    +0.000 C 
ATOM     14  O   UNL     1      43.973   1.402   9.173  0.00  0.00    +0.000 OA
ATOM     15  H   UNL     1      46.005   0.900   7.885  0.00  0.00    +0.000 HD
ATOM     16  H   UNL     1      46.969   2.191   8.518  0.00  0.00    +0.000 HD
ENDBRANCH   4  13
ENDBRANCH   1   8
BRANCH   1  17
ATOM     17  C   UNL     1      47.277   7.651  12.960  0.00  0.00    +0.000 A 
ATOM     18  C   UNL     1      48.384   7.994  12.171  0.00  0.00    +0.000 A 
ATOM     19  C   UNL     1      49.678   7.880  12.671  0.00  0.00    +0.000 A 
ATOM     20  C   UNL     1      49.883   7.434  13.975  0.00  0.00    +0.000 A 
ATOM     21  F   UNL     1      51.148   7.440  14.428  0.00  0.00    +0.000 F 
ATOM     22  C   UNL     1      48.821   7.065  14.819  0.00  0.00    +0.000 A 
ATOM     23  C   UNL     1      47.531   7.175  14.266  0.00  0.00    +0.000 A 
BRANCH  22  24
ATOM     24  N   UNL     1      49.004   6.672  16.132  0.00  0.00    +0.000 N 
ATOM     25  C   UNL     1      49.367   7.612  17.202  0.00  0.00    +0.000 C 
ATOM     26  C   UNL     1      50.467   6.982  18.075  0.00  0.00    +0.000 C 
ATOM     27  O   UNL     1      50.070   5.701  18.591  0.00  0.00    +0.000 OA
ATOM     28  C   UNL     1      49.788   4.796  17.508  0.00  0.00    +0.000 C 
ATOM     29  C   UNL     1      48.656   5.326  16.614  0.00  0.00    +0.000 C 
ENDBRANCH  22  24
ENDBRANCH   1  17
TORSDOF 4
ENDMDL
MODEL 8
REMARK VINA RESULT:    -5.550      1.925      2.181
REMARK INTER + INTRA:          -7.842
REMARK INTER:                  -7.667
REMARK INTRA:                  -0.175
REMARK UNBOUND:                -0.994
REMARK  Name = 
REMARK  4 active torsions:
REMARK  status: ('A' for Active; 'I' for Inactive)
REMARK    1  A    between atoms: C_2  and  C_4
REMARK    2  A    between atoms: N_8  and  C_9
REMARK    3  A    between atoms: C_9  and  C_10
REMARK    4  A    between atoms: C_15  and  N_16
REMARK                            x       y       z     vdW  Elec       q    Type
REMARK                         _______ _______ _______ _____ _____    ______ ____
ROOT
ATOM      1  C   UNL     1      44.839   6.006  11.505  0.00  0.00    +0.000 C 
ATOM      2  C   UNL     1      43.751   7.054  11.718  0.00  0.00    +0.000 C 
ATOM      3  C   UNL     1      44.987   7.418  10.964  0.00  0.00    +0.000 C 
ENDROOT
BRANCH   1   8
ATOM      4  C   UNL     1      46.493   3.105   7.506  0.00  0.00    +0.000 A 
ATOM      5  C   UNL     1      46.597   4.482   7.681  0.00  0.00    +0.000 A 
ATOM      6  C   UNL     1      45.953   5.089   8.760  0.00  0.00    +0.000 A 
ATOM      7  C   UNL     1      45.203   4.314   9.638  0.00  0.00    +0.000 A 
ATOM      8  N   UNL     1      44.432   4.861  10.668  0.00  0.00    +0.000 N 
ATOM      9  N   UNL     1      45.093   2.978   9.479  0.00  0.00    +0.000 NA
ATOM     10  C   UNL     1      45.729   2.402   8.424  0.00  0.00    +0.000 A 
ATOM     11  H   UNL     1      44.051   4.062  11.172  0.00  0.00    +0.000 HD
BRANCH   4  13
ATOM     12  N   UNL     1      48.226   1.653   6.621  0.00  0.00    +0.000 N 
ATOM     13  C   UNL     1      47.104   2.388   6.366  0.00  0.00    +0.000 C 
ATOM     14  O   UNL     1      46.612   2.429   5.246  0.00  0.00    +0.000 OA
ATOM     15  H   UNL     1      48.597   1.111   5.847  0.00  0.00    +0.000 HD
ATOM     16  H   UNL     1      48.529   1.409   7.551  0.00  0.00    +0.000 HD
ENDBRANCH   4  13
ENDBRANCH   1   8
BRANCH   1  17
ATOM     17  C   UNL     1      45.703   5.607  12.695  0.00  0.00    +0.000 A 
ATOM     18  C   UNL     1      45.617   4.333  13.275  0.00  0.00    +0.000 A 
ATOM     19  C   UNL     1      46.467   3.964  14.314  0.00  0.00    +0.000 A 
ATOM     20  C   UNL     1      47.428   4.861  14.777  0.00  0.00    +0.000 A 
ATOM     21  F   UNL     1      48.280   4.410  15.714  0.00  0.00    +0.000 F 
ATOM     22  C   UNL     1      47.565   6.156  14.249  0.00  0.00    +0.000 A 
ATOM     23  C   UNL     1      46.670   6.495  13.215  0.00  0.00    +0.000 A 
BRANCH  22  24
ATOM     24  N   UNL     1      48.547   7.038  14.661  0.00  0.00    +0.000 N 
ATOM     25  C   UNL     1      49.522   6.711  15.710  0.00  0.00    +0.000 C 
ATOM     26  C   UNL     1      49.667   7.914  16.658  0.00  0.00    +0.000 C 
ATOM     27  O   UNL     1      50.018   9.113  15.947  0.00  0.00    +0.000 OA
ATOM     28  C   UNL     1      49.002   9.430  14.977  0.00  0.00    +0.000 C 
ATOM     29  C   UNL     1      48.832   8.297  13.954  0.00  0.00    +0.000 C 
ENDBRANCH  22  24
ENDBRANCH   1  17
TORSDOF 4
ENDMDL
