MODEL 1
REMARK VINA RESULT:    -7.788      0.000      0.000
REMARK INTER + INTRA:         -11.560
REMARK INTER:                 -10.520
REMARK INTRA:                  -1.040
REMARK UNBOUND:                -1.040
REMARK  Name = 
REMARK  7 active torsions:
REMARK  status: ('A' for Active; 'I' for Inactive)
REMARK    1  A    between atoms: C_1  and  C_2
REMARK    2  A    between atoms: C_2  and  N_3
REMARK    3  A    between atoms: C_2  and  C_16
REMARK    4  A    between atoms: C_4  and  C_6
REMARK    5  A    between atoms: C_19  and  C_20
REMARK    6  A    between atoms: C_20  and  N_21
REMARK    7  A    between atoms: C_22  and  C_24
REMARK                            x       y       z     vdW  Elec       q    Type
REMARK                         _______ _______ _______ _____ _____    ______ ____
ROOT
ATOM      1  C   UNL     1      47.258   9.125  13.569  0.00  0.00    +0.000 C 
ATOM      2  C   UNL     1      47.817   7.705  13.726  0.00  0.00    +0.000 C 
ENDROOT
BRANCH   2   3
ATOM      3  C   UNL     1      46.974   6.678  12.973  0.00  0.00    +0.000 A 
ATOM      4  C   UNL     1      46.684   5.432  13.546  0.00  0.00    +0.000 A 
ATOM      5  C   UNL     1      45.852   4.504  12.904  0.00  0.00    +0.000 A 
ATOM      6  C   UNL     1      45.300   4.772  11.644  0.00  0.00    +0.000 A 
ATOM      7  C   UNL     1      45.606   6.010  11.056  0.00  0.00    +0.000 A 
ATOM      8  C   UNL     1      46.433   6.945  11.706  0.00  0.00    +0.000 A 
BRANCH   6   9
ATOM      9  C   UNL     1      44.440   3.764  10.906  0.00  0.00    +0.000 C 
BRANCH   9  10
ATOM     10  N   UNL     1      45.156   2.958   9.939  0.00  0.00    +0.000 N 
ATOM     11  C   UNL     1      45.301   3.329   8.623  0.00  0.00    +0.000 C 
ATOM     12  O   UNL     1      44.828   4.343   8.151  0.00  0.00    +0.000 OA
ATOM     13  H   UNL     1      45.754   2.216  10.276  0.00  0.00    +0.000 HD
BRANCH  11  14
ATOM     14  C   UNL     1      46.100   2.398   7.856  0.00  0.00    +0.000 A 
ATOM     15  C   UNL     1      46.897   2.546   6.736  0.00  0.00    +0.000 A 
ATOM     16  C   UNL     1      47.411   1.265   6.474  0.00  0.00    +0.000 A 
ATOM     17  N   UNL     1      46.971   0.358   7.346  0.00  0.00    +0.000 NA
ATOM     18  N   UNL     1      46.196   1.071   8.185  0.00  0.00    +0.000 N 
ATOM     19  H   UNL     1      45.751   0.597   8.965  0.00  0.00    +0.000 HD
ENDBRANCH  11  14
ENDBRANCH   9  10
ENDBRANCH   6   9
ENDBRANCH   2   3
BRANCH   2  20
ATOM     20  N   UNL     1      47.926   7.350  15.133  0.00  0.00    +0.000 N 
ATOM     21  C   UNL     1      49.106   6.892  15.678  0.00  0.00    +0.000 C 
ATOM     22  O   UNL     1      50.134   6.746  15.032  0.00  0.00    +0.000 OA
ATOM     23  H   UNL     1      47.066   7.214  15.650  0.00  0.00    +0.000 HD
BRANCH  21  24
ATOM     24  C   UNL     1      49.086   6.646  17.116  0.00  0.00    +0.000 A 
ATOM     25  C   UNL     1      49.364   7.665  18.014  0.00  0.00    +0.000 A 
ATOM     26  S   UNL     1      49.293   7.155  19.644  0.00  0.00    +0.000 S 
ATOM     27  C   UNL     1      48.929   5.557  19.185  0.00  0.00    +0.000 A 
ATOM     28  N   UNL     1      48.772   4.572  20.109  0.00  0.00    +0.000 NA
ATOM     29  C   UNL     1      48.543   3.404  19.605  0.00  0.00    +0.000 A 
ATOM     30  N   UNL     1      48.446   3.131  18.264  0.00  0.00    +0.000 N 
ATOM     31  C   UNL     1      48.572   4.095  17.297  0.00  0.00    +0.000 A 
ATOM     32  O   UNL     1      48.438   3.831  16.107  0.00  0.00    +0.000 OA
ATOM     33  C   UNL     1      48.842   5.419  17.814  0.00  0.00    +0.000 A 
ATOM     34  H   UNL     1      48.258   2.195  17.937  0.00  0.00    +0.000 HD
ENDBRANCH  21  24
ENDBRANCH   2  20
TORSDOF 6
ENDMDL
MODEL 2
REMARK VINA RESULT:    -7.763      1.681      2.477
REMARK INTER + INTRA:         -11.527
REMARK INTER:                 -10.389
REMARK INTRA:                  -1.138
REMARK UNBOUND:                -1.040
REMARK  Name = 
REMARK  7 active torsions:
REMARK  status: ('A' for Active; 'I' for Inactive)
REMARK    1  A    between atoms: C_1  and  C_2
REMARK    2  A    between atoms: C_2  and  N_3
REMARK    3  A    between atoms: C_2  and  C_16
REMARK    4  A    between atoms: C_4  and  C_6
REMARK    5  A    between atoms: C_19  and  C_20
REMARK    6  A    between atoms: C_20  and  N_21
REMARK    7  A    between atoms: C_22  and  C_24
REMARK                            x       y       z     vdW  Elec       q    Type
REMARK                         _______ _______ _______ _____ _____    ______ ____
ROOT
ATOM      1  C   UNL     1      47.815   9.038  13.817  0.00  0.00    +0.000 C 
ATOM      2  C   UNL     1      48.066   7.533  13.981  0.00  0.00    +0.000 C 
ENDROOT
BRANCH   2   3
ATOM      3  C   UNL     1      47.103   6.702  13.136  0.00  0.00    +0.000 A 
ATOM      4  C   UNL     1      46.602   7.200  11.926  0.00  0.00    +0.000 A 
ATOM      5  C   UNL     1      45.775   6.427  11.099  0.00  0.00    +0.000 A 
ATOM      6  C   UNL     1      45.388   5.131  11.466  0.00  0.00    +0.000 A 
ATOM      7  C   UNL     1      45.869   4.636  12.689  0.00  0.00    +0.000 A 
ATOM      8  C   UNL     1      46.708   5.410  13.513  0.00  0.00    +0.000 A 
BRANCH   6   9
ATOM      9  C   UNL     1      44.452   4.294  10.615  0.00  0.00    +0.000 C 
BRANCH   9  10
ATOM     10  N   UNL     1      45.110   3.276   9.823  0.00  0.00    +0.000 N 
ATOM     11  C   UNL     1      45.546   3.500   8.538  0.00  0.00    +0.000 C 
ATOM     12  O   UNL     1      45.401   4.552   7.949  0.00  0.00    +0.000 OA
ATOM     13  H   UNL     1      45.458   2.450  10.290  0.00  0.00    +0.000 HD
BRANCH  11  14
ATOM     14  C   UNL     1      46.222   2.357   7.962  0.00  0.00    +0.000 A 
ATOM     15  C   UNL     1      46.084   0.994   8.147  0.00  0.00    +0.000 A 
ATOM     16  C   UNL     1      47.032   0.405   7.293  0.00  0.00    +0.000 A 
ATOM     17  N   UNL     1      47.736   1.315   6.620  0.00  0.00    +0.000 NA
ATOM     18  N   UNL     1      47.214   2.488   7.026  0.00  0.00    +0.000 N 
ATOM     19  H   UNL     1      47.579   3.350   6.633  0.00  0.00    +0.000 HD
ENDBRANCH  11  14
ENDBRANCH   9  10
ENDBRANCH   6   9
ENDBRANCH   2   3
BRANCH   2  20
ATOM     20  N   UNL     1      47.984   7.151  15.383  0.00  0.00    +0.000 N 
ATOM     21  C   UNL     1      49.068   6.637  16.061  0.00  0.00    +0.000 C 
ATOM     22  O   UNL     1      50.163   6.461  15.546  0.00  0.00    +0.000 OA
ATOM     23  H   UNL     1      47.062   7.041  15.786  0.00  0.00    +0.000 HD
BRANCH  21  24
ATOM     24  C   UNL     1      48.859   6.368  17.480  0.00  0.00    +0.000 A 
ATOM     25  C   UNL     1      49.137   5.118  18.013  0.00  0.00    +0.000 A 
ATOM     26  S   UNL     1      48.813   5.021  19.688  0.00  0.00    +0.000 S 
ATOM     27  C   UNL     1      48.258   6.629  19.730  0.00  0.00    +0.000 A 
ATOM     28  N   UNL     1      47.786   7.188  20.876  0.00  0.00    +0.000 NA
ATOM     29  C   UNL     1      47.361   8.401  20.739  0.00  0.00    +0.000 A 
ATOM     30  N   UNL     1      47.374   9.111  19.565  0.00  0.00    +0.000 N 
ATOM     31  C   UNL     1      47.862   8.599  18.390  0.00  0.00    +0.000 A 
ATOM     32  O   UNL     1      47.902   9.271  17.365  0.00  0.00    +0.000 OA
ATOM     33  C   UNL     1      48.339   7.237  18.492  0.00  0.00    +0.000 A 
ATOM     34  H   UNL     1      47.032  10.060  19.529  0.00  0.00    +0.000 HD
ENDBRANCH  21  24
ENDBRANCH   2  20
TORSDOF 6
ENDMDL
MODEL 3
REMARK VINA RESULT:    -7.556      2.759      4.503
REMARK INTER + INTRA:         -11.247
REMARK INTER:                 -10.046
REMARK INTRA:                  -1.202
REMARK UNBOUND:                -1.040
REMARK  Name = 
REMARK  7 active torsions:
REMARK  status: ('A' for Active; 'I' for Inactive)
REMARK    1  A    between atoms: C_1  and  C_2
REMARK    2  A    between atoms: C_2  and  N_3
REMARK    3  A    between atoms: C_2  and  C_16
REMARK    4  A    between atoms: C_4  and  C_6
REMARK    5  A    between atoms: C_19  and  C_20
REMARK    6  A    between atoms: C_20  and  N_21
REMARK    7  A    between atoms: C_22  and  C_24
REMARK                            x       y       z     vdW  Elec       q    Type
REMARK                         _______ _______ _______ _____ _____    ______ ____
ROOT
ATOM      1  C   UNL     1      47.234   4.442  15.435  0.00  0.00    +0.000 C 
ATOM      2  C   UNL     1      47.144   5.630  14.468  0.00  0.00    +0.000 C 
ENDROOT
BRANCH   2   3
ATOM      3  C   UNL     1      46.471   5.241  13.154  0.00  0.00    +0.000 A 
ATOM      4  C   UNL     1      45.795   4.020  13.031  0.00  0.00    +0.000 A 
ATOM      5  C   UNL     1      45.108   3.675  11.859  0.00  0.00    +0.000 A 
ATOM      6  C   UNL     1      45.096   4.527  10.746  0.00  0.00    +0.000 A 
ATOM      7  C   UNL     1      45.792   5.742  10.857  0.00  0.00    +0.000 A 
ATOM      8  C   UNL     1      46.472   6.091  12.038  0.00  0.00    +0.000 A 
BRANCH   6   9
ATOM      9  C   UNL     1      44.405   4.154   9.448  0.00  0.00    +0.000 C 
BRANCH   9  10
ATOM     10  N   UNL     1      45.304   3.800   8.370  0.00  0.00    +0.000 N 
ATOM     11  C   UNL     1      45.866   2.551   8.248  0.00  0.00    +0.000 C 
ATOM     12  O   UNL     1      45.679   1.647   9.037  0.00  0.00    +0.000 OA
ATOM     13  H   UNL     1      45.354   4.408   7.563  0.00  0.00    +0.000 HD
BRANCH  11  14
ATOM     14  C   UNL     1      46.686   2.411   7.065  0.00  0.00    +0.000 A 
ATOM     15  C   UNL     1      46.622   2.978   5.805  0.00  0.00    +0.000 A 
ATOM     16  C   UNL     1      47.711   2.441   5.099  0.00  0.00    +0.000 A 
ATOM     17  N   UNL     1      48.416   1.585   5.838  0.00  0.00    +0.000 NA
ATOM     18  N   UNL     1      47.789   1.599   7.029  0.00  0.00    +0.000 N 
ATOM     19  H   UNL     1      48.156   1.027   7.784  0.00  0.00    +0.000 HD
ENDBRANCH  11  14
ENDBRANCH   9  10
ENDBRANCH   6   9
ENDBRANCH   2   3
BRANCH   2  20
ATOM     20  N   UNL     1      48.464   6.192  14.225  0.00  0.00    +0.000 N 
ATOM     21  C   UNL     1      48.932   7.281  14.928  0.00  0.00    +0.000 C 
ATOM     22  O   UNL     1      48.283   7.853  15.794  0.00  0.00    +0.000 OA
ATOM     23  H   UNL     1      48.938   5.926  13.371  0.00  0.00    +0.000 HD
BRANCH  21  24
ATOM     24  C   UNL     1      50.300   7.689  14.629  0.00  0.00    +0.000 A 
ATOM     25  C   UNL     1      51.305   7.550  15.575  0.00  0.00    +0.000 A 
ATOM     26  S   UNL     1      52.825   8.096  15.018  0.00  0.00    +0.000 S 
ATOM     27  C   UNL     1      52.169   8.566  13.520  0.00  0.00    +0.000 A 
ATOM     28  N   UNL     1      52.935   9.155  12.563  0.00  0.00    +0.000 NA
ATOM     29  C   UNL     1      52.284   9.493  11.498  0.00  0.00    +0.000 A 
ATOM     30  N   UNL     1      50.943   9.288  11.297  0.00  0.00    +0.000 N 
ATOM     31  C   UNL     1      50.136   8.677  12.222  0.00  0.00    +0.000 A 
ATOM     32  O   UNL     1      48.948   8.468  11.997  0.00  0.00    +0.000 OA
ATOM     33  C   UNL     1      50.818   8.291  13.438  0.00  0.00    +0.000 A 
ATOM     34  H   UNL     1      50.498   9.572  10.436  0.00  0.00    +0.000 HD
ENDBRANCH  21  24
ENDBRANCH   2  20
TORSDOF 6
ENDMDL
MODEL 4
REMARK VINA RESULT:    -6.674      2.545      3.708
REMARK INTER + INTRA:         -10.055
REMARK INTER:                  -9.176
REMARK INTRA:                  -0.880
REMARK UNBOUND:                -1.040
REMARK  Name = 
REMARK  7 active torsions:
REMARK  status: ('A' for Active; 'I' for Inactive)
REMARK    1  A    between atoms: C_1  and  C_2
REMARK    2  A    between atoms: C_2  and  N_3
REMARK    3  A    between atoms: C_2  and  C_16
REMARK    4  A    between atoms: C_4  and  C_6
REMARK    5  A    between atoms: C_19  and  C_20
REMARK    6  A    between atoms: C_20  and  N_21
REMARK    7  A    between atoms: C_22  and  C_24
REMARK                            x       y       z     vdW  Elec       q    Type
REMARK                         _______ _______ _______ _____ _____    ______ ____
ROOT
ATOM      1  C   UNL     1      47.838   3.930  15.610  0.00  0.00    +0.000 C 
ATOM      2  C   UNL     1      47.194   5.195  15.028  0.00  0.00    +0.000 C 
ENDROOT
BRANCH   2   3
ATOM      3  C   UNL     1      46.378   4.889  13.774  0.00  0.00    +0.000 A 
ATOM      4  C   UNL     1      45.992   5.917  12.904  0.00  0.00    +0.000 A 
ATOM      5  C   UNL     1      45.306   5.652  11.710  0.00  0.00    +0.000 A 
ATOM      6  C   UNL     1      44.949   4.344  11.353  0.00  0.00    +0.000 A 
ATOM      7  C   UNL     1      45.313   3.313  12.233  0.00  0.00    +0.000 A 
ATOM      8  C   UNL     1      46.011   3.580  13.426  0.00  0.00    +0.000 A 
BRANCH   6   9
ATOM      9  C   UNL     1      44.160   4.036  10.094  0.00  0.00    +0.000 C 
BRANCH   9  10
ATOM     10  N   UNL     1      44.913   3.346   9.069  0.00  0.00    +0.000 N 
ATOM     11  C   UNL     1      45.802   3.988   8.238  0.00  0.00    +0.000 C 
ATOM     12  O   UNL     1      46.017   5.182   8.274  0.00  0.00    +0.000 OA
ATOM     13  H   UNL     1      44.959   2.336   9.100  0.00  0.00    +0.000 HD
BRANCH  11  14
ATOM     14  C   UNL     1      46.479   3.089   7.329  0.00  0.00    +0.000 A 
ATOM     15  C   UNL     1      46.906   3.223   6.021  0.00  0.00    +0.000 A 
ATOM     16  C   UNL     1      47.499   1.992   5.695  0.00  0.00    +0.000 A 
ATOM     17  N   UNL     1      47.447   1.125   6.707  0.00  0.00    +0.000 NA
ATOM     18  N   UNL     1      46.844   1.818   7.691  0.00  0.00    +0.000 N 
ATOM     19  H   UNL     1      46.702   1.371   8.591  0.00  0.00    +0.000 HD
ENDBRANCH  11  14
ENDBRANCH   9  10
ENDBRANCH   6   9
ENDBRANCH   2   3
BRANCH   2  20
ATOM     20  N   UNL     1      48.206   6.203  14.751  0.00  0.00    +0.000 N 
ATOM     21  C   UNL     1      48.744   6.986  15.750  0.00  0.00    +0.000 C 
ATOM     22  O   UNL     1      48.415   6.899  16.925  0.00  0.00    +0.000 OA
ATOM     23  H   UNL     1      48.334   6.488  13.788  0.00  0.00    +0.000 HD
BRANCH  21  24
ATOM     24  C   UNL     1      49.801   7.903  15.336  0.00  0.00    +0.000 A 
ATOM     25  C   UNL     1      49.497   9.081  14.669  0.00  0.00    +0.000 A 
ATOM     26  S   UNL     1      50.883   9.999  14.274  0.00  0.00    +0.000 S 
ATOM     27  C   UNL     1      51.919   8.828  14.948  0.00  0.00    +0.000 A 
ATOM     28  N   UNL     1      53.270   8.972  14.914  0.00  0.00    +0.000 NA
ATOM     29  C   UNL     1      53.922   7.980  15.427  0.00  0.00    +0.000 A 
ATOM     30  N   UNL     1      53.348   6.864  15.979  0.00  0.00    +0.000 N 
ATOM     31  C   UNL     1      51.990   6.684  16.058  0.00  0.00    +0.000 A 
ATOM     32  O   UNL     1      51.504   5.696  16.596  0.00  0.00    +0.000 OA
ATOM     33  C   UNL     1      51.218   7.766  15.485  0.00  0.00    +0.000 A 
ATOM     34  H   UNL     1      53.917   6.126  16.370  0.00  0.00    +0.000 HD
ENDBRANCH  21  24
ENDBRANCH   2  20
TORSDOF 6
ENDMDL
MODEL 5
REMARK VINA RESULT:    -6.484      4.821      7.791
REMARK INTER + INTRA:          -9.798
REMARK INTER:                  -8.865
REMARK INTRA:                  -0.933
REMARK UNBOUND:                -1.040
REMARK  Name = 
REMARK  7 active torsions:
REMARK  status: ('A' for Active; 'I' for Inactive)
REMARK    1  A    between atoms: C_1  and  C_2
REMARK    2  A    between atoms: C_2  and  N_3
REMARK    3  A    between atoms: C_2  and  C_16
REMARK    4  A    between atoms: C_4  and  C_6
REMARK    5  A    between atoms: C_19  and  C_20
REMARK    6  A    between atoms: C_20  and  N_21
REMARK    7  A    between atoms: C_22  and  C_24
REMARK                            x       y       z     vdW  Elec       q    Type
REMARK                         _______ _______ _______ _____ _____    ______ ____
ROOT
ATOM      1  C   UNL     1      45.170   9.449  12.405  0.00  0.00    +0.000 C 
ATOM      2  C   UNL     1      46.052   8.228  12.699  0.00  0.00    +0.000 C 
ENDROOT
BRANCH   2   3
ATOM      3  C   UNL     1      47.492   8.445  12.238  0.00  0.00    +0.000 A 
ATOM      4  C   UNL     1      47.949   9.726  11.902  0.00  0.00    +0.000 A 
ATOM      5  C   UNL     1      49.285   9.960  11.546  0.00  0.00    +0.000 A 
ATOM      6  C   UNL     1      50.213   8.912  11.481  0.00  0.00    +0.000 A 
ATOM      7  C   UNL     1      49.754   7.623  11.795  0.00  0.00    +0.000 A 
ATOM      8  C   UNL     1      48.415   7.392  12.162  0.00  0.00    +0.000 A 
BRANCH   6   9
ATOM      9  C   UNL     1      51.651   9.130  11.048  0.00  0.00    +0.000 C 
BRANCH   9  10
ATOM     10  N   UNL     1      52.046   8.376   9.877  0.00  0.00    +0.000 N 
ATOM     11  C   UNL     1      53.107   7.502   9.877  0.00  0.00    +0.000 C 
ATOM     12  O   UNL     1      53.816   7.301  10.843  0.00  0.00    +0.000 OA
ATOM     13  H   UNL     1      51.401   8.317   9.100  0.00  0.00    +0.000 HD
BRANCH  11  14
ATOM     14  C   UNL     1      53.281   6.821   8.613  0.00  0.00    +0.000 A 
ATOM     15  C   UNL     1      53.539   5.503   8.283  0.00  0.00    +0.000 A 
ATOM     16  C   UNL     1      53.593   5.474   6.880  0.00  0.00    +0.000 A 
ATOM     17  N   UNL     1      53.400   6.680   6.344  0.00  0.00    +0.000 NA
ATOM     18  N   UNL     1      53.193   7.474   7.410  0.00  0.00    +0.000 N 
ATOM     19  H   UNL     1      53.000   8.459   7.259  0.00  0.00    +0.000 HD
ENDBRANCH  11  14
ENDBRANCH   9  10
ENDBRANCH   6   9
ENDBRANCH   2   3
BRANCH   2  20
ATOM     20  N   UNL     1      45.489   7.033  12.090  0.00  0.00    +0.000 N 
ATOM     21  C   UNL     1      45.540   5.805  12.715  0.00  0.00    +0.000 C 
ATOM     22  O   UNL     1      46.056   5.627  13.810  0.00  0.00    +0.000 OA
ATOM     23  H   UNL     1      45.278   7.065  11.100  0.00  0.00    +0.000 HD
BRANCH  21  24
ATOM     24  C   UNL     1      44.871   4.711  12.019  0.00  0.00    +0.000 A 
ATOM     25  C   UNL     1      44.048   3.831  12.706  0.00  0.00    +0.000 A 
ATOM     26  S   UNL     1      43.375   2.625  11.700  0.00  0.00    +0.000 S 
ATOM     27  C   UNL     1      44.197   3.226  10.336  0.00  0.00    +0.000 A 
ATOM     28  N   UNL     1      44.093   2.623   9.122  0.00  0.00    +0.000 NA
ATOM     29  C   UNL     1      44.811   3.170   8.195  0.00  0.00    +0.000 A 
ATOM     30  N   UNL     1      45.613   4.269   8.368  0.00  0.00    +0.000 N 
ATOM     31  C   UNL     1      45.732   4.925   9.566  0.00  0.00    +0.000 A 
ATOM     32  O   UNL     1      46.423   5.931   9.681  0.00  0.00    +0.000 OA
ATOM     33  C   UNL     1      44.955   4.341  10.639  0.00  0.00    +0.000 A 
ATOM     34  H   UNL     1      46.143   4.650   7.598  0.00  0.00    +0.000 HD
ENDBRANCH  21  24
ENDBRANCH   2  20
TORSDOF 6
ENDMDL
MODEL 6
REMARK VINA RESULT:    -6.392      1.483      2.097
REMARK INTER + INTRA:          -9.674
REMARK INTER:                  -8.767
REMARK INTRA:                  -0.907
REMARK UNBOUND:                -1.040
REMARK  Name = 
REMARK  7 active torsions:
REMARK  status: ('A' for Active; 'I' for Inactive)
REMARK    1  A    between atoms: C_1  and  C_2
REMARK    2  A    between atoms: C_2  and  N_3
REMARK    3  A    between atoms: C_2  and  C_16
REMARK    4  A    between atoms: C_4  and  C_6
REMARK    5  A    between atoms: C_19  and  C_20
REMARK    6  A    between atoms: C_20  and  N_21
REMARK    7  A    between atoms: C_22  and  C_24
REMARK                            x       y       z     vdW  Elec       q    Type
REMARK                         _______ _______ _______ _____ _____    ______ ____
ROOT
ATOM      1  C   UNL     1      49.192  10.258  14.586  0.00  0.00    +0.000 C 
ATOM      2  C   UNL     1      49.011   8.738  14.697  0.00  0.00    +0.000 C 
ENDROOT
BRANCH   2   3
ATOM      3  C   UNL     1      47.929   8.226  13.749  0.00  0.00    +0.000 A 
ATOM      4  C   UNL     1      48.134   7.065  12.991  0.00  0.00    +0.000 A 
ATOM      5  C   UNL     1      47.127   6.536  12.171  0.00  0.00    +0.000 A 
ATOM      6  C   UNL     1      45.881   7.167  12.051  0.00  0.00    +0.000 A 
ATOM      7  C   UNL     1      45.680   8.343  12.791  0.00  0.00    +0.000 A 
ATOM      8  C   UNL     1      46.687   8.867  13.622  0.00  0.00    +0.000 A 
BRANCH   6   9
ATOM      9  C   UNL     1      44.795   6.644  11.130  0.00  0.00    +0.000 C 
BRANCH   9  10
ATOM     10  N   UNL     1      45.201   5.536  10.292  0.00  0.00    +0.000 N 
ATOM     11  C   UNL     1      44.513   4.346  10.247  0.00  0.00    +0.000 C 
ATOM     12  O   UNL     1      43.526   4.111  10.915  0.00  0.00    +0.000 OA
ATOM     13  H   UNL     1      45.873   5.707   9.557  0.00  0.00    +0.000 HD
BRANCH  11  14
ATOM     14  C   UNL     1      45.069   3.405   9.299  0.00  0.00    +0.000 A 
ATOM     15  C   UNL     1      45.623   3.556   8.042  0.00  0.00    +0.000 A 
ATOM     16  C   UNL     1      45.983   2.260   7.636  0.00  0.00    +0.000 A 
ATOM     17  N   UNL     1      45.674   1.342   8.551  0.00  0.00    +0.000 NA
ATOM     18  N   UNL     1      45.141   2.061   9.557  0.00  0.00    +0.000 N 
ATOM     19  H   UNL     1      44.837   1.579  10.398  0.00  0.00    +0.000 HD
ENDBRANCH  11  14
ENDBRANCH   9  10
ENDBRANCH   6   9
ENDBRANCH   2   3
BRANCH   2  20
ATOM     20  N   UNL     1      48.718   8.357  16.070  0.00  0.00    +0.000 N 
ATOM     21  C   UNL     1      49.706   7.945  16.938  0.00  0.00    +0.000 C 
ATOM     22  O   UNL     1      50.886   7.864  16.625  0.00  0.00    +0.000 OA
ATOM     23  H   UNL     1      47.752   8.167  16.308  0.00  0.00    +0.000 HD
BRANCH  21  24
ATOM     24  C   UNL     1      49.275   7.664  18.303  0.00  0.00    +0.000 A 
ATOM     25  C   UNL     1      49.010   8.697  19.190  0.00  0.00    +0.000 A 
ATOM     26  S   UNL     1      48.529   8.144  20.733  0.00  0.00    +0.000 S 
ATOM     27  C   UNL     1      48.700   6.517  20.264  0.00  0.00    +0.000 A 
ATOM     28  N   UNL     1      48.475   5.499  21.136  0.00  0.00    +0.000 NA
ATOM     29  C   UNL     1      48.689   4.322  20.645  0.00  0.00    +0.000 A 
ATOM     30  N   UNL     1      49.097   4.069  19.360  0.00  0.00    +0.000 N 
ATOM     31  C   UNL     1      49.313   5.060  18.438  0.00  0.00    +0.000 A 
ATOM     32  O   UNL     1      49.635   4.802  17.283  0.00  0.00    +0.000 OA
ATOM     33  C   UNL     1      49.097   6.398  18.946  0.00  0.00    +0.000 A 
ATOM     34  H   UNL     1      49.239   3.122  19.038  0.00  0.00    +0.000 HD
ENDBRANCH  21  24
ENDBRANCH   2  20
TORSDOF 6
ENDMDL
MODEL 7
REMARK VINA RESULT:    -5.190     10.027     11.214
REMARK INTER + INTRA:          -8.051
REMARK INTER:                  -6.888
REMARK INTRA:                  -1.163
REMARK UNBOUND:                -1.040
REMARK  Name = 
REMARK  7 active torsions:
REMARK  status: ('A' for Active; 'I' for Inactive)
REMARK    1  A    between atoms: C_1  and  C_2
REMARK    2  A    between atoms: C_2  and  N_3
REMARK    3  A    between atoms: C_2  and  C_16
REMARK    4  A    between atoms: C_4  and  C_6
REMARK    5  A    between atoms: C_19  and  C_20
REMARK    6  A    between atoms: C_20  and  N_21
REMARK    7  A    between atoms: C_22  and  C_24
REMARK                            x       y       z     vdW  Elec       q    Type
REMARK                         _______ _______ _______ _____ _____    ______ ____
ROOT
ATOM      1  C   UNL     1      41.169  -3.234  19.869  0.00  0.00    +0.000 C 
ATOM      2  C   UNL     1      40.094  -2.742  18.890  0.00  0.00    +0.000 C 
ENDROOT
BRANCH   2   3
ATOM      3  C   UNL     1      40.435  -3.102  17.446  0.00  0.00    +0.000 A 
ATOM      4  C   UNL     1      39.752  -2.502  16.380  0.00  0.00    +0.000 A 
ATOM      5  C   UNL     1      40.098  -2.762  15.046  0.00  0.00    +0.000 A 
ATOM      6  C   UNL     1      41.124  -3.661  14.723  0.00  0.00    +0.000 A 
ATOM      7  C   UNL     1      41.796  -4.282  15.788  0.00  0.00    +0.000 A 
ATOM      8  C   UNL     1      41.454  -4.012  17.127  0.00  0.00    +0.000 A 
BRANCH   6   9
ATOM      9  C   UNL     1      41.481  -4.000  13.289  0.00  0.00    +0.000 C 
BRANCH   9  10
ATOM     10  N   UNL     1      40.444  -3.699  12.325  0.00  0.00    +0.000 N 
ATOM     11  C   UNL     1      40.466  -2.574  11.533  0.00  0.00    +0.000 C 
ATOM     12  O   UNL     1      41.336  -1.729  11.587  0.00  0.00    +0.000 OA
ATOM     13  H   UNL     1      39.800  -4.433  12.063  0.00  0.00    +0.000 HD
BRANCH  11  14
ATOM     14  C   UNL     1      39.357  -2.511  10.608  0.00  0.00    +0.000 A 
ATOM     15  C   UNL     1      38.169  -1.803  10.613  0.00  0.00    +0.000 A 
ATOM     16  C   UNL     1      37.511  -2.170   9.427  0.00  0.00    +0.000 A 
ATOM     17  N   UNL     1      38.211  -3.056   8.718  0.00  0.00    +0.000 NA
ATOM     18  N   UNL     1      39.332  -3.230   9.441  0.00  0.00    +0.000 N 
ATOM     19  H   UNL     1      40.049  -3.860   9.093  0.00  0.00    +0.000 HD
ENDBRANCH  11  14
ENDBRANCH   9  10
ENDBRANCH   6   9
ENDBRANCH   2   3
BRANCH   2  20
ATOM     20  N   UNL     1      39.892  -1.309  19.031  0.00  0.00    +0.000 N 
ATOM     21  C   UNL     1      38.761  -0.788  19.622  0.00  0.00    +0.000 C 
ATOM     22  O   UNL     1      37.853  -1.478  20.062  0.00  0.00    +0.000 OA
ATOM     23  H   UNL     1      40.476  -0.696  18.475  0.00  0.00    +0.000 HD
BRANCH  21  24
ATOM     24  C   UNL     1      38.729   0.664  19.759  0.00  0.00    +0.000 A 
ATOM     25  C   UNL     1      38.901   1.264  20.998  0.00  0.00    +0.000 A 
ATOM     26  S   UNL     1      38.819   2.969  20.931  0.00  0.00    +0.000 S 
ATOM     27  C   UNL     1      38.514   2.943  19.257  0.00  0.00    +0.000 A 
ATOM     28  N   UNL     1      38.303   4.089  18.556  0.00  0.00    +0.000 NA
ATOM     29  C   UNL     1      38.041   3.904  17.303  0.00  0.00    +0.000 A 
ATOM     30  N   UNL     1      37.981   2.681  16.685  0.00  0.00    +0.000 N 
ATOM     31  C   UNL     1      38.210   1.500  17.344  0.00  0.00    +0.000 A 
ATOM     32  O   UNL     1      38.193   0.424  16.757  0.00  0.00    +0.000 OA
ATOM     33  C   UNL     1      38.496   1.657  18.754  0.00  0.00    +0.000 A 
ATOM     34  H   UNL     1      37.777   2.608  15.699  0.00  0.00    +0.000 HD
ENDBRANCH  21  24
ENDBRANCH   2  20
TORSDOF 6
ENDMDL
MODEL 8
REMARK VINA RESULT:    -5.039     10.690     14.030
REMARK INTER + INTRA:          -7.847
REMARK INTER:                  -6.879
REMARK INTRA:                  -0.968
REMARK UNBOUND:                -1.040
REMARK  Name = 
REMARK  7 active torsions:
REMARK  status: ('A' for Active; 'I' for Inactive)
REMARK    1  A    between atoms: C_1  and  C_2
REMARK    2  A    between atoms: C_2  and  N_3
REMARK    3  A    between atoms: C_2  and  C_16
REMARK    4  A    between atoms: C_4  and  C_6
REMARK    5  A    between atoms: C_19  and  C_20
REMARK    6  A    between atoms: C_20  and  N_21
REMARK    7  A    between atoms: C_22  and  C_24
REMARK                            x       y       z     vdW  Elec       q    Type
REMARK                         _______ _______ _______ _____ _____    ______ ____
ROOT
ATOM      1  C   UNL     1      41.701  -4.942  13.745  0.00  0.00    +0.000 C 
ATOM      2  C   UNL     1      41.154  -3.520  13.567  0.00  0.00    +0.000 C 
ENDROOT
BRANCH   2   3
ATOM      3  C   UNL     1      40.555  -2.976  14.863  0.00  0.00    +0.000 A 
ATOM      4  C   UNL     1      41.241  -3.110  16.078  0.00  0.00    +0.000 A 
ATOM      5  C   UNL     1      40.746  -2.555  17.267  0.00  0.00    +0.000 A 
ATOM      6  C   UNL     1      39.524  -1.869  17.294  0.00  0.00    +0.000 A 
ATOM      7  C   UNL     1      38.822  -1.753  16.083  0.00  0.00    +0.000 A 
ATOM      8  C   UNL     1      39.326  -2.301  14.889  0.00  0.00    +0.000 A 
BRANCH   6   9
ATOM      9  C   UNL     1      38.941  -1.306  18.576  0.00  0.00    +0.000 C 
BRANCH   9  10
ATOM     10  N   UNL     1      38.527   0.079  18.490  0.00  0.00    +0.000 N 
ATOM     11  C   UNL     1      38.823   1.006  19.461  0.00  0.00    +0.000 C 
ATOM     12  O   UNL     1      39.431   0.747  20.479  0.00  0.00    +0.000 OA
ATOM     13  H   UNL     1      38.204   0.432  17.599  0.00  0.00    +0.000 HD
BRANCH  11  14
ATOM     14  C   UNL     1      38.355   2.336  19.136  0.00  0.00    +0.000 A 
ATOM     15  C   UNL     1      37.183   3.013  19.415  0.00  0.00    +0.000 A 
ATOM     16  C   UNL     1      37.335   4.279  18.825  0.00  0.00    +0.000 A 
ATOM     17  N   UNL     1      38.507   4.406  18.201  0.00  0.00    +0.000 NA
ATOM     18  N   UNL     1      39.115   3.226  18.421  0.00  0.00    +0.000 N 
ATOM     19  H   UNL     1      40.050   3.079  18.053  0.00  0.00    +0.000 HD
ENDBRANCH  11  14
ENDBRANCH   9  10
ENDBRANCH   6   9
ENDBRANCH   2   3
BRANCH   2  20
ATOM     20  N   UNL     1      40.176  -3.479  12.491  0.00  0.00    +0.000 N 
ATOM     21  C   UNL     1      40.259  -2.562  11.466  0.00  0.00    +0.000 C 
ATOM     22  O   UNL     1      41.145  -1.722  11.385  0.00  0.00    +0.000 OA
ATOM     23  H   UNL     1      39.302  -3.972  12.632  0.00  0.00    +0.000 HD
BRANCH  21  24
ATOM     24  C   UNL     1      39.251  -2.687  10.419  0.00  0.00    +0.000 A 
ATOM     25  C   UNL     1      39.307  -3.726   9.501  0.00  0.00    +0.000 A 
ATOM     26  S   UNL     1      38.035  -3.676   8.361  0.00  0.00    +0.000 S 
ATOM     27  C   UNL     1      37.406  -2.248   9.042  0.00  0.00    +0.000 A 
ATOM     28  N   UNL     1      36.315  -1.631   8.515  0.00  0.00    +0.000 NA
ATOM     29  C   UNL     1      35.985  -0.535   9.116  0.00  0.00    +0.000 A 
ATOM     30  N   UNL     1      36.638  -0.004  10.199  0.00  0.00    +0.000 N 
ATOM     31  C   UNL     1      37.727  -0.602  10.780  0.00  0.00    +0.000 A 
ATOM     32  O   UNL     1      38.264  -0.128  11.775  0.00  0.00    +0.000 OA
ATOM     33  C   UNL     1      38.141  -1.829  10.133  0.00  0.00    +0.000 A 
ATOM     34  H   UNL     1      36.322   0.855  10.625  0.00  0.00    +0.000 HD
ENDBRANCH  21  24
ENDBRANCH   2  20
TORSDOF 6
ENDMDL
MODEL 9
REMARK VINA RESULT:    -5.008     10.585     12.651
REMARK INTER + INTRA:          -7.805
REMARK INTER:                  -6.569
REMARK INTRA:                  -1.235
REMARK UNBOUND:                -1.040
REMARK  Name = 
REMARK  7 active torsions:
REMARK  status: ('A' for Active; 'I' for Inactive)
REMARK    1  A    between atoms: C_1  and  C_2
REMARK    2  A    between atoms: C_2  and  N_3
REMARK    3  A    between atoms: C_2  and  C_16
REMARK    4  A    between atoms: C_4  and  C_6
REMARK    5  A    between atoms: C_19  and  C_20
REMARK    6  A    between atoms: C_20  and  N_21
REMARK    7  A    between atoms: C_22  and  C_24
REMARK                            x       y       z     vdW  Elec       q    Type
REMARK                         _______ _______ _______ _____ _____    ______ ____
ROOT
ATOM      1  C   UNL     1      41.534  -3.668  13.297  0.00  0.00    +0.000 C 
ATOM      2  C   UNL     1      40.786  -3.893  14.618  0.00  0.00    +0.000 C 
ENDROOT
BRANCH   2   3
ATOM      3  C   UNL     1      39.918  -2.693  14.989  0.00  0.00    +0.000 A 
ATOM      4  C   UNL     1      38.672  -2.496  14.378  0.00  0.00    +0.000 A 
ATOM      5  C   UNL     1      37.826  -1.443  14.756  0.00  0.00    +0.000 A 
ATOM      6  C   UNL     1      38.209  -0.522  15.741  0.00  0.00    +0.000 A 
ATOM      7  C   UNL     1      39.466  -0.703  16.339  0.00  0.00    +0.000 A 
ATOM      8  C   UNL     1      40.309  -1.766  15.966  0.00  0.00    +0.000 A 
BRANCH   6   9
ATOM      9  C   UNL     1      37.336   0.656  16.130  0.00  0.00    +0.000 C 
BRANCH   9  10
ATOM     10  N   UNL     1      37.644   1.231  17.422  0.00  0.00    +0.000 N 
ATOM     11  C   UNL     1      38.179   2.490  17.568  0.00  0.00    +0.000 C 
ATOM     12  O   UNL     1      38.458   3.217  16.636  0.00  0.00    +0.000 OA
ATOM     13  H   UNL     1      37.260   0.796  18.249  0.00  0.00    +0.000 HD
BRANCH  11  14
ATOM     14  C   UNL     1      38.352   2.875  18.951  0.00  0.00    +0.000 A 
ATOM     15  C   UNL     1      37.460   3.083  19.986  0.00  0.00    +0.000 A 
ATOM     16  C   UNL     1      38.250   3.439  21.093  0.00  0.00    +0.000 A 
ATOM     17  N   UNL     1      39.549   3.471  20.793  0.00  0.00    +0.000 NA
ATOM     18  N   UNL     1      39.587   3.107  19.498  0.00  0.00    +0.000 N 
ATOM     19  H   UNL     1      40.488   3.037  19.034  0.00  0.00    +0.000 HD
ENDBRANCH  11  14
ENDBRANCH   9  10
ENDBRANCH   6   9
ENDBRANCH   2   3
BRANCH   2  20
ATOM     20  N   UNL     1      41.721  -4.205  15.688  0.00  0.00    +0.000 N 
ATOM     21  C   UNL     1      41.822  -5.472  16.220  0.00  0.00    +0.000 C 
ATOM     22  O   UNL     1      41.142  -6.417  15.843  0.00  0.00    +0.000 OA
ATOM     23  H   UNL     1      42.122  -3.430  16.201  0.00  0.00    +0.000 HD
BRANCH  21  24
ATOM     24  C   UNL     1      42.852  -5.653  17.236  0.00  0.00    +0.000 A 
ATOM     25  C   UNL     1      43.946  -6.473  17.000  0.00  0.00    +0.000 A 
ATOM     26  S   UNL     1      45.023  -6.547  18.324  0.00  0.00    +0.000 S 
ATOM     27  C   UNL     1      44.036  -5.519  19.255  0.00  0.00    +0.000 A 
ATOM     28  N   UNL     1      44.359  -5.192  20.534  0.00  0.00    +0.000 NA
ATOM     29  C   UNL     1      43.489  -4.439  21.125  0.00  0.00    +0.000 A 
ATOM     30  N   UNL     1      42.332  -3.975  20.552  0.00  0.00    +0.000 N 
ATOM     31  C   UNL     1      41.975  -4.259  19.258  0.00  0.00    +0.000 A 
ATOM     32  O   UNL     1      40.957  -3.795  18.758  0.00  0.00    +0.000 OA
ATOM     33  C   UNL     1      42.915  -5.110  18.559  0.00  0.00    +0.000 A 
ATOM     34  H   UNL     1      41.698  -3.384  21.069  0.00  0.00    +0.000 HD
ENDBRANCH  21  24
ENDBRANCH   2  20
TORSDOF 6
ENDMDL
