MODEL 1
REMARK VINA RESULT:    -6.682      0.000      0.000
REMARK INTER + INTRA:         -11.612
REMARK INTER:                 -10.394
REMARK INTRA:                  -1.218
REMARK UNBOUND:                -1.218
REMARK  Name = 
REMARK  10 active torsions:
REMARK  status: ('A' for Active; 'I' for Inactive)
REMARK    1  A    between atoms: N_1  and  C_2
REMARK    2  A    between atoms: C_2  and  C_3
REMARK    3  A    between atoms: C_3  and  N_4
REMARK    4  A    between atoms: N_4  and  C_5
REMARK    5  A    between atoms: C_5  and  C_6
REMARK    6  A    between atoms: C_9  and  C_10
REMARK    7  A    between atoms: C_10  and  N_11
REMARK    8  A    between atoms: N_11  and  C_12
REMARK    9  A    between atoms: C_12  and  C_13
REMARK   10  A    between atoms: C_20  and  C_22
REMARK                            x       y       z     vdW  Elec       q    Type
REMARK                         _______ _______ _______ _____ _____    ______ ____
ROOT
ATOM      1  N   UNL     1      48.866   7.198  13.811  0.00  0.00    +0.000 N 
ATOM      2  C   UNL     1      49.587   7.159  15.017  0.00  0.00    +0.000 C 
ATOM      3  O   UNL     1      50.824   7.129  15.012  0.00  0.00    +0.000 OA
ENDROOT
BRANCH   2   4
ATOM      4  C   UNL     1      48.882   7.314  16.300  0.00  0.00    +0.000 A 
ATOM      5  C   UNL     1      48.566   8.528  16.893  0.00  0.00    +0.000 A 
ATOM      6  S   UNL     1      48.144   8.408  18.539  0.00  0.00    +0.000 S 
ATOM      7  C   UNL     1      48.320   6.719  18.499  0.00  0.00    +0.000 A 
ATOM      8  N   UNL     1      48.212   5.986  19.635  0.00  0.00    +0.000 NA
ATOM      9  C   UNL     1      48.324   4.712  19.446  0.00  0.00    +0.000 A 
ATOM     10  N   UNL     1      48.483   4.109  18.228  0.00  0.00    +0.000 N 
ATOM     11  C   UNL     1      48.553   4.810  17.041  0.00  0.00    +0.000 A 
ATOM     12  O   UNL     1      48.505   4.244  15.957  0.00  0.00    +0.000 OA
ATOM     13  C   UNL     1      48.568   6.247  17.223  0.00  0.00    +0.000 A 
ATOM     14  H   UNL     1      48.444   3.104  18.145  0.00  0.00    +0.000 HD
ENDBRANCH   2   4
BRANCH   1  15
ATOM     15  C   UNL     1      49.611   7.594  12.600  0.00  0.00    +0.000 C 
BRANCH  15  16
ATOM     16  C   UNL     1      49.714   9.115  12.365  0.00  0.00    +0.000 C 
BRANCH  16  17
ATOM     17  N   UNL     1      48.660   9.666  11.518  0.00  0.00    +0.000 NA
ATOM     18  H   UNL     1      48.592  10.669  11.692  0.00  0.00    +0.000 HD
ATOM     19  H   UNL     1      47.755   9.276  11.780  0.00  0.00    +0.000 HD
ENDBRANCH  16  17
ENDBRANCH  15  16
ENDBRANCH   1  15
BRANCH   1  20
ATOM     20  C   UNL     1      47.430   6.985  13.783  0.00  0.00    +0.000 C 
BRANCH  20  21
ATOM     21  C   UNL     1      46.809   6.133  12.734  0.00  0.00    +0.000 A 
ATOM     22  C   UNL     1      46.286   4.895  13.025  0.00  0.00    +0.000 A 
ATOM     23  N   UNL     1      45.453   4.233  12.203  0.00  0.00    +0.000 NA
ATOM     24  C   UNL     1      45.173   4.832  11.025  0.00  0.00    +0.000 A 
ATOM     25  N   UNL     1      45.717   5.992  10.605  0.00  0.00    +0.000 NA
ATOM     26  C   UNL     1      46.530   6.618  11.474  0.00  0.00    +0.000 A 
BRANCH  24  27
ATOM     27  C   UNL     1      44.020   4.258  10.216  0.00  0.00    +0.000 C 
BRANCH  27  28
ATOM     28  N   UNL     1      44.185   4.334   8.747  0.00  0.00    +0.000 NA
ATOM     29  H   UNL     1      44.849   5.090   8.587  0.00  0.00    +0.000 HD
BRANCH  28  30
ATOM     30  C   UNL     1      44.733   3.105   8.146  0.00  0.00    +0.000 C 
BRANCH  30  31
ATOM     31  C   UNL     1      46.285   3.183   7.997  0.00  0.00    +0.000 C 
ATOM     32  C   UNL     1      46.973   1.893   7.557  0.00  0.00    +0.000 C 
ATOM     33  C   UNL     1      46.824   1.896   6.048  0.00  0.00    +0.000 C 
ATOM     34  C   UNL     1      46.793   3.372   5.682  0.00  0.00    +0.000 C 
ATOM     35  N   UNL     1      46.724   4.115   6.942  0.00  0.00    +0.000 NA
ATOM     36  H   UNL     1      46.111   4.923   6.867  0.00  0.00    +0.000 HD
ENDBRANCH  30  31
ENDBRANCH  28  30
ENDBRANCH  27  28
ENDBRANCH  24  27
ENDBRANCH  20  21
ENDBRANCH   1  20
TORSDOF 10
ENDMDL
MODEL 2
REMARK VINA RESULT:    -6.515      2.074      2.779
REMARK INTER + INTRA:         -11.352
REMARK INTER:                  -9.981
REMARK INTRA:                  -1.370
REMARK UNBOUND:                -1.218
REMARK  Name = 
REMARK  10 active torsions:
REMARK  status: ('A' for Active; 'I' for Inactive)
REMARK    1  A    between atoms: N_1  and  C_2
REMARK    2  A    between atoms: C_2  and  C_3
REMARK    3  A    between atoms: C_3  and  N_4
REMARK    4  A    between atoms: N_4  and  C_5
REMARK    5  A    between atoms: C_5  and  C_6
REMARK    6  A    between atoms: C_9  and  C_10
REMARK    7  A    between atoms: C_10  and  N_11
REMARK    8  A    between atoms: N_11  and  C_12
REMARK    9  A    between atoms: C_12  and  C_13
REMARK   10  A    between atoms: C_20  and  C_22
REMARK                            x       y       z     vdW  Elec       q    Type
REMARK                         _______ _______ _______ _____ _____    ______ ____
ROOT
ATOM      1  N   UNL     1      49.122   7.911  15.813  0.00  0.00    +0.000 N 
ATOM      2  C   UNL     1      49.755   7.675  17.045  0.00  0.00    +0.000 C 
ATOM      3  O   UNL     1      49.900   8.589  17.867  0.00  0.00    +0.000 OA
ENDROOT
BRANCH   2   4
ATOM      4  C   UNL     1      50.112   6.301  17.437  0.00  0.00    +0.000 A 
ATOM      5  C   UNL     1      51.387   5.760  17.369  0.00  0.00    +0.000 A 
ATOM      6  S   UNL     1      51.428   4.061  17.476  0.00  0.00    +0.000 S 
ATOM      7  C   UNL     1      49.742   3.996  17.668  0.00  0.00    +0.000 A 
ATOM      8  N   UNL     1      49.095   2.804  17.703  0.00  0.00    +0.000 NA
ATOM      9  C   UNL     1      47.822   2.907  17.900  0.00  0.00    +0.000 A 
ATOM     10  N   UNL     1      47.152   4.081  18.113  0.00  0.00    +0.000 N 
ATOM     11  C   UNL     1      47.773   5.314  18.131  0.00  0.00    +0.000 A 
ATOM     12  O   UNL     1      47.191   6.322  18.508  0.00  0.00    +0.000 OA
ATOM     13  C   UNL     1      49.177   5.254  17.780  0.00  0.00    +0.000 A 
ATOM     14  H   UNL     1      46.177   4.074  18.377  0.00  0.00    +0.000 HD
ENDBRANCH   2   4
BRANCH   1  15
ATOM     15  C   UNL     1      48.309   9.138  15.706  0.00  0.00    +0.000 C 
BRANCH  15  16
ATOM     16  C   UNL     1      48.900  10.236  14.797  0.00  0.00    +0.000 C 
BRANCH  16  17
ATOM     17  N   UNL     1      48.114  10.514  13.599  0.00  0.00    +0.000 NA
ATOM     18  H   UNL     1      48.751  10.753  12.839  0.00  0.00    +0.000 HD
ATOM     19  H   UNL     1      47.529  11.338  13.741  0.00  0.00    +0.000 HD
ENDBRANCH  16  17
ENDBRANCH  15  16
ENDBRANCH   1  15
BRANCH   1  20
ATOM     20  C   UNL     1      49.160   6.931  14.743  0.00  0.00    +0.000 C 
BRANCH  20  21
ATOM     21  C   UNL     1      47.907   6.472  14.087  0.00  0.00    +0.000 A 
ATOM     22  C   UNL     1      47.469   7.021  12.905  0.00  0.00    +0.000 A 
ATOM     23  N   UNL     1      46.537   6.446  12.124  0.00  0.00    +0.000 NA
ATOM     24  C   UNL     1      46.002   5.293  12.580  0.00  0.00    +0.000 A 
ATOM     25  N   UNL     1      46.290   4.732  13.771  0.00  0.00    +0.000 NA
ATOM     26  C   UNL     1      47.240   5.341  14.504  0.00  0.00    +0.000 A 
BRANCH  24  27
ATOM     27  C   UNL     1      45.178   4.478  11.595  0.00  0.00    +0.000 C 
BRANCH  27  28
ATOM     28  N   UNL     1      44.809   5.187  10.349  0.00  0.00    +0.000 NA
ATOM     29  H   UNL     1      44.885   6.179  10.567  0.00  0.00    +0.000 HD
BRANCH  28  30
ATOM     30  C   UNL     1      45.702   4.896   9.213  0.00  0.00    +0.000 C 
BRANCH  30  31
ATOM     31  C   UNL     1      45.000   3.990   8.152  0.00  0.00    +0.000 C 
ATOM     32  C   UNL     1      45.929   3.279   7.171  0.00  0.00    +0.000 C 
ATOM     33  C   UNL     1      46.386   2.047   7.928  0.00  0.00    +0.000 C 
ATOM     34  C   UNL     1      45.223   1.729   8.854  0.00  0.00    +0.000 C 
ATOM     35  N   UNL     1      44.282   2.846   8.745  0.00  0.00    +0.000 NA
ATOM     36  H   UNL     1      43.871   3.079   9.645  0.00  0.00    +0.000 HD
ENDBRANCH  30  31
ENDBRANCH  28  30
ENDBRANCH  27  28
ENDBRANCH  24  27
ENDBRANCH  20  21
ENDBRANCH   1  20
TORSDOF 10
ENDMDL
MODEL 3
REMARK VINA RESULT:    -6.492      3.139      4.329
REMARK INTER + INTRA:         -11.315
REMARK INTER:                  -9.499
REMARK INTRA:                  -1.817
REMARK UNBOUND:                -1.218
REMARK  Name = 
REMARK  10 active torsions:
REMARK  status: ('A' for Active; 'I' for Inactive)
REMARK    1  A    between atoms: N_1  and  C_2
REMARK    2  A    between atoms: C_2  and  C_3
REMARK    3  A    between atoms: C_3  and  N_4
REMARK    4  A    between atoms: N_4  and  C_5
REMARK    5  A    between atoms: C_5  and  C_6
REMARK    6  A    between atoms: C_9  and  C_10
REMARK    7  A    between atoms: C_10  and  N_11
REMARK    8  A    between atoms: N_11  and  C_12
REMARK    9  A    between atoms: C_12  and  C_13
REMARK   10  A    between atoms: C_20  and  C_22
REMARK                            x       y       z     vdW  Elec       q    Type
REMARK                         _______ _______ _______ _____ _____    ______ ____
ROOT
ATOM      1  N   UNL     1      48.911   8.019  17.388  0.00  0.00    +0.000 N 
ATOM      2  C   UNL     1      49.186   7.224  18.514  0.00  0.00    +0.000 C 
ATOM      3  O   UNL     1      48.873   7.606  19.649  0.00  0.00    +0.000 OA
ENDROOT
BRANCH   2   4
ATOM      4  C   UNL     1      49.707   5.858  18.339  0.00  0.00    +0.000 A 
ATOM      5  C   UNL     1      51.044   5.499  18.425  0.00  0.00    +0.000 A 
ATOM      6  S   UNL     1      51.395   3.966  17.771  0.00  0.00    +0.000 S 
ATOM      7  C   UNL     1      49.759   3.711  17.396  0.00  0.00    +0.000 A 
ATOM      8  N   UNL     1      49.372   2.612  16.700  0.00  0.00    +0.000 NA
ATOM      9  C   UNL     1      48.094   2.527  16.528  0.00  0.00    +0.000 A 
ATOM     10  N   UNL     1      47.173   3.407  17.029  0.00  0.00    +0.000 N 
ATOM     11  C   UNL     1      47.515   4.513  17.780  0.00  0.00    +0.000 A 
ATOM     12  O   UNL     1      46.671   5.174  18.371  0.00  0.00    +0.000 OA
ATOM     13  C   UNL     1      48.945   4.719  17.881  0.00  0.00    +0.000 A 
ATOM     14  H   UNL     1      46.185   3.212  16.954  0.00  0.00    +0.000 HD
ENDBRANCH   2   4
BRANCH   1  15
ATOM     15  C   UNL     1      47.915   9.095  17.558  0.00  0.00    +0.000 C 
BRANCH  15  16
ATOM     16  C   UNL     1      48.500  10.520  17.641  0.00  0.00    +0.000 C 
BRANCH  16  17
ATOM     17  N   UNL     1      48.410  11.281  16.399  0.00  0.00    +0.000 NA
ATOM     18  H   UNL     1      47.941  12.167  16.592  0.00  0.00    +0.000 HD
ATOM     19  H   UNL     1      47.816  10.794  15.727  0.00  0.00    +0.000 HD
ENDBRANCH  16  17
ENDBRANCH  15  16
ENDBRANCH   1  15
BRANCH   1  20
ATOM     20  C   UNL     1      49.482   7.713  16.089  0.00  0.00    +0.000 C 
BRANCH  20  21
ATOM     21  C   UNL     1      48.607   7.483  14.909  0.00  0.00    +0.000 A 
ATOM     22  C   UNL     1      48.074   6.245  14.636  0.00  0.00    +0.000 A 
ATOM     23  N   UNL     1      47.050   6.053  13.786  0.00  0.00    +0.000 NA
ATOM     24  C   UNL     1      46.576   7.152  13.160  0.00  0.00    +0.000 A 
ATOM     25  N   UNL     1      47.098   8.389  13.283  0.00  0.00    +0.000 NA
ATOM     26  C   UNL     1      48.110   8.526  14.158  0.00  0.00    +0.000 A 
BRANCH  24  27
ATOM     27  C   UNL     1      45.248   7.013  12.433  0.00  0.00    +0.000 C 
BRANCH  27  28
ATOM     28  N   UNL     1      44.169   6.370  13.216  0.00  0.00    +0.000 NA
ATOM     29  H   UNL     1      43.641   7.136  13.631  0.00  0.00    +0.000 HD
BRANCH  28  30
ATOM     30  C   UNL     1      43.244   5.561  12.401  0.00  0.00    +0.000 C 
BRANCH  30  31
ATOM     31  C   UNL     1      43.373   4.040  12.730  0.00  0.00    +0.000 C 
ATOM     32  C   UNL     1      43.288   3.096  11.534  0.00  0.00    +0.000 C 
ATOM     33  C   UNL     1      44.694   3.097  10.966  0.00  0.00    +0.000 C 
ATOM     34  C   UNL     1      45.580   3.354  12.175  0.00  0.00    +0.000 C 
ATOM     35  N   UNL     1      44.687   3.674  13.290  0.00  0.00    +0.000 NA
ATOM     36  H   UNL     1      45.071   4.411  13.877  0.00  0.00    +0.000 HD
ENDBRANCH  30  31
ENDBRANCH  28  30
ENDBRANCH  27  28
ENDBRANCH  24  27
ENDBRANCH  20  21
ENDBRANCH   1  20
TORSDOF 10
ENDMDL
MODEL 4
REMARK VINA RESULT:    -6.472      3.108      8.398
REMARK INTER + INTRA:         -11.285
REMARK INTER:                  -9.523
REMARK INTRA:                  -1.762
REMARK UNBOUND:                -1.218
REMARK  Name = 
REMARK  10 active torsions:
REMARK  status: ('A' for Active; 'I' for Inactive)
REMARK    1  A    between atoms: N_1  and  C_2
REMARK    2  A    between atoms: C_2  and  C_3
REMARK    3  A    between atoms: C_3  and  N_4
REMARK    4  A    between atoms: N_4  and  C_5
REMARK    5  A    between atoms: C_5  and  C_6
REMARK    6  A    between atoms: C_9  and  C_10
REMARK    7  A    between atoms: C_10  and  N_11
REMARK    8  A    between atoms: N_11  and  C_12
REMARK    9  A    between atoms: C_12  and  C_13
REMARK   10  A    between atoms: C_20  and  C_22
REMARK                            x       y       z     vdW  Elec       q    Type
REMARK                         _______ _______ _______ _____ _____    ______ ____
ROOT
ATOM      1  N   UNL     1      45.611   4.855  12.139  0.00  0.00    +0.000 N 
ATOM      2  C   UNL     1      45.958   5.917  11.286  0.00  0.00    +0.000 C 
ATOM      3  O   UNL     1      46.166   5.717  10.082  0.00  0.00    +0.000 OA
ENDROOT
BRANCH   2   4
ATOM      4  C   UNL     1      45.921   7.302  11.783  0.00  0.00    +0.000 A 
ATOM      5  C   UNL     1      44.775   8.072  11.911  0.00  0.00    +0.000 A 
ATOM      6  S   UNL     1      45.074   9.738  12.100  0.00  0.00    +0.000 S 
ATOM      7  C   UNL     1      46.752   9.477  12.067  0.00  0.00    +0.000 A 
ATOM      8  N   UNL     1      47.614  10.525  12.069  0.00  0.00    +0.000 NA
ATOM      9  C   UNL     1      48.859  10.176  12.089  0.00  0.00    +0.000 A 
ATOM     10  N   UNL     1      49.312   8.886  12.157  0.00  0.00    +0.000 N 
ATOM     11  C   UNL     1      48.473   7.791  12.202  0.00  0.00    +0.000 A 
ATOM     12  O   UNL     1      48.894   6.669  12.451  0.00  0.00    +0.000 OA
ATOM     13  C   UNL     1      47.074   8.132  12.045  0.00  0.00    +0.000 A 
ATOM     14  H   UNL     1      50.295   8.696  12.288  0.00  0.00    +0.000 HD
ENDBRANCH   2   4
BRANCH   1  15
ATOM     15  C   UNL     1      45.128   3.615  11.500  0.00  0.00    +0.000 C 
BRANCH  15  16
ATOM     16  C   UNL     1      43.601   3.539  11.293  0.00  0.00    +0.000 C 
BRANCH  16  17
ATOM     17  N   UNL     1      43.004   2.264  11.680  0.00  0.00    +0.000 NA
ATOM     18  H   UNL     1      41.994   2.386  11.755  0.00  0.00    +0.000 HD
ATOM     19  H   UNL     1      43.320   1.993  12.611  0.00  0.00    +0.000 HD
ENDBRANCH  16  17
ENDBRANCH  15  16
ENDBRANCH   1  15
BRANCH   1  20
ATOM     20  C   UNL     1      45.605   5.017  13.582  0.00  0.00    +0.000 C 
BRANCH  20  21
ATOM     21  C   UNL     1      46.780   4.612  14.397  0.00  0.00    +0.000 A 
ATOM     22  C   UNL     1      47.473   5.517  15.166  0.00  0.00    +0.000 A 
ATOM     23  N   UNL     1      48.326   5.158  16.141  0.00  0.00    +0.000 NA
ATOM     24  C   UNL     1      48.512   3.832  16.317  0.00  0.00    +0.000 A 
ATOM     25  N   UNL     1      47.960   2.872  15.548  0.00  0.00    +0.000 NA
ATOM     26  C   UNL     1      47.103   3.287  14.597  0.00  0.00    +0.000 A 
BRANCH  24  27
ATOM     27  C   UNL     1      49.228   3.397  17.586  0.00  0.00    +0.000 C 
BRANCH  27  28
ATOM     28  N   UNL     1      48.406   3.442  18.816  0.00  0.00    +0.000 NA
ATOM     29  H   UNL     1      48.642   2.597  19.332  0.00  0.00    +0.000 HD
BRANCH  28  30
ATOM     30  C   UNL     1      48.690   4.603  19.679  0.00  0.00    +0.000 C 
BRANCH  30  31
ATOM     31  C   UNL     1      47.431   5.511  19.849  0.00  0.00    +0.000 C 
ATOM     32  C   UNL     1      47.522   6.570  20.945  0.00  0.00    +0.000 C 
ATOM     33  C   UNL     1      48.265   7.715  20.285  0.00  0.00    +0.000 C 
ATOM     34  C   UNL     1      47.890   7.603  18.816  0.00  0.00    +0.000 C 
ATOM     35  N   UNL     1      47.151   6.347  18.666  0.00  0.00    +0.000 NA
ATOM     36  H   UNL     1      47.390   5.874  17.799  0.00  0.00    +0.000 HD
ENDBRANCH  30  31
ENDBRANCH  28  30
ENDBRANCH  27  28
ENDBRANCH  24  27
ENDBRANCH  20  21
ENDBRANCH   1  20
TORSDOF 10
ENDMDL
MODEL 5
REMARK VINA RESULT:    -6.298      2.464      4.754
REMARK INTER + INTRA:         -11.014
REMARK INTER:                  -9.822
REMARK INTRA:                  -1.191
REMARK UNBOUND:                -1.218
REMARK  Name = 
REMARK  10 active torsions:
REMARK  status: ('A' for Active; 'I' for Inactive)
REMARK    1  A    between atoms: N_1  and  C_2
REMARK    2  A    between atoms: C_2  and  C_3
REMARK    3  A    between atoms: C_3  and  N_4
REMARK    4  A    between atoms: N_4  and  C_5
REMARK    5  A    between atoms: C_5  and  C_6
REMARK    6  A    between atoms: C_9  and  C_10
REMARK    7  A    between atoms: C_10  and  N_11
REMARK    8  A    between atoms: N_11  and  C_12
REMARK    9  A    between atoms: C_12  and  C_13
REMARK   10  A    between atoms: C_20  and  C_22
REMARK                            x       y       z     vdW  Elec       q    Type
REMARK                         _______ _______ _______ _____ _____    ______ ____
ROOT
ATOM      1  N   UNL     1      48.621   7.196  15.079  0.00  0.00    +0.000 N 
ATOM      2  C   UNL     1      48.905   8.573  15.046  0.00  0.00    +0.000 C 
ATOM      3  O   UNL     1      48.965   9.230  16.093  0.00  0.00    +0.000 OA
ENDROOT
BRANCH   2   4
ATOM      4  C   UNL     1      49.290   9.213  13.778  0.00  0.00    +0.000 A 
ATOM      5  C   UNL     1      48.449   9.984  12.988  0.00  0.00    +0.000 A 
ATOM      6  S   UNL     1      49.020  10.235  11.403  0.00  0.00    +0.000 S 
ATOM      7  C   UNL     1      50.438   9.361  11.738  0.00  0.00    +0.000 A 
ATOM      8  N   UNL     1      51.333   9.093  10.753  0.00  0.00    +0.000 NA
ATOM      9  C   UNL     1      52.384   8.461  11.162  0.00  0.00    +0.000 A 
ATOM     10  N   UNL     1      52.640   8.122  12.463  0.00  0.00    +0.000 N 
ATOM     11  C   UNL     1      51.782   8.413  13.504  0.00  0.00    +0.000 A 
ATOM     12  O   UNL     1      52.116   8.270  14.672  0.00  0.00    +0.000 OA
ATOM     13  C   UNL     1      50.531   8.999  13.069  0.00  0.00    +0.000 A 
ATOM     14  H   UNL     1      53.535   7.734  12.724  0.00  0.00    +0.000 HD
ENDBRANCH   2   4
BRANCH   1  15
ATOM     15  C   UNL     1      48.790   6.511  16.376  0.00  0.00    +0.000 C 
BRANCH  15  16
ATOM     16  C   UNL     1      50.233   6.067  16.696  0.00  0.00    +0.000 C 
BRANCH  16  17
ATOM     17  N   UNL     1      50.363   4.659  17.057  0.00  0.00    +0.000 NA
ATOM     18  H   UNL     1      50.382   4.582  18.074  0.00  0.00    +0.000 HD
ATOM     19  H   UNL     1      51.259   4.292  16.735  0.00  0.00    +0.000 HD
ENDBRANCH  16  17
ENDBRANCH  15  16
ENDBRANCH   1  15
BRANCH   1  20
ATOM     20  C   UNL     1      48.302   6.461  13.869  0.00  0.00    +0.000 C 
BRANCH  20  21
ATOM     21  C   UNL     1      46.929   5.940  13.636  0.00  0.00    +0.000 A 
ATOM     22  C   UNL     1      46.045   6.581  12.800  0.00  0.00    +0.000 A 
ATOM     23  N   UNL     1      44.931   6.002  12.319  0.00  0.00    +0.000 NA
ATOM     24  C   UNL     1      44.685   4.740  12.732  0.00  0.00    +0.000 A 
ATOM     25  N   UNL     1      45.434   4.067  13.628  0.00  0.00    +0.000 NA
ATOM     26  C   UNL     1      46.544   4.688  14.065  0.00  0.00    +0.000 A 
BRANCH  24  27
ATOM     27  C   UNL     1      43.610   3.966  11.984  0.00  0.00    +0.000 C 
BRANCH  27  28
ATOM     28  N   UNL     1      44.076   2.724  11.326  0.00  0.00    +0.000 NA
ATOM     29  H   UNL     1      43.262   2.351  10.842  0.00  0.00    +0.000 HD
BRANCH  28  30
ATOM     30  C   UNL     1      45.144   2.941  10.334  0.00  0.00    +0.000 C 
BRANCH  30  31
ATOM     31  C   UNL     1      44.758   2.351   8.940  0.00  0.00    +0.000 C 
ATOM     32  C   UNL     1      44.864   3.316   7.761  0.00  0.00    +0.000 C 
ATOM     33  C   UNL     1      46.331   3.267   7.382  0.00  0.00    +0.000 C 
ATOM     34  C   UNL     1      46.768   1.863   7.768  0.00  0.00    +0.000 C 
ATOM     35  N   UNL     1      45.651   1.263   8.500  0.00  0.00    +0.000 NA
ATOM     36  H   UNL     1      45.976   0.697   9.280  0.00  0.00    +0.000 HD
ENDBRANCH  30  31
ENDBRANCH  28  30
ENDBRANCH  27  28
ENDBRANCH  24  27
ENDBRANCH  20  21
ENDBRANCH   1  20
TORSDOF 10
ENDMDL
MODEL 6
REMARK VINA RESULT:    -6.203      2.411      4.724
REMARK INTER + INTRA:         -10.866
REMARK INTER:                  -9.486
REMARK INTRA:                  -1.380
REMARK UNBOUND:                -1.218
REMARK  Name = 
REMARK  10 active torsions:
REMARK  status: ('A' for Active; 'I' for Inactive)
REMARK    1  A    between atoms: N_1  and  C_2
REMARK    2  A    between atoms: C_2  and  C_3
REMARK    3  A    between atoms: C_3  and  N_4
REMARK    4  A    between atoms: N_4  and  C_5
REMARK    5  A    between atoms: C_5  and  C_6
REMARK    6  A    between atoms: C_9  and  C_10
REMARK    7  A    between atoms: C_10  and  N_11
REMARK    8  A    between atoms: N_11  and  C_12
REMARK    9  A    between atoms: C_12  and  C_13
REMARK   10  A    between atoms: C_20  and  C_22
REMARK                            x       y       z     vdW  Elec       q    Type
REMARK                         _______ _______ _______ _____ _____    ______ ____
ROOT
ATOM      1  N   UNL     1      49.386   4.594  18.464  0.00  0.00    +0.000 N 
ATOM      2  C   UNL     1      50.426   5.331  19.058  0.00  0.00    +0.000 C 
ATOM      3  O   UNL     1      51.262   4.773  19.781  0.00  0.00    +0.000 OA
ENDROOT
BRANCH   2   4
ATOM      4  C   UNL     1      50.623   6.745  18.699  0.00  0.00    +0.000 A 
ATOM      5  C   UNL     1      50.113   7.824  19.407  0.00  0.00    +0.000 A 
ATOM      6  S   UNL     1      50.135   9.292  18.545  0.00  0.00    +0.000 S 
ATOM      7  C   UNL     1      50.875   8.542  17.213  0.00  0.00    +0.000 A 
ATOM      8  N   UNL     1      51.078   9.225  16.059  0.00  0.00    +0.000 NA
ATOM      9  C   UNL     1      51.691   8.542  15.149  0.00  0.00    +0.000 A 
ATOM     10  N   UNL     1      52.160   7.266  15.306  0.00  0.00    +0.000 N 
ATOM     11  C   UNL     1      52.018   6.547  16.476  0.00  0.00    +0.000 A 
ATOM     12  O   UNL     1      52.605   5.489  16.656  0.00  0.00    +0.000 OA
ATOM     13  C   UNL     1      51.217   7.227  17.474  0.00  0.00    +0.000 A 
ATOM     14  H   UNL     1      52.732   6.839  14.593  0.00  0.00    +0.000 HD
ENDBRANCH   2   4
BRANCH   1  15
ATOM     15  C   UNL     1      49.555   3.129  18.407  0.00  0.00    +0.000 C 
BRANCH  15  16
ATOM     16  C   UNL     1      50.486   2.622  17.285  0.00  0.00    +0.000 C 
BRANCH  16  17
ATOM     17  N   UNL     1      49.826   1.781  16.290  0.00  0.00    +0.000 NA
ATOM     18  H   UNL     1      50.526   1.179  15.856  0.00  0.00    +0.000 HD
ATOM     19  H   UNL     1      49.448   2.354  15.536  0.00  0.00    +0.000 HD
ENDBRANCH  16  17
ENDBRANCH  15  16
ENDBRANCH   1  15
BRANCH   1  20
ATOM     20  C   UNL     1      48.263   5.254  17.824  0.00  0.00    +0.000 C 
BRANCH  20  21
ATOM     21  C   UNL     1      48.005   5.075  16.371  0.00  0.00    +0.000 A 
ATOM     22  C   UNL     1      47.145   4.108  15.904  0.00  0.00    +0.000 A 
ATOM     23  N   UNL     1      46.644   4.105  14.656  0.00  0.00    +0.000 NA
ATOM     24  C   UNL     1      47.061   5.097  13.840  0.00  0.00    +0.000 A 
ATOM     25  N   UNL     1      47.978   6.029  14.172  0.00  0.00    +0.000 NA
ATOM     26  C   UNL     1      48.434   5.994  15.437  0.00  0.00    +0.000 A 
BRANCH  24  27
ATOM     27  C   UNL     1      46.296   5.290  12.540  0.00  0.00    +0.000 C 
BRANCH  27  28
ATOM     28  N   UNL     1      44.943   4.689  12.514  0.00  0.00    +0.000 NA
ATOM     29  H   UNL     1      44.383   5.304  11.927  0.00  0.00    +0.000 HD
BRANCH  28  30
ATOM     30  C   UNL     1      44.905   3.335  11.933  0.00  0.00    +0.000 C 
BRANCH  30  31
ATOM     31  C   UNL     1      43.928   3.262  10.717  0.00  0.00    +0.000 C 
ATOM     32  C   UNL     1      44.103   4.352   9.662  0.00  0.00    +0.000 C 
ATOM     33  C   UNL     1      45.234   3.839   8.791  0.00  0.00    +0.000 C 
ATOM     34  C   UNL     1      45.112   2.327   8.879  0.00  0.00    +0.000 C 
ATOM     35  N   UNL     1      44.102   2.045   9.901  0.00  0.00    +0.000 NA
ATOM     36  H   UNL     1      44.356   1.240  10.467  0.00  0.00    +0.000 HD
ENDBRANCH  30  31
ENDBRANCH  28  30
ENDBRANCH  27  28
ENDBRANCH  24  27
ENDBRANCH  20  21
ENDBRANCH   1  20
TORSDOF 10
ENDMDL
MODEL 7
REMARK VINA RESULT:    -6.169      3.308      4.823
REMARK INTER + INTRA:         -10.814
REMARK INTER:                  -8.492
REMARK INTRA:                  -2.321
REMARK UNBOUND:                -1.218
REMARK  Name = 
REMARK  10 active torsions:
REMARK  status: ('A' for Active; 'I' for Inactive)
REMARK    1  A    between atoms: N_1  and  C_2
REMARK    2  A    between atoms: C_2  and  C_3
REMARK    3  A    between atoms: C_3  and  N_4
REMARK    4  A    between atoms: N_4  and  C_5
REMARK    5  A    between atoms: C_5  and  C_6
REMARK    6  A    between atoms: C_9  and  C_10
REMARK    7  A    between atoms: C_10  and  N_11
REMARK    8  A    between atoms: N_11  and  C_12
REMARK    9  A    between atoms: C_12  and  C_13
REMARK   10  A    between atoms: C_20  and  C_22
REMARK                            x       y       z     vdW  Elec       q    Type
REMARK                         _______ _______ _______ _____ _____    ______ ____
ROOT
ATOM      1  N   UNL     1      50.150   7.881  17.496  0.00  0.00    +0.000 N 
ATOM      2  C   UNL     1      50.123   7.019  18.606  0.00  0.00    +0.000 C 
ATOM      3  O   UNL     1      49.822   7.444  19.729  0.00  0.00    +0.000 OA
ENDROOT
BRANCH   2   4
ATOM      4  C   UNL     1      50.297   5.570  18.415  0.00  0.00    +0.000 A 
ATOM      5  C   UNL     1      51.513   4.903  18.452  0.00  0.00    +0.000 A 
ATOM      6  S   UNL     1      51.467   3.335  17.789  0.00  0.00    +0.000 S 
ATOM      7  C   UNL     1      49.804   3.478  17.475  0.00  0.00    +0.000 A 
ATOM      8  N   UNL     1      49.142   2.507  16.796  0.00  0.00    +0.000 NA
ATOM      9  C   UNL     1      47.875   2.729  16.672  0.00  0.00    +0.000 A 
ATOM     10  N   UNL     1      47.208   3.799  17.204  0.00  0.00    +0.000 N 
ATOM     11  C   UNL     1      47.830   4.787  17.941  0.00  0.00    +0.000 A 
ATOM     12  O   UNL     1      47.190   5.626  18.561  0.00  0.00    +0.000 OA
ATOM     13  C   UNL     1      49.271   4.647  17.987  0.00  0.00    +0.000 A 
ATOM     14  H   UNL     1      46.200   3.844  17.167  0.00  0.00    +0.000 HD
ENDBRANCH   2   4
BRANCH   1  15
ATOM     15  C   UNL     1      49.445   9.170  17.635  0.00  0.00    +0.000 C 
BRANCH  15  16
ATOM     16  C   UNL     1      47.917   9.104  17.429  0.00  0.00    +0.000 C 
BRANCH  16  17
ATOM     17  N   UNL     1      47.174   8.609  18.584  0.00  0.00    +0.000 NA
ATOM     18  H   UNL     1      47.790   8.621  19.397  0.00  0.00    +0.000 HD
ATOM     19  H   UNL     1      46.916   7.632  18.446  0.00  0.00    +0.000 HD
ENDBRANCH  16  17
ENDBRANCH  15  16
ENDBRANCH   1  15
BRANCH   1  20
ATOM     20  C   UNL     1      50.733   7.468  16.233  0.00  0.00    +0.000 C 
BRANCH  20  21
ATOM     21  C   UNL     1      49.893   7.347  15.012  0.00  0.00    +0.000 A 
ATOM     22  C   UNL     1      48.760   6.568  14.989  0.00  0.00    +0.000 A 
ATOM     23  N   UNL     1      47.815   6.667  14.038  0.00  0.00    +0.000 NA
ATOM     24  C   UNL     1      48.047   7.561  13.052  0.00  0.00    +0.000 A 
ATOM     25  N   UNL     1      49.173   8.293  12.931  0.00  0.00    +0.000 NA
ATOM     26  C   UNL     1      50.077   8.166  13.919  0.00  0.00    +0.000 A 
BRANCH  24  27
ATOM     27  C   UNL     1      46.879   7.903  12.141  0.00  0.00    +0.000 C 
BRANCH  27  28
ATOM     28  N   UNL     1      46.198   6.739  11.531  0.00  0.00    +0.000 NA
ATOM     29  H   UNL     1      46.621   5.919  11.963  0.00  0.00    +0.000 HD
BRANCH  28  30
ATOM     30  C   UNL     1      44.747   6.698  11.786  0.00  0.00    +0.000 C 
BRANCH  30  31
ATOM     31  C   UNL     1      44.405   5.774  12.998  0.00  0.00    +0.000 C 
ATOM     32  C   UNL     1      43.078   5.025  12.904  0.00  0.00    +0.000 C 
ATOM     33  C   UNL     1      43.406   3.807  12.062  0.00  0.00    +0.000 C 
ATOM     34  C   UNL     1      44.869   3.530  12.364  0.00  0.00    +0.000 C 
ATOM     35  N   UNL     1      45.353   4.657  13.165  0.00  0.00    +0.000 NA
ATOM     36  H   UNL     1      46.301   4.919  12.908  0.00  0.00    +0.000 HD
ENDBRANCH  30  31
ENDBRANCH  28  30
ENDBRANCH  27  28
ENDBRANCH  24  27
ENDBRANCH  20  21
ENDBRANCH   1  20
TORSDOF 10
ENDMDL
MODEL 8
REMARK VINA RESULT:    -6.101      2.147      2.786
REMARK INTER + INTRA:         -10.708
REMARK INTER:                  -9.649
REMARK INTRA:                  -1.059
REMARK UNBOUND:                -1.218
REMARK  Name = 
REMARK  10 active torsions:
REMARK  status: ('A' for Active; 'I' for Inactive)
REMARK    1  A    between atoms: N_1  and  C_2
REMARK    2  A    between atoms: C_2  and  C_3
REMARK    3  A    between atoms: C_3  and  N_4
REMARK    4  A    between atoms: N_4  and  C_5
REMARK    5  A    between atoms: C_5  and  C_6
REMARK    6  A    between atoms: C_9  and  C_10
REMARK    7  A    between atoms: C_10  and  N_11
REMARK    8  A    between atoms: N_11  and  C_12
REMARK    9  A    between atoms: C_12  and  C_13
REMARK   10  A    between atoms: C_20  and  C_22
REMARK                            x       y       z     vdW  Elec       q    Type
REMARK                         _______ _______ _______ _____ _____    ______ ____
ROOT
ATOM      1  N   UNL     1      48.881   7.561  13.590  0.00  0.00    +0.000 N 
ATOM      2  C   UNL     1      50.052   7.708  14.354  0.00  0.00    +0.000 C 
ATOM      3  O   UNL     1      51.131   7.977  13.810  0.00  0.00    +0.000 OA
ENDROOT
BRANCH   2   4
ATOM      4  C   UNL     1      49.976   7.698  15.824  0.00  0.00    +0.000 A 
ATOM      5  C   UNL     1      50.437   6.675  16.638  0.00  0.00    +0.000 A 
ATOM      6  S   UNL     1      49.845   6.736  18.234  0.00  0.00    +0.000 S 
ATOM      7  C   UNL     1      48.992   8.166  17.901  0.00  0.00    +0.000 A 
ATOM      8  N   UNL     1      48.161   8.708  18.828  0.00  0.00    +0.000 NA
ATOM      9  C   UNL     1      47.615   9.818  18.454  0.00  0.00    +0.000 A 
ATOM     10  N   UNL     1      47.861  10.454  17.267  0.00  0.00    +0.000 N 
ATOM     11  C   UNL     1      48.731   9.965  16.313  0.00  0.00    +0.000 A 
ATOM     12  O   UNL     1      49.076  10.640  15.352  0.00  0.00    +0.000 OA
ATOM     13  C   UNL     1      49.260   8.656  16.636  0.00  0.00    +0.000 A 
ATOM     14  H   UNL     1      47.489  11.376  17.094  0.00  0.00    +0.000 HD
ENDBRANCH   2   4
BRANCH   1  15
ATOM     15  C   UNL     1      48.903   8.116  12.222  0.00  0.00    +0.000 C 
BRANCH  15  16
ATOM     16  C   UNL     1      48.539   9.611  12.116  0.00  0.00    +0.000 C 
BRANCH  16  17
ATOM     17  N   UNL     1      47.362  10.000  12.888  0.00  0.00    +0.000 NA
ATOM     18  H   UNL     1      46.805   9.166  13.076  0.00  0.00    +0.000 HD
ATOM     19  H   UNL     1      46.763  10.614  12.336  0.00  0.00    +0.000 HD
ENDBRANCH  16  17
ENDBRANCH  15  16
ENDBRANCH   1  15
BRANCH   1  20
ATOM     20  C   UNL     1      47.668   7.009  14.164  0.00  0.00    +0.000 C 
BRANCH  20  21
ATOM     21  C   UNL     1      46.864   6.003  13.420  0.00  0.00    +0.000 A 
ATOM     22  C   UNL     1      46.927   4.662  13.721  0.00  0.00    +0.000 A 
ATOM     23  N   UNL     1      46.013   3.769  13.305  0.00  0.00    +0.000 NA
ATOM     24  C   UNL     1      45.021   4.246  12.522  0.00  0.00    +0.000 A 
ATOM     25  N   UNL     1      44.932   5.519  12.088  0.00  0.00    +0.000 NA
ATOM     26  C   UNL     1      45.864   6.373  12.548  0.00  0.00    +0.000 A 
BRANCH  24  27
ATOM     27  C   UNL     1      43.828   3.332  12.285  0.00  0.00    +0.000 C 
BRANCH  27  28
ATOM     28  N   UNL     1      43.955   2.423  11.124  0.00  0.00    +0.000 NA
ATOM     29  H   UNL     1      43.066   2.484  10.632  0.00  0.00    +0.000 HD
BRANCH  28  30
ATOM     30  C   UNL     1      45.028   2.802  10.187  0.00  0.00    +0.000 C 
BRANCH  30  31
ATOM     31  C   UNL     1      44.767   2.230   8.758  0.00  0.00    +0.000 C 
ATOM     32  C   UNL     1      44.919   3.225   7.610  0.00  0.00    +0.000 C 
ATOM     33  C   UNL     1      46.410   3.242   7.336  0.00  0.00    +0.000 C 
ATOM     34  C   UNL     1      46.874   1.847   7.725  0.00  0.00    +0.000 C 
ATOM     35  N   UNL     1      45.733   1.187   8.362  0.00  0.00    +0.000 NA
ATOM     36  H   UNL     1      46.023   0.616   9.152  0.00  0.00    +0.000 HD
ENDBRANCH  30  31
ENDBRANCH  28  30
ENDBRANCH  27  28
ENDBRANCH  24  27
ENDBRANCH  20  21
ENDBRANCH   1  20
TORSDOF 10
ENDMDL
MODEL 9
REMARK VINA RESULT:    -6.019      2.166      4.259
REMARK INTER + INTRA:         -10.581
REMARK INTER:                  -9.290
REMARK INTRA:                  -1.291
REMARK UNBOUND:                -1.218
REMARK  Name = 
REMARK  10 active torsions:
REMARK  status: ('A' for Active; 'I' for Inactive)
REMARK    1  A    between atoms: N_1  and  C_2
REMARK    2  A    between atoms: C_2  and  C_3
REMARK    3  A    between atoms: C_3  and  N_4
REMARK    4  A    between atoms: N_4  and  C_5
REMARK    5  A    between atoms: C_5  and  C_6
REMARK    6  A    between atoms: C_9  and  C_10
REMARK    7  A    between atoms: C_10  and  N_11
REMARK    8  A    between atoms: N_11  and  C_12
REMARK    9  A    between atoms: C_12  and  C_13
REMARK   10  A    between atoms: C_20  and  C_22
REMARK                            x       y       z     vdW  Elec       q    Type
REMARK                         _______ _______ _______ _____ _____    ______ ____
ROOT
ATOM      1  N   UNL     1      48.655   6.097  16.504  0.00  0.00    +0.000 N 
ATOM      2  C   UNL     1      48.847   7.387  17.028  0.00  0.00    +0.000 C 
ATOM      3  O   UNL     1      48.646   7.617  18.228  0.00  0.00    +0.000 OA
ENDROOT
BRANCH   2   4
ATOM      4  C   UNL     1      49.440   8.440  16.189  0.00  0.00    +0.000 A 
ATOM      5  C   UNL     1      48.785   9.590  15.773  0.00  0.00    +0.000 A 
ATOM      6  S   UNL     1      49.555  10.402  14.489  0.00  0.00    +0.000 S 
ATOM      7  C   UNL     1      50.820   9.269  14.482  0.00  0.00    +0.000 A 
ATOM      8  N   UNL     1      51.783   9.314  13.528  0.00  0.00    +0.000 NA
ATOM      9  C   UNL     1      52.704   8.419  13.674  0.00  0.00    +0.000 A 
ATOM     10  N   UNL     1      52.774   7.524  14.707  0.00  0.00    +0.000 N 
ATOM     11  C   UNL     1      51.842   7.470  15.724  0.00  0.00    +0.000 A 
ATOM     12  O   UNL     1      52.026   6.795  16.728  0.00  0.00    +0.000 OA
ATOM     13  C   UNL     1      50.721   8.365  15.525  0.00  0.00    +0.000 A 
ATOM     14  H   UNL     1      53.585   6.934  14.819  0.00  0.00    +0.000 HD
ENDBRANCH   2   4
BRANCH   1  15
ATOM     15  C   UNL     1      48.599   4.984  17.473  0.00  0.00    +0.000 C 
BRANCH  15  16
ATOM     16  C   UNL     1      47.180   4.580  17.923  0.00  0.00    +0.000 C 
BRANCH  16  17
ATOM     17  N   UNL     1      46.724   3.298  17.394  0.00  0.00    +0.000 NA
ATOM     18  H   UNL     1      46.113   2.859  18.083  0.00  0.00    +0.000 HD
ATOM     19  H   UNL     1      47.512   2.661  17.278  0.00  0.00    +0.000 HD
ENDBRANCH  16  17
ENDBRANCH  15  16
ENDBRANCH   1  15
BRANCH   1  20
ATOM     20  C   UNL     1      48.642   5.858  15.072  0.00  0.00    +0.000 C 
BRANCH  20  21
ATOM     21  C   UNL     1      47.386   6.004  14.289  0.00  0.00    +0.000 A 
ATOM     22  C   UNL     1      47.145   7.112  13.512  0.00  0.00    +0.000 A 
ATOM     23  N   UNL     1      46.195   7.155  12.561  0.00  0.00    +0.000 NA
ATOM     24  C   UNL     1      45.437   6.046  12.420  0.00  0.00    +0.000 A 
ATOM     25  N   UNL     1      45.528   4.951  13.202  0.00  0.00    +0.000 NA
ATOM     26  C   UNL     1      46.505   4.956  14.126  0.00  0.00    +0.000 A 
BRANCH  24  27
ATOM     27  C   UNL     1      44.569   5.956  11.175  0.00  0.00    +0.000 C 
BRANCH  27  28
ATOM     28  N   UNL     1      44.670   4.681  10.431  0.00  0.00    +0.000 NA
ATOM     29  H   UNL     1      43.718   4.451  10.153  0.00  0.00    +0.000 HD
BRANCH  28  30
ATOM     30  C   UNL     1      45.496   4.767   9.213  0.00  0.00    +0.000 C 
BRANCH  30  31
ATOM     31  C   UNL     1      44.949   3.839   8.083  0.00  0.00    +0.000 C 
ATOM     32  C   UNL     1      45.998   3.259   7.138  0.00  0.00    +0.000 C 
ATOM     33  C   UNL     1      46.530   2.049   7.881  0.00  0.00    +0.000 C 
ATOM     34  C   UNL     1      45.353   1.585   8.724  0.00  0.00    +0.000 C 
ATOM     35  N   UNL     1      44.314   2.610   8.594  0.00  0.00    +0.000 NA
ATOM     36  H   UNL     1      43.832   2.767   9.476  0.00  0.00    +0.000 HD
ENDBRANCH  30  31
ENDBRANCH  28  30
ENDBRANCH  27  28
ENDBRANCH  24  27
ENDBRANCH  20  21
ENDBRANCH   1  20
TORSDOF 10
ENDMDL
