MODEL 1
REMARK VINA RESULT:    -7.974      0.000      0.000
REMARK INTER + INTRA:         -12.784
REMARK INTER:                 -11.704
REMARK INTRA:                  -1.081
REMARK UNBOUND:                -1.081
REMARK  Name = 
REMARK  9 active torsions:
REMARK  status: ('A' for Active; 'I' for Inactive)
REMARK    1  A    between atoms: C_1  and  O_2
REMARK    2  A    between atoms: O_2  and  C_3
REMARK    3  A    between atoms: C_10  and  C_11
REMARK    4  A    between atoms: N_13  and  C_14
REMARK    5  A    between atoms: C_14  and  C_15
REMARK    6  A    between atoms: C_18  and  C_19
REMARK    7  A    between atoms: C_19  and  S_20
REMARK    8  A    between atoms: S_20  and  C_21
REMARK    9  A    between atoms: C_21  and  C_22
REMARK                            x       y       z     vdW  Elec       q    Type
REMARK                         _______ _______ _______ _____ _____    ______ ____
ROOT
ATOM      1  C   UNL     1      47.974   7.599  13.354  0.00  0.00    +0.000 C 
ENDROOT
BRANCH   1   2
ATOM      2  C   UNL     1      46.853   6.770  12.781  0.00  0.00    +0.000 A 
ATOM      3  C   UNL     1      45.896   7.351  11.939  0.00  0.00    +0.000 A 
ATOM      4  C   UNL     1      44.857   6.583  11.404  0.00  0.00    +0.000 A 
ATOM      5  C   UNL     1      44.757   5.213  11.690  0.00  0.00    +0.000 A 
ATOM      6  C   UNL     1      45.683   4.647  12.578  0.00  0.00    +0.000 A 
ATOM      7  C   UNL     1      46.718   5.418  13.119  0.00  0.00    +0.000 A 
BRANCH   5   8
ATOM      8  C   UNL     1      43.653   4.370  11.099  0.00  0.00    +0.000 C 
BRANCH   8   9
ATOM      9  S   UNL     1      44.225   2.910  10.172  0.00  0.00    +0.000 S 
BRANCH   9  10
ATOM     10  C   UNL     1      44.767   3.694   8.616  0.00  0.00    +0.000 C 
BRANCH  10  11
ATOM     11  C   UNL     1      45.859   2.879   7.966  0.00  0.00    +0.000 A 
ATOM     12  C   UNL     1      45.966   1.506   8.214  0.00  0.00    +0.000 A 
ATOM     13  C   UNL     1      47.009   0.800   7.633  0.00  0.00    +0.000 A 
ATOM     14  N   UNL     1      47.940   1.358   6.831  0.00  0.00    +0.000 NA
ATOM     15  C   UNL     1      47.826   2.685   6.609  0.00  0.00    +0.000 A 
ATOM     16  C   UNL     1      46.820   3.476   7.143  0.00  0.00    +0.000 A 
ENDBRANCH  10  11
ENDBRANCH   9  10
ENDBRANCH   8   9
ENDBRANCH   5   8
ENDBRANCH   1   2
BRANCH   1  19
ATOM     17  C   UNL     1      48.961   7.099  15.553  0.00  0.00    +0.000 C 
ATOM     18  O   UNL     1      49.971   6.629  15.037  0.00  0.00    +0.000 OA
ATOM     19  N   UNL     1      47.936   7.589  14.794  0.00  0.00    +0.000 N 
ATOM     20  H   UNL     1      47.098   7.940  15.237  0.00  0.00    +0.000 HD
BRANCH  17  28
ATOM     21  C   UNL     1      48.785   4.695  18.016  0.00  0.00    +0.000 A 
ATOM     22  N   UNL     1      48.693   3.981  19.155  0.00  0.00    +0.000 NA
ATOM     23  C   UNL     1      48.532   4.647  20.303  0.00  0.00    +0.000 A 
ATOM     24  N   UNL     1      48.448   5.966  20.457  0.00  0.00    +0.000 NA
ATOM     25  C   UNL     1      48.551   6.640  19.299  0.00  0.00    +0.000 A 
ATOM     26  S   UNL     1      48.463   8.334  19.306  0.00  0.00    +0.000 S 
ATOM     27  C   UNL     1      48.656   8.403  17.619  0.00  0.00    +0.000 A 
ATOM     28  C   UNL     1      48.796   7.156  17.019  0.00  0.00    +0.000 A 
ATOM     29  C   UNL     1      48.728   6.101  18.027  0.00  0.00    +0.000 A 
BRANCH  21  31
ATOM     30  C   UNL     1      47.771   3.560  16.236  0.00  0.00    +0.000 C 
ATOM     31  O   UNL     1      48.983   4.008  16.837  0.00  0.00    +0.000 OA
ENDBRANCH  21  31
ENDBRANCH  17  28
ENDBRANCH   1  19
TORSDOF 8
ENDMDL
MODEL 2
REMARK VINA RESULT:    -7.854      1.665      2.764
REMARK INTER + INTRA:         -12.608
REMARK INTER:                 -11.432
REMARK INTRA:                  -1.175
REMARK UNBOUND:                -1.081
REMARK  Name = 
REMARK  9 active torsions:
REMARK  status: ('A' for Active; 'I' for Inactive)
REMARK    1  A    between atoms: C_1  and  O_2
REMARK    2  A    between atoms: O_2  and  C_3
REMARK    3  A    between atoms: C_10  and  C_11
REMARK    4  A    between atoms: N_13  and  C_14
REMARK    5  A    between atoms: C_14  and  C_15
REMARK    6  A    between atoms: C_18  and  C_19
REMARK    7  A    between atoms: C_19  and  S_20
REMARK    8  A    between atoms: S_20  and  C_21
REMARK    9  A    between atoms: C_21  and  C_22
REMARK                            x       y       z     vdW  Elec       q    Type
REMARK                         _______ _______ _______ _____ _____    ______ ____
ROOT
ATOM      1  C   UNL     1      48.578   6.691  14.082  0.00  0.00    +0.000 C 
ENDROOT
BRANCH   1   2
ATOM      2  C   UNL     1      47.409   6.169  13.287  0.00  0.00    +0.000 A 
ATOM      3  C   UNL     1      46.599   5.147  13.798  0.00  0.00    +0.000 A 
ATOM      4  C   UNL     1      45.511   4.665  13.064  0.00  0.00    +0.000 A 
ATOM      5  C   UNL     1      45.203   5.199  11.804  0.00  0.00    +0.000 A 
ATOM      6  C   UNL     1      46.048   6.182  11.270  0.00  0.00    +0.000 A 
ATOM      7  C   UNL     1      47.141   6.660  12.003  0.00  0.00    +0.000 A 
BRANCH   5   8
ATOM      8  C   UNL     1      44.018   4.702  11.012  0.00  0.00    +0.000 C 
BRANCH   8   9
ATOM      9  S   UNL     1      44.318   3.168  10.076  0.00  0.00    +0.000 S 
BRANCH   9  10
ATOM     10  C   UNL     1      44.903   3.854   8.490  0.00  0.00    +0.000 C 
BRANCH  10  11
ATOM     11  C   UNL     1      45.907   2.926   7.851  0.00  0.00    +0.000 A 
ATOM     12  C   UNL     1      45.989   1.586   8.245  0.00  0.00    +0.000 A 
ATOM     13  C   UNL     1      46.954   0.775   7.665  0.00  0.00    +0.000 A 
ATOM     14  N   UNL     1      47.830   1.200   6.731  0.00  0.00    +0.000 NA
ATOM     15  C   UNL     1      47.742   2.497   6.369  0.00  0.00    +0.000 A 
ATOM     16  C   UNL     1      46.813   3.385   6.889  0.00  0.00    +0.000 A 
ENDBRANCH  10  11
ENDBRANCH   9  10
ENDBRANCH   8   9
ENDBRANCH   5   8
ENDBRANCH   1   2
BRANCH   1  19
ATOM     17  C   UNL     1      48.989   6.364  16.486  0.00  0.00    +0.000 C 
ATOM     18  O   UNL     1      50.021   5.737  16.266  0.00  0.00    +0.000 OA
ATOM     19  N   UNL     1      48.224   6.858  15.468  0.00  0.00    +0.000 N 
ATOM     20  H   UNL     1      47.360   7.341  15.670  0.00  0.00    +0.000 HD
BRANCH  17  28
ATOM     21  C   UNL     1      47.855   9.170  18.135  0.00  0.00    +0.000 A 
ATOM     22  N   UNL     1      47.379  10.087  19.001  0.00  0.00    +0.000 NA
ATOM     23  C   UNL     1      47.099   9.689  20.246  0.00  0.00    +0.000 A 
ATOM     24  N   UNL     1      47.238   8.463  20.744  0.00  0.00    +0.000 NA
ATOM     25  C   UNL     1      47.708   7.580  19.847  0.00  0.00    +0.000 A 
ATOM     26  S   UNL     1      47.953   5.966  20.311  0.00  0.00    +0.000 S 
ATOM     27  C   UNL     1      48.507   5.550  18.760  0.00  0.00    +0.000 A 
ATOM     28  C   UNL     1      48.515   6.612  17.862  0.00  0.00    +0.000 A 
ATOM     29  C   UNL     1      48.040   7.829  18.518  0.00  0.00    +0.000 A 
BRANCH  21  31
ATOM     30  C   UNL     1      49.335  10.296  16.712  0.00  0.00    +0.000 C 
ATOM     31  O   UNL     1      48.112   9.576  16.842  0.00  0.00    +0.000 OA
ENDBRANCH  21  31
ENDBRANCH  17  28
ENDBRANCH   1  19
TORSDOF 8
ENDMDL
MODEL 3
REMARK VINA RESULT:    -7.238      2.071      2.442
REMARK INTER + INTRA:         -11.704
REMARK INTER:                 -10.751
REMARK INTRA:                  -0.953
REMARK UNBOUND:                -1.081
REMARK  Name = 
REMARK  9 active torsions:
REMARK  status: ('A' for Active; 'I' for Inactive)
REMARK    1  A    between atoms: C_1  and  O_2
REMARK    2  A    between atoms: O_2  and  C_3
REMARK    3  A    between atoms: C_10  and  C_11
REMARK    4  A    between atoms: N_13  and  C_14
REMARK    5  A    between atoms: C_14  and  C_15
REMARK    6  A    between atoms: C_18  and  C_19
REMARK    7  A    between atoms: C_19  and  S_20
REMARK    8  A    between atoms: S_20  and  C_21
REMARK    9  A    between atoms: C_21  and  C_22
REMARK                            x       y       z     vdW  Elec       q    Type
REMARK                         _______ _______ _______ _____ _____    ______ ____
ROOT
ATOM      1  C   UNL     1      48.225   7.558  14.749  0.00  0.00    +0.000 C 
ENDROOT
BRANCH   1   2
ATOM      2  C   UNL     1      47.331   6.784  13.815  0.00  0.00    +0.000 A 
ATOM      3  C   UNL     1      46.608   7.442  12.812  0.00  0.00    +0.000 A 
ATOM      4  C   UNL     1      45.781   6.724  11.942  0.00  0.00    +0.000 A 
ATOM      5  C   UNL     1      45.666   5.330  12.048  0.00  0.00    +0.000 A 
ATOM      6  C   UNL     1      46.347   4.681  13.088  0.00  0.00    +0.000 A 
ATOM      7  C   UNL     1      47.168   5.401  13.963  0.00  0.00    +0.000 A 
BRANCH   5   8
ATOM      8  C   UNL     1      44.794   4.543  11.100  0.00  0.00    +0.000 C 
BRANCH   8   9
ATOM      9  S   UNL     1      45.172   4.790   9.336  0.00  0.00    +0.000 S 
BRANCH   9  10
ATOM     10  C   UNL     1      44.687   3.167   8.659  0.00  0.00    +0.000 C 
BRANCH  10  11
ATOM     11  C   UNL     1      45.806   2.584   7.831  0.00  0.00    +0.000 A 
ATOM     12  C   UNL     1      46.301   1.303   8.103  0.00  0.00    +0.000 A 
ATOM     13  C   UNL     1      47.359   0.820   7.347  0.00  0.00    +0.000 A 
ATOM     14  N   UNL     1      47.950   1.514   6.351  0.00  0.00    +0.000 NA
ATOM     15  C   UNL     1      47.465   2.750   6.107  0.00  0.00    +0.000 A 
ATOM     16  C   UNL     1      46.412   3.320   6.807  0.00  0.00    +0.000 A 
ENDBRANCH  10  11
ENDBRANCH   9  10
ENDBRANCH   8   9
ENDBRANCH   5   8
ENDBRANCH   1   2
BRANCH   1  19
ATOM     17  C   UNL     1      49.346   6.533  16.685  0.00  0.00    +0.000 C 
ATOM     18  O   UNL     1      48.610   7.120  17.473  0.00  0.00    +0.000 OA
ATOM     19  N   UNL     1      49.223   6.701  15.334  0.00  0.00    +0.000 N 
ATOM     20  H   UNL     1      49.862   6.237  14.704  0.00  0.00    +0.000 HD
BRANCH  17  28
ATOM     21  C   UNL     1      49.601   3.102  16.895  0.00  0.00    +0.000 A 
ATOM     22  N   UNL     1      49.964   1.817  17.078  0.00  0.00    +0.000 NA
ATOM     23  C   UNL     1      51.173   1.573  17.594  0.00  0.00    +0.000 A 
ATOM     24  N   UNL     1      52.083   2.472  17.958  0.00  0.00    +0.000 NA
ATOM     25  C   UNL     1      51.684   3.740  17.753  0.00  0.00    +0.000 A 
ATOM     26  S   UNL     1      52.720   5.019  18.164  0.00  0.00    +0.000 S 
ATOM     27  C   UNL     1      51.583   6.172  17.648  0.00  0.00    +0.000 A 
ATOM     28  C   UNL     1      50.407   5.619  17.152  0.00  0.00    +0.000 A 
ATOM     29  C   UNL     1      50.469   4.160  17.221  0.00  0.00    +0.000 A 
BRANCH  21  31
ATOM     30  C   UNL     1      47.327   3.486  17.296  0.00  0.00    +0.000 C 
ATOM     31  O   UNL     1      48.367   3.351  16.332  0.00  0.00    +0.000 OA
ENDBRANCH  21  31
ENDBRANCH  17  28
ENDBRANCH   1  19
TORSDOF 8
ENDMDL
MODEL 4
REMARK VINA RESULT:    -7.131      1.559      2.373
REMARK INTER + INTRA:         -11.546
REMARK INTER:                 -10.457
REMARK INTRA:                  -1.089
REMARK UNBOUND:                -1.081
REMARK  Name = 
REMARK  9 active torsions:
REMARK  status: ('A' for Active; 'I' for Inactive)
REMARK    1  A    between atoms: C_1  and  O_2
REMARK    2  A    between atoms: O_2  and  C_3
REMARK    3  A    between atoms: C_10  and  C_11
REMARK    4  A    between atoms: N_13  and  C_14
REMARK    5  A    between atoms: C_14  and  C_15
REMARK    6  A    between atoms: C_18  and  C_19
REMARK    7  A    between atoms: C_19  and  S_20
REMARK    8  A    between atoms: S_20  and  C_21
REMARK    9  A    between atoms: C_21  and  C_22
REMARK                            x       y       z     vdW  Elec       q    Type
REMARK                         _______ _______ _______ _____ _____    ______ ____
ROOT
ATOM      1  C   UNL     1      47.960   4.623  15.233  0.00  0.00    +0.000 C 
ENDROOT
BRANCH   1   2
ATOM      2  C   UNL     1      47.000   4.658  14.072  0.00  0.00    +0.000 A 
ATOM      3  C   UNL     1      46.455   3.473  13.561  0.00  0.00    +0.000 A 
ATOM      4  C   UNL     1      45.562   3.504  12.486  0.00  0.00    +0.000 A 
ATOM      5  C   UNL     1      45.185   4.722  11.902  0.00  0.00    +0.000 A 
ATOM      6  C   UNL     1      45.775   5.901  12.377  0.00  0.00    +0.000 A 
ATOM      7  C   UNL     1      46.674   5.870  13.448  0.00  0.00    +0.000 A 
BRANCH   5   8
ATOM      8  C   UNL     1      44.204   4.769  10.755  0.00  0.00    +0.000 C 
BRANCH   8   9
ATOM      9  S   UNL     1      44.183   3.278   9.710  0.00  0.00    +0.000 S 
BRANCH   9  10
ATOM     10  C   UNL     1      44.903   3.940   8.170  0.00  0.00    +0.000 C 
BRANCH  10  11
ATOM     11  C   UNL     1      45.902   2.966   7.592  0.00  0.00    +0.000 A 
ATOM     12  C   UNL     1      46.036   1.681   8.129  0.00  0.00    +0.000 A 
ATOM     13  C   UNL     1      46.996   0.831   7.599  0.00  0.00    +0.000 A 
ATOM     14  N   UNL     1      47.820   1.167   6.584  0.00  0.00    +0.000 NA
ATOM     15  C   UNL     1      47.682   2.413   6.084  0.00  0.00    +0.000 A 
ATOM     16  C   UNL     1      46.753   3.334   6.545  0.00  0.00    +0.000 A 
ENDBRANCH  10  11
ENDBRANCH   9  10
ENDBRANCH   8   9
ENDBRANCH   5   8
ENDBRANCH   1   2
BRANCH   1  19
ATOM     17  C   UNL     1      48.932   6.620  16.292  0.00  0.00    +0.000 C 
ATOM     18  O   UNL     1      50.054   6.343  15.879  0.00  0.00    +0.000 OA
ATOM     19  N   UNL     1      47.856   5.823  16.022  0.00  0.00    +0.000 N 
ATOM     20  H   UNL     1      46.947   6.050  16.402  0.00  0.00    +0.000 HD
BRANCH  17  28
ATOM     21  C   UNL     1      47.810   7.117  19.514  0.00  0.00    +0.000 A 
ATOM     22  N   UNL     1      47.410   7.589  20.710  0.00  0.00    +0.000 NA
ATOM     23  C   UNL     1      47.385   8.914  20.887  0.00  0.00    +0.000 A 
ATOM     24  N   UNL     1      47.717   9.846  19.997  0.00  0.00    +0.000 NA
ATOM     25  C   UNL     1      48.117   9.332  18.821  0.00  0.00    +0.000 A 
ATOM     26  S   UNL     1      48.575  10.377  17.565  0.00  0.00    +0.000 S 
ATOM     27  C   UNL     1      48.906   9.071  16.530  0.00  0.00    +0.000 A 
ATOM     28  C   UNL     1      48.685   7.826  17.108  0.00  0.00    +0.000 A 
ATOM     29  C   UNL     1      48.206   7.985  18.480  0.00  0.00    +0.000 A 
BRANCH  21  31
ATOM     30  C   UNL     1      49.096   5.179  19.785  0.00  0.00    +0.000 C 
ATOM     31  O   UNL     1      47.866   5.750  19.345  0.00  0.00    +0.000 OA
ENDBRANCH  21  31
ENDBRANCH  17  28
ENDBRANCH   1  19
TORSDOF 8
ENDMDL
MODEL 5
REMARK VINA RESULT:    -6.765      3.925      8.721
REMARK INTER + INTRA:         -11.010
REMARK INTER:                  -9.692
REMARK INTRA:                  -1.318
REMARK UNBOUND:                -1.081
REMARK  Name = 
REMARK  9 active torsions:
REMARK  status: ('A' for Active; 'I' for Inactive)
REMARK    1  A    between atoms: C_1  and  O_2
REMARK    2  A    between atoms: O_2  and  C_3
REMARK    3  A    between atoms: C_10  and  C_11
REMARK    4  A    between atoms: N_13  and  C_14
REMARK    5  A    between atoms: C_14  and  C_15
REMARK    6  A    between atoms: C_18  and  C_19
REMARK    7  A    between atoms: C_19  and  S_20
REMARK    8  A    between atoms: S_20  and  C_21
REMARK    9  A    between atoms: C_21  and  C_22
REMARK                            x       y       z     vdW  Elec       q    Type
REMARK                         _______ _______ _______ _____ _____    ______ ____
ROOT
ATOM      1  C   UNL     1      47.305   3.254  16.942  0.00  0.00    +0.000 C 
ENDROOT
BRANCH   1   2
ATOM      2  C   UNL     1      48.778   3.289  17.258  0.00  0.00    +0.000 A 
ATOM      3  C   UNL     1      49.604   2.208  16.925  0.00  0.00    +0.000 A 
ATOM      4  C   UNL     1      50.972   2.240  17.215  0.00  0.00    +0.000 A 
ATOM      5  C   UNL     1      51.547   3.359  17.836  0.00  0.00    +0.000 A 
ATOM      6  C   UNL     1      50.708   4.415  18.219  0.00  0.00    +0.000 A 
ATOM      7  C   UNL     1      49.338   4.379  17.936  0.00  0.00    +0.000 A 
BRANCH   5   8
ATOM      8  C   UNL     1      53.026   3.414  18.132  0.00  0.00    +0.000 C 
BRANCH   8   9
ATOM      9  S   UNL     1      53.701   5.094  18.329  0.00  0.00    +0.000 S 
BRANCH   9  10
ATOM     10  C   UNL     1      54.498   5.326  16.704  0.00  0.00    +0.000 C 
BRANCH  10  11
ATOM     11  C   UNL     1      53.801   6.414  15.924  0.00  0.00    +0.000 A 
ATOM     12  C   UNL     1      52.495   6.798  16.249  0.00  0.00    +0.000 A 
ATOM     13  C   UNL     1      51.872   7.770  15.480  0.00  0.00    +0.000 A 
ATOM     14  N   UNL     1      52.452   8.380  14.424  0.00  0.00    +0.000 NA
ATOM     15  C   UNL     1      53.708   7.991  14.120  0.00  0.00    +0.000 A 
ATOM     16  C   UNL     1      54.414   7.030  14.828  0.00  0.00    +0.000 A 
ENDBRANCH  10  11
ENDBRANCH   9  10
ENDBRANCH   8   9
ENDBRANCH   5   8
ENDBRANCH   1   2
BRANCH   1  19
ATOM     17  C   UNL     1      47.015   4.139  14.664  0.00  0.00    +0.000 C 
ATOM     18  O   UNL     1      47.391   3.083  14.163  0.00  0.00    +0.000 OA
ATOM     19  N   UNL     1      46.952   4.302  16.019  0.00  0.00    +0.000 N 
ATOM     20  H   UNL     1      46.674   5.190  16.412  0.00  0.00    +0.000 HD
BRANCH  17  28
ATOM     21  C   UNL     1      44.328   4.759  12.596  0.00  0.00    +0.000 A 
ATOM     22  N   UNL     1      43.405   5.257  11.751  0.00  0.00    +0.000 NA
ATOM     23  C   UNL     1      43.599   6.485  11.259  0.00  0.00    +0.000 A 
ATOM     24  N   UNL     1      44.625   7.294  11.512  0.00  0.00    +0.000 NA
ATOM     25  C   UNL     1      45.519   6.762  12.364  0.00  0.00    +0.000 A 
ATOM     26  S   UNL     1      46.895   7.655  12.797  0.00  0.00    +0.000 S 
ATOM     27  C   UNL     1      47.455   6.402  13.799  0.00  0.00    +0.000 A 
ATOM     28  C   UNL     1      46.618   5.292  13.832  0.00  0.00    +0.000 A 
ATOM     29  C   UNL     1      45.460   5.508  12.967  0.00  0.00    +0.000 A 
BRANCH  21  31
ATOM     30  C   UNL     1      43.496   2.605  12.209  0.00  0.00    +0.000 C 
ATOM     31  O   UNL     1      44.109   3.506  13.127  0.00  0.00    +0.000 OA
ENDBRANCH  21  31
ENDBRANCH  17  28
ENDBRANCH   1  19
TORSDOF 8
ENDMDL
MODEL 6
REMARK VINA RESULT:    -6.633      4.718      9.217
REMARK INTER + INTRA:         -10.816
REMARK INTER:                  -9.712
REMARK INTRA:                  -1.104
REMARK UNBOUND:                -1.081
REMARK  Name = 
REMARK  9 active torsions:
REMARK  status: ('A' for Active; 'I' for Inactive)
REMARK    1  A    between atoms: C_1  and  O_2
REMARK    2  A    between atoms: O_2  and  C_3
REMARK    3  A    between atoms: C_10  and  C_11
REMARK    4  A    between atoms: N_13  and  C_14
REMARK    5  A    between atoms: C_14  and  C_15
REMARK    6  A    between atoms: C_18  and  C_19
REMARK    7  A    between atoms: C_19  and  S_20
REMARK    8  A    between atoms: S_20  and  C_21
REMARK    9  A    between atoms: C_21  and  C_22
REMARK                            x       y       z     vdW  Elec       q    Type
REMARK                         _______ _______ _______ _____ _____    ______ ____
ROOT
ATOM      1  C   UNL     1      47.462   3.546  16.737  0.00  0.00    +0.000 C 
ENDROOT
BRANCH   1   2
ATOM      2  C   UNL     1      48.907   3.763  17.105  0.00  0.00    +0.000 A 
ATOM      3  C   UNL     1      49.754   2.673  17.344  0.00  0.00    +0.000 A 
ATOM      4  C   UNL     1      51.096   2.873  17.682  0.00  0.00    +0.000 A 
ATOM      5  C   UNL     1      51.625   4.168  17.780  0.00  0.00    +0.000 A 
ATOM      6  C   UNL     1      50.763   5.258  17.595  0.00  0.00    +0.000 A 
ATOM      7  C   UNL     1      49.418   5.058  17.264  0.00  0.00    +0.000 A 
BRANCH   5   8
ATOM      8  C   UNL     1      53.078   4.395  18.122  0.00  0.00    +0.000 C 
BRANCH   8   9
ATOM      9  S   UNL     1      53.679   3.447  19.556  0.00  0.00    +0.000 S 
BRANCH   9  10
ATOM     10  C   UNL     1      55.309   2.907  18.941  0.00  0.00    +0.000 C 
BRANCH  10  11
ATOM     11  C   UNL     1      55.151   1.796  17.931  0.00  0.00    +0.000 A 
ATOM     12  C   UNL     1      54.443   0.634  18.256  0.00  0.00    +0.000 A 
ATOM     13  C   UNL     1      54.356  -0.383  17.316  0.00  0.00    +0.000 A 
ATOM     14  N   UNL     1      54.917  -0.323  16.090  0.00  0.00    +0.000 NA
ATOM     15  C   UNL     1      55.603   0.802  15.795  0.00  0.00    +0.000 A 
ATOM     16  C   UNL     1      55.745   1.872  16.667  0.00  0.00    +0.000 A 
ENDBRANCH  10  11
ENDBRANCH   9  10
ENDBRANCH   8   9
ENDBRANCH   5   8
ENDBRANCH   1   2
BRANCH   1  19
ATOM     17  C   UNL     1      46.921   4.312  14.461  0.00  0.00    +0.000 C 
ATOM     18  O   UNL     1      47.231   3.226  13.979  0.00  0.00    +0.000 OA
ATOM     19  N   UNL     1      47.013   4.547  15.804  0.00  0.00    +0.000 N 
ATOM     20  H   UNL     1      46.787   5.458  16.177  0.00  0.00    +0.000 HD
BRANCH  17  28
ATOM     21  C   UNL     1      44.063   4.811  12.601  0.00  0.00    +0.000 A 
ATOM     22  N   UNL     1      43.065   5.261  11.816  0.00  0.00    +0.000 NA
ATOM     23  C   UNL     1      43.199   6.469  11.259  0.00  0.00    +0.000 A 
ATOM     24  N   UNL     1      44.230   7.300  11.391  0.00  0.00    +0.000 NA
ATOM     25  C   UNL     1      45.200   6.816  12.187  0.00  0.00    +0.000 A 
ATOM     26  S   UNL     1      46.593   7.742  12.465  0.00  0.00    +0.000 S 
ATOM     27  C   UNL     1      47.254   6.540  13.468  0.00  0.00    +0.000 A 
ATOM     28  C   UNL     1      46.439   5.422  13.618  0.00  0.00    +0.000 A 
ATOM     29  C   UNL     1      45.210   5.588  12.844  0.00  0.00    +0.000 A 
BRANCH  21  31
ATOM     30  C   UNL     1      43.552   2.548  12.283  0.00  0.00    +0.000 C 
ATOM     31  O   UNL     1      43.908   3.579  13.201  0.00  0.00    +0.000 OA
ENDBRANCH  21  31
ENDBRANCH  17  28
ENDBRANCH   1  19
TORSDOF 8
ENDMDL
MODEL 7
REMARK VINA RESULT:    -6.632      3.639      8.861
REMARK INTER + INTRA:         -10.814
REMARK INTER:                  -8.980
REMARK INTRA:                  -1.834
REMARK UNBOUND:                -1.081
REMARK  Name = 
REMARK  9 active torsions:
REMARK  status: ('A' for Active; 'I' for Inactive)
REMARK    1  A    between atoms: C_1  and  O_2
REMARK    2  A    between atoms: O_2  and  C_3
REMARK    3  A    between atoms: C_10  and  C_11
REMARK    4  A    between atoms: N_13  and  C_14
REMARK    5  A    between atoms: C_14  and  C_15
REMARK    6  A    between atoms: C_18  and  C_19
REMARK    7  A    between atoms: C_19  and  S_20
REMARK    8  A    between atoms: S_20  and  C_21
REMARK    9  A    between atoms: C_21  and  C_22
REMARK                            x       y       z     vdW  Elec       q    Type
REMARK                         _______ _______ _______ _____ _____    ______ ____
ROOT
ATOM      1  C   UNL     1      47.502   3.470  16.513  0.00  0.00    +0.000 C 
ENDROOT
BRANCH   1   2
ATOM      2  C   UNL     1      48.252   4.106  17.655  0.00  0.00    +0.000 A 
ATOM      3  C   UNL     1      49.616   3.847  17.843  0.00  0.00    +0.000 A 
ATOM      4  C   UNL     1      50.315   4.439  18.900  0.00  0.00    +0.000 A 
ATOM      5  C   UNL     1      49.668   5.311  19.788  0.00  0.00    +0.000 A 
ATOM      6  C   UNL     1      48.291   5.523  19.631  0.00  0.00    +0.000 A 
ATOM      7  C   UNL     1      47.591   4.925  18.578  0.00  0.00    +0.000 A 
BRANCH   5   8
ATOM      8  C   UNL     1      50.417   5.973  20.919  0.00  0.00    +0.000 C 
BRANCH   8   9
ATOM      9  S   UNL     1      51.728   7.123  20.392  0.00  0.00    +0.000 S 
BRANCH   9  10
ATOM     10  C   UNL     1      50.751   8.325  19.428  0.00  0.00    +0.000 C 
BRANCH  10  11
ATOM     11  C   UNL     1      50.637   7.881  17.990  0.00  0.00    +0.000 A 
ATOM     12  C   UNL     1      49.416   7.971  17.312  0.00  0.00    +0.000 A 
ATOM     13  C   UNL     1      49.342   7.512  16.005  0.00  0.00    +0.000 A 
ATOM     14  N   UNL     1      50.384   6.978  15.334  0.00  0.00    +0.000 NA
ATOM     15  C   UNL     1      51.552   6.892  16.006  0.00  0.00    +0.000 A 
ATOM     16  C   UNL     1      51.727   7.323  17.313  0.00  0.00    +0.000 A 
ENDBRANCH  10  11
ENDBRANCH   9  10
ENDBRANCH   8   9
ENDBRANCH   5   8
ENDBRANCH   1   2
BRANCH   1  19
ATOM     17  C   UNL     1      46.854   4.273  14.279  0.00  0.00    +0.000 C 
ATOM     18  O   UNL     1      47.211   3.223  13.753  0.00  0.00    +0.000 OA
ATOM     19  N   UNL     1      46.971   4.472  15.625  0.00  0.00    +0.000 N 
ATOM     20  H   UNL     1      46.705   5.357  16.033  0.00  0.00    +0.000 HD
BRANCH  17  28
ATOM     21  C   UNL     1      43.901   4.682  12.548  0.00  0.00    +0.000 A 
ATOM     22  N   UNL     1      42.852   5.103  11.816  0.00  0.00    +0.000 NA
ATOM     23  C   UNL     1      42.907   6.329  11.286  0.00  0.00    +0.000 A 
ATOM     24  N   UNL     1      43.903   7.205  11.399  0.00  0.00    +0.000 NA
ATOM     25  C   UNL     1      44.925   6.748  12.142  0.00  0.00    +0.000 A 
ATOM     26  S   UNL     1      46.285   7.732  12.388  0.00  0.00    +0.000 S 
ATOM     27  C   UNL     1      47.041   6.539  13.332  0.00  0.00    +0.000 A 
ATOM     28  C   UNL     1      46.287   5.380  13.484  0.00  0.00    +0.000 A 
ATOM     29  C   UNL     1      45.020   5.507  12.765  0.00  0.00    +0.000 A 
BRANCH  21  31
ATOM     30  C   UNL     1      43.533   2.398  12.182  0.00  0.00    +0.000 C 
ATOM     31  O   UNL     1      43.828   3.430  13.121  0.00  0.00    +0.000 OA
ENDBRANCH  21  31
ENDBRANCH  17  28
ENDBRANCH   1  19
TORSDOF 8
ENDMDL
MODEL 8
REMARK VINA RESULT:    -6.534      3.431      8.343
REMARK INTER + INTRA:         -10.671
REMARK INTER:                  -8.916
REMARK INTRA:                  -1.755
REMARK UNBOUND:                -1.081
REMARK  Name = 
REMARK  9 active torsions:
REMARK  status: ('A' for Active; 'I' for Inactive)
REMARK    1  A    between atoms: C_1  and  O_2
REMARK    2  A    between atoms: O_2  and  C_3
REMARK    3  A    between atoms: C_10  and  C_11
REMARK    4  A    between atoms: N_13  and  C_14
REMARK    5  A    between atoms: C_14  and  C_15
REMARK    6  A    between atoms: C_18  and  C_19
REMARK    7  A    between atoms: C_19  and  S_20
REMARK    8  A    between atoms: S_20  and  C_21
REMARK    9  A    between atoms: C_21  and  C_22
REMARK                            x       y       z     vdW  Elec       q    Type
REMARK                         _______ _______ _______ _____ _____    ______ ____
ROOT
ATOM      1  C   UNL     1      48.444   8.442  14.693  0.00  0.00    +0.000 C 
ENDROOT
BRANCH   1   2
ATOM      2  C   UNL     1      48.989   8.039  16.039  0.00  0.00    +0.000 A 
ATOM      3  C   UNL     1      48.379   8.486  17.218  0.00  0.00    +0.000 A 
ATOM      4  C   UNL     1      48.881   8.110  18.467  0.00  0.00    +0.000 A 
ATOM      5  C   UNL     1      50.001   7.271  18.567  0.00  0.00    +0.000 A 
ATOM      6  C   UNL     1      50.644   6.872  17.387  0.00  0.00    +0.000 A 
ATOM      7  C   UNL     1      50.145   7.254  16.137  0.00  0.00    +0.000 A 
BRANCH   5   8
ATOM      8  C   UNL     1      50.538   6.840  19.911  0.00  0.00    +0.000 C 
BRANCH   8   9
ATOM      9  S   UNL     1      50.469   5.047  20.219  0.00  0.00    +0.000 S 
BRANCH   9  10
ATOM     10  C   UNL     1      48.852   4.642  19.478  0.00  0.00    +0.000 C 
BRANCH  10  11
ATOM     11  C   UNL     1      49.019   3.646  18.355  0.00  0.00    +0.000 A 
ATOM     12  C   UNL     1      50.262   3.051  18.111  0.00  0.00    +0.000 A 
ATOM     13  C   UNL     1      50.385   2.174  17.043  0.00  0.00    +0.000 A 
ATOM     14  N   UNL     1      49.371   1.852  16.213  0.00  0.00    +0.000 NA
ATOM     15  C   UNL     1      48.182   2.442  16.458  0.00  0.00    +0.000 A 
ATOM     16  C   UNL     1      47.958   3.330  17.500  0.00  0.00    +0.000 A 
ENDBRANCH  10  11
ENDBRANCH   9  10
ENDBRANCH   8   9
ENDBRANCH   5   8
ENDBRANCH   1   2
BRANCH   1  19
ATOM     17  C   UNL     1      47.791   6.455  13.398  0.00  0.00    +0.000 C 
ATOM     18  O   UNL     1      48.939   6.289  12.996  0.00  0.00    +0.000 OA
ATOM     19  N   UNL     1      47.469   7.491  14.227  0.00  0.00    +0.000 N 
ATOM     20  H   UNL     1      46.511   7.631  14.518  0.00  0.00    +0.000 HD
BRANCH  17  28
ATOM     21  C   UNL     1      44.746   6.942  11.858  0.00  0.00    +0.000 A 
ATOM     22  N   UNL     1      43.532   6.846  11.281  0.00  0.00    +0.000 NA
ATOM     23  C   UNL     1      42.970   5.636  11.194  0.00  0.00    +0.000 A 
ATOM     24  N   UNL     1      43.481   4.485  11.624  0.00  0.00    +0.000 NA
ATOM     25  C   UNL     1      44.694   4.624  12.186  0.00  0.00    +0.000 A 
ATOM     26  S   UNL     1      45.495   3.257  12.794  0.00  0.00    +0.000 S 
ATOM     27  C   UNL     1      46.824   4.193  13.288  0.00  0.00    +0.000 A 
ATOM     28  C   UNL     1      46.695   5.548  13.002  0.00  0.00    +0.000 A 
ATOM     29  C   UNL     1      45.415   5.804  12.346  0.00  0.00    +0.000 A 
BRANCH  21  31
ATOM     30  C   UNL     1      44.560   9.207  11.298  0.00  0.00    +0.000 C 
ATOM     31  O   UNL     1      45.337   8.186  11.917  0.00  0.00    +0.000 OA
ENDBRANCH  21  31
ENDBRANCH  17  28
ENDBRANCH   1  19
TORSDOF 8
ENDMDL
MODEL 9
REMARK VINA RESULT:    -6.485      3.461      8.030
REMARK INTER + INTRA:         -10.599
REMARK INTER:                  -9.193
REMARK INTRA:                  -1.407
REMARK UNBOUND:                -1.081
REMARK  Name = 
REMARK  9 active torsions:
REMARK  status: ('A' for Active; 'I' for Inactive)
REMARK    1  A    between atoms: C_1  and  O_2
REMARK    2  A    between atoms: O_2  and  C_3
REMARK    3  A    between atoms: C_10  and  C_11
REMARK    4  A    between atoms: N_13  and  C_14
REMARK    5  A    between atoms: C_14  and  C_15
REMARK    6  A    between atoms: C_18  and  C_19
REMARK    7  A    between atoms: C_19  and  S_20
REMARK    8  A    between atoms: S_20  and  C_21
REMARK    9  A    between atoms: C_21  and  C_22
REMARK                            x       y       z     vdW  Elec       q    Type
REMARK                         _______ _______ _______ _____ _____    ______ ____
ROOT
ATOM      1  C   UNL     1      48.128   8.917  13.966  0.00  0.00    +0.000 C 
ENDROOT
BRANCH   1   2
ATOM      2  C   UNL     1      48.454   8.507  15.379  0.00  0.00    +0.000 A 
ATOM      3  C   UNL     1      49.095   7.289  15.638  0.00  0.00    +0.000 A 
ATOM      4  C   UNL     1      49.402   6.908  16.948  0.00  0.00    +0.000 A 
ATOM      5  C   UNL     1      49.082   7.742  18.030  0.00  0.00    +0.000 A 
ATOM      6  C   UNL     1      48.390   8.933  17.774  0.00  0.00    +0.000 A 
ATOM      7  C   UNL     1      48.077   9.310  16.463  0.00  0.00    +0.000 A 
BRANCH   5   8
ATOM      8  C   UNL     1      49.429   7.351  19.447  0.00  0.00    +0.000 C 
BRANCH   8   9
ATOM      9  S   UNL     1      50.441   5.845  19.595  0.00  0.00    +0.000 S 
BRANCH   9  10
ATOM     10  C   UNL     1      49.143   4.564  19.551  0.00  0.00    +0.000 C 
BRANCH  10  11
ATOM     11  C   UNL     1      49.376   3.614  18.402  0.00  0.00    +0.000 A 
ATOM     12  C   UNL     1      48.299   3.118  17.658  0.00  0.00    +0.000 A 
ATOM     13  C   UNL     1      48.551   2.213  16.637  0.00  0.00    +0.000 A 
ATOM     14  N   UNL     1      49.785   1.774  16.309  0.00  0.00    +0.000 NA
ATOM     15  C   UNL     1      50.810   2.256  17.042  0.00  0.00    +0.000 A 
ATOM     16  C   UNL     1      50.661   3.163  18.080  0.00  0.00    +0.000 A 
ENDBRANCH  10  11
ENDBRANCH   9  10
ENDBRANCH   8   9
ENDBRANCH   5   8
ENDBRANCH   1   2
BRANCH   1  19
ATOM     17  C   UNL     1      46.900   7.366  12.502  0.00  0.00    +0.000 C 
ATOM     18  O   UNL     1      47.929   7.042  11.915  0.00  0.00    +0.000 OA
ATOM     19  N   UNL     1      46.916   8.284  13.514  0.00  0.00    +0.000 N 
ATOM     20  H   UNL     1      46.053   8.564  13.959  0.00  0.00    +0.000 HD
BRANCH  17  28
ATOM     21  C   UNL     1      45.548   4.207  12.764  0.00  0.00    +0.000 A 
ATOM     22  N   UNL     1      44.786   3.095  12.752  0.00  0.00    +0.000 NA
ATOM     23  C   UNL     1      43.552   3.184  12.247  0.00  0.00    +0.000 A 
ATOM     24  N   UNL     1      42.972   4.270  11.741  0.00  0.00    +0.000 NA
ATOM     25  C   UNL     1      43.763   5.356  11.778  0.00  0.00    +0.000 A 
ATOM     26  S   UNL     1      43.186   6.831  11.169  0.00  0.00    +0.000 S 
ATOM     27  C   UNL     1      44.645   7.616  11.547  0.00  0.00    +0.000 A 
ATOM     28  C   UNL     1      45.591   6.788  12.141  0.00  0.00    +0.000 A 
ATOM     29  C   UNL     1      45.061   5.432  12.274  0.00  0.00    +0.000 A 
BRANCH  21  31
ATOM     30  C   UNL     1      46.858   4.539  14.676  0.00  0.00    +0.000 C 
ATOM     31  O   UNL     1      46.809   4.120  13.315  0.00  0.00    +0.000 OA
ENDBRANCH  21  31
ENDBRANCH  17  28
ENDBRANCH   1  19
TORSDOF 8
ENDMDL
