MODEL 1
REMARK VINA RESULT:    -8.529      0.000      0.000
REMARK INTER + INTRA:         -13.577
REMARK INTER:                 -13.016
REMARK INTRA:                  -0.561
REMARK UNBOUND:                -0.561
REMARK  Name = 
REMARK  11 active torsions:
REMARK  status: ('A' for Active; 'I' for Inactive)
REMARK    1  A    between atoms: C_1  and  C_2
REMARK    2  A    between atoms: C_2  and  N_3
REMARK    3  A    between atoms: C_2  and  C_20
REMARK    4  A    between atoms: N_3  and  C_4
REMARK    5  A    between atoms: C_4  and  C_5
REMARK    6  A    between atoms: C_8  and  C_9
REMARK    7  A    between atoms: C_9  and  O_10
REMARK    8  A    between atoms: C_9  and  C_11
REMARK    9  A    between atoms: C_11  and  N_12
REMARK   10  A    between atoms: C_15  and  O_16
REMARK   11  A    between atoms: C_20  and  C_22
REMARK                            x       y       z     vdW  Elec       q    Type
REMARK                         _______ _______ _______ _____ _____    ______ ____
ROOT
ATOM      1  C   UNL     1      47.857   5.997  14.302  0.00  0.00    +0.000 C 
ENDROOT
BRANCH   1   2
ATOM      2  C   UNL     1      46.898   5.447  13.263  0.00  0.00    +0.000 A 
ATOM      3  C   UNL     1      46.346   4.166  13.406  0.00  0.00    +0.000 A 
ATOM      4  C   UNL     1      45.500   3.636  12.422  0.00  0.00    +0.000 A 
ATOM      5  C   UNL     1      45.181   4.365  11.264  0.00  0.00    +0.000 A 
ATOM      6  C   UNL     1      45.735   5.646  11.126  0.00  0.00    +0.000 A 
ATOM      7  C   UNL     1      46.581   6.179  12.112  0.00  0.00    +0.000 A 
BRANCH   5   8
ATOM      8  C   UNL     1      44.385   3.680  10.156  0.00  0.00    +0.000 C 
BRANCH   8   9
ATOM      9  O   UNL     1      43.072   3.432  10.681  0.00  0.00    +0.000 OA
ATOM     10  H   UNL     1      42.427   3.797  10.051  0.00  0.00    +0.000 HD
ENDBRANCH   8   9
BRANCH   8  11
ATOM     11  C   UNL     1      44.993   2.355   9.601  0.00  0.00    +0.000 C 
BRANCH  11  12
ATOM     12  N   UNL     1      46.040   2.503   8.560  0.00  0.00    +0.000 NA
ATOM     13  C   UNL     1      45.656   3.419   7.472  0.00  0.00    +0.000 C 
ATOM     14  C   UNL     1      46.403   2.936   6.226  0.00  0.00    +0.000 C 
ATOM     15  C   UNL     1      47.102   1.657   6.659  0.00  0.00    +0.000 C 
ATOM     16  C   UNL     1      46.320   1.217   7.893  0.00  0.00    +0.000 C 
BRANCH  15  17
ATOM     17  O   UNL     1      48.455   1.951   7.009  0.00  0.00    +0.000 OA
ATOM     18  H   UNL     1      48.894   2.177   6.166  0.00  0.00    +0.000 HD
ENDBRANCH  15  17
ENDBRANCH  11  12
ENDBRANCH   8  11
ENDBRANCH   5   8
ENDBRANCH   1   2
BRANCH   1  19
ATOM     19  N   UNL     1      47.816   5.174  15.514  0.00  0.00    +0.000 NA
ATOM     20  H   UNL     1      46.842   5.088  15.805  0.00  0.00    +0.000 HD
BRANCH  19  22
ATOM     21  C   UNL     1      49.854   6.456  16.207  0.00  0.00    +0.000 C 
ATOM     22  C   UNL     1      48.609   5.687  16.658  0.00  0.00    +0.000 C 
BRANCH  22  23
ATOM     23  C   UNL     1      48.959   4.593  17.701  0.00  0.00    +0.000 C 
ATOM     24  O   UNL     1      48.064   3.964  18.270  0.00  0.00    +0.000 OA
BRANCH  23  25
ATOM     25  C   UNL     1      50.368   4.312  18.028  0.00  0.00    +0.000 A 
ATOM     26  C   UNL     1      51.199   5.189  18.703  0.00  0.00    +0.000 A 
ATOM     27  S   UNL     1      52.698   4.496  19.147  0.00  0.00    +0.000 S 
ATOM     28  C   UNL     1      52.301   3.020  18.403  0.00  0.00    +0.000 A 
ATOM     29  N   UNL     1      53.139   1.951  18.456  0.00  0.00    +0.000 NA
ATOM     30  C   UNL     1      52.693   0.897  17.854  0.00  0.00    +0.000 A 
ATOM     31  N   UNL     1      51.504   0.828  17.172  0.00  0.00    +0.000 N 
ATOM     32  C   UNL     1      50.695   1.928  16.974  0.00  0.00    +0.000 A 
ATOM     33  O   UNL     1      49.813   1.923  16.119  0.00  0.00    +0.000 OA
ATOM     34  C   UNL     1      51.074   3.082  17.765  0.00  0.00    +0.000 A 
ATOM     35  H   UNL     1      51.267   0.011  16.633  0.00  0.00    +0.000 HD
ENDBRANCH  23  25
ENDBRANCH  22  23
ENDBRANCH  19  22
ENDBRANCH   1  19
TORSDOF 10
ENDMDL
MODEL 2
REMARK VINA RESULT:    -8.121      2.972      3.965
REMARK INTER + INTRA:         -12.955
REMARK INTER:                 -11.568
REMARK INTRA:                  -1.387
REMARK UNBOUND:                -0.561
REMARK  Name = 
REMARK  11 active torsions:
REMARK  status: ('A' for Active; 'I' for Inactive)
REMARK    1  A    between atoms: C_1  and  C_2
REMARK    2  A    between atoms: C_2  and  N_3
REMARK    3  A    between atoms: C_2  and  C_20
REMARK    4  A    between atoms: N_3  and  C_4
REMARK    5  A    between atoms: C_4  and  C_5
REMARK    6  A    between atoms: C_8  and  C_9
REMARK    7  A    between atoms: C_9  and  O_10
REMARK    8  A    between atoms: C_9  and  C_11
REMARK    9  A    between atoms: C_11  and  N_12
REMARK   10  A    between atoms: C_15  and  O_16
REMARK   11  A    between atoms: C_20  and  C_22
REMARK                            x       y       z     vdW  Elec       q    Type
REMARK                         _______ _______ _______ _____ _____    ______ ____
ROOT
ATOM      1  C   UNL     1      44.806   7.969  12.155  0.00  0.00    +0.000 C 
ENDROOT
BRANCH   1   2
ATOM      2  C   UNL     1      44.681   6.679  11.366  0.00  0.00    +0.000 A 
ATOM      3  C   UNL     1      43.554   5.858  11.513  0.00  0.00    +0.000 A 
ATOM      4  C   UNL     1      43.459   4.642  10.824  0.00  0.00    +0.000 A 
ATOM      5  C   UNL     1      44.486   4.204   9.971  0.00  0.00    +0.000 A 
ATOM      6  C   UNL     1      45.611   5.030   9.827  0.00  0.00    +0.000 A 
ATOM      7  C   UNL     1      45.706   6.250  10.514  0.00  0.00    +0.000 A 
BRANCH   5   8
ATOM      8  C   UNL     1      44.401   2.804   9.370  0.00  0.00    +0.000 C 
BRANCH   8   9
ATOM      9  O   UNL     1      43.543   2.035  10.227  0.00  0.00    +0.000 OA
ATOM     10  H   UNL     1      44.058   1.282  10.565  0.00  0.00    +0.000 HD
ENDBRANCH   8   9
BRANCH   8  11
ATOM     11  C   UNL     1      45.760   2.062   9.179  0.00  0.00    +0.000 C 
BRANCH  11  12
ATOM     12  N   UNL     1      46.584   2.496   8.023  0.00  0.00    +0.000 NA
ATOM     13  C   UNL     1      45.798   3.141   6.956  0.00  0.00    +0.000 C 
ATOM     14  C   UNL     1      46.549   2.866   5.650  0.00  0.00    +0.000 C 
ATOM     15  C   UNL     1      47.695   1.947   6.043  0.00  0.00    +0.000 C 
ATOM     16  C   UNL     1      47.240   1.348   7.370  0.00  0.00    +0.000 C 
BRANCH  15  17
ATOM     17  O   UNL     1      48.881   2.722   6.231  0.00  0.00    +0.000 OA
ATOM     18  H   UNL     1      48.748   3.192   7.077  0.00  0.00    +0.000 HD
ENDBRANCH  15  17
ENDBRANCH  11  12
ENDBRANCH   8  11
ENDBRANCH   5   8
ENDBRANCH   1   2
BRANCH   1  19
ATOM     19  N   UNL     1      45.693   7.776  13.305  0.00  0.00    +0.000 NA
ATOM     20  H   UNL     1      45.194   8.077  14.143  0.00  0.00    +0.000 HD
BRANCH  19  22
ATOM     21  C   UNL     1      47.018   9.541  12.119  0.00  0.00    +0.000 C 
ATOM     22  C   UNL     1      46.988   8.497  13.240  0.00  0.00    +0.000 C 
BRANCH  22  23
ATOM     23  C   UNL     1      48.215   7.550  13.173  0.00  0.00    +0.000 C 
ATOM     24  O   UNL     1      48.754   7.302  12.093  0.00  0.00    +0.000 OA
BRANCH  23  25
ATOM     25  C   UNL     1      48.732   6.929  14.405  0.00  0.00    +0.000 A 
ATOM     26  C   UNL     1      49.838   7.384  15.101  0.00  0.00    +0.000 A 
ATOM     27  S   UNL     1      50.052   6.613  16.612  0.00  0.00    +0.000 S 
ATOM     28  C   UNL     1      48.704   5.610  16.356  0.00  0.00    +0.000 A 
ATOM     29  N   UNL     1      48.287   4.728  17.303  0.00  0.00    +0.000 NA
ATOM     30  C   UNL     1      47.242   4.044  16.967  0.00  0.00    +0.000 A 
ATOM     31  N   UNL     1      46.601   4.136  15.756  0.00  0.00    +0.000 N 
ATOM     32  C   UNL     1      47.077   4.912  14.719  0.00  0.00    +0.000 A 
ATOM     33  O   UNL     1      46.680   4.748  13.569  0.00  0.00    +0.000 OA
ATOM     34  C   UNL     1      48.145   5.813  15.106  0.00  0.00    +0.000 A 
ATOM     35  H   UNL     1      45.860   3.497  15.517  0.00  0.00    +0.000 HD
ENDBRANCH  23  25
ENDBRANCH  22  23
ENDBRANCH  19  22
ENDBRANCH   1  19
TORSDOF 10
ENDMDL
MODEL 3
REMARK VINA RESULT:    -7.968      1.747      2.192
REMARK INTER + INTRA:         -12.721
REMARK INTER:                 -11.595
REMARK INTRA:                  -1.126
REMARK UNBOUND:                -0.561
REMARK  Name = 
REMARK  11 active torsions:
REMARK  status: ('A' for Active; 'I' for Inactive)
REMARK    1  A    between atoms: C_1  and  C_2
REMARK    2  A    between atoms: C_2  and  N_3
REMARK    3  A    between atoms: C_2  and  C_20
REMARK    4  A    between atoms: N_3  and  C_4
REMARK    5  A    between atoms: C_4  and  C_5
REMARK    6  A    between atoms: C_8  and  C_9
REMARK    7  A    between atoms: C_9  and  O_10
REMARK    8  A    between atoms: C_9  and  C_11
REMARK    9  A    between atoms: C_11  and  N_12
REMARK   10  A    between atoms: C_15  and  O_16
REMARK   11  A    between atoms: C_20  and  C_22
REMARK                            x       y       z     vdW  Elec       q    Type
REMARK                         _______ _______ _______ _____ _____    ______ ____
ROOT
ATOM      1  C   UNL     1      48.160   6.819  13.455  0.00  0.00    +0.000 C 
ENDROOT
BRANCH   1   2
ATOM      2  C   UNL     1      47.095   6.091  12.656  0.00  0.00    +0.000 A 
ATOM      3  C   UNL     1      46.511   4.916  13.149  0.00  0.00    +0.000 A 
ATOM      4  C   UNL     1      45.563   4.215  12.391  0.00  0.00    +0.000 A 
ATOM      5  C   UNL     1      45.173   4.660  11.117  0.00  0.00    +0.000 A 
ATOM      6  C   UNL     1      45.760   5.838  10.629  0.00  0.00    +0.000 A 
ATOM      7  C   UNL     1      46.707   6.543  11.389  0.00  0.00    +0.000 A 
BRANCH   5   8
ATOM      8  C   UNL     1      44.258   3.777  10.273  0.00  0.00    +0.000 C 
BRANCH   8   9
ATOM      9  O   UNL     1      43.094   3.505  11.068  0.00  0.00    +0.000 OA
ATOM     10  H   UNL     1      42.398   3.178  10.472  0.00  0.00    +0.000 HD
ENDBRANCH   8   9
BRANCH   8  11
ATOM     11  C   UNL     1      44.882   2.438   9.771  0.00  0.00    +0.000 C 
BRANCH  11  12
ATOM     12  N   UNL     1      45.925   2.555   8.722  0.00  0.00    +0.000 NA
ATOM     13  C   UNL     1      45.569   3.501   7.649  0.00  0.00    +0.000 C 
ATOM     14  C   UNL     1      46.285   3.003   6.390  0.00  0.00    +0.000 C 
ATOM     15  C   UNL     1      46.933   1.691   6.800  0.00  0.00    +0.000 C 
ATOM     16  C   UNL     1      46.145   1.268   8.036  0.00  0.00    +0.000 C 
BRANCH  15  17
ATOM     17  O   UNL     1      48.301   1.925   7.141  0.00  0.00    +0.000 OA
ATOM     18  H   UNL     1      48.758   2.059   6.288  0.00  0.00    +0.000 HD
ENDBRANCH  15  17
ENDBRANCH  11  12
ENDBRANCH   8  11
ENDBRANCH   5   8
ENDBRANCH   1   2
BRANCH   1  19
ATOM     19  N   UNL     1      47.779   6.882  14.868  0.00  0.00    +0.000 NA
ATOM     20  H   UNL     1      46.952   7.475  14.946  0.00  0.00    +0.000 HD
BRANCH  19  22
ATOM     21  C   UNL     1      50.233   7.265  15.204  0.00  0.00    +0.000 C 
ATOM     22  C   UNL     1      48.823   7.401  15.787  0.00  0.00    +0.000 C 
BRANCH  22  23
ATOM     23  C   UNL     1      48.734   6.805  17.216  0.00  0.00    +0.000 C 
ATOM     24  O   UNL     1      48.763   7.542  18.203  0.00  0.00    +0.000 OA
BRANCH  23  25
ATOM     25  C   UNL     1      48.629   5.346  17.399  0.00  0.00    +0.000 A 
ATOM     26  C   UNL     1      47.435   4.646  17.397  0.00  0.00    +0.000 A 
ATOM     27  S   UNL     1      47.646   2.949  17.391  0.00  0.00    +0.000 S 
ATOM     28  C   UNL     1      49.338   3.101  17.445  0.00  0.00    +0.000 A 
ATOM     29  N   UNL     1      50.149   2.010  17.409  0.00  0.00    +0.000 NA
ATOM     30  C   UNL     1      51.412   2.287  17.445  0.00  0.00    +0.000 A 
ATOM     31  N   UNL     1      51.934   3.553  17.554  0.00  0.00    +0.000 N 
ATOM     32  C   UNL     1      51.146   4.670  17.736  0.00  0.00    +0.000 A 
ATOM     33  O   UNL     1      51.625   5.728  18.134  0.00  0.00    +0.000 OA
ATOM     34  C   UNL     1      49.731   4.425  17.539  0.00  0.00    +0.000 A 
ATOM     35  H   UNL     1      52.923   3.691  17.687  0.00  0.00    +0.000 HD
ENDBRANCH  23  25
ENDBRANCH  22  23
ENDBRANCH  19  22
ENDBRANCH   1  19
TORSDOF 10
ENDMDL
MODEL 4
REMARK VINA RESULT:    -7.722      1.719      2.420
REMARK INTER + INTRA:         -12.346
REMARK INTER:                 -11.342
REMARK INTRA:                  -1.004
REMARK UNBOUND:                -0.561
REMARK  Name = 
REMARK  11 active torsions:
REMARK  status: ('A' for Active; 'I' for Inactive)
REMARK    1  A    between atoms: C_1  and  C_2
REMARK    2  A    between atoms: C_2  and  N_3
REMARK    3  A    between atoms: C_2  and  C_20
REMARK    4  A    between atoms: N_3  and  C_4
REMARK    5  A    between atoms: C_4  and  C_5
REMARK    6  A    between atoms: C_8  and  C_9
REMARK    7  A    between atoms: C_9  and  O_10
REMARK    8  A    between atoms: C_9  and  C_11
REMARK    9  A    between atoms: C_11  and  N_12
REMARK   10  A    between atoms: C_15  and  O_16
REMARK   11  A    between atoms: C_20  and  C_22
REMARK                            x       y       z     vdW  Elec       q    Type
REMARK                         _______ _______ _______ _____ _____    ______ ____
ROOT
ATOM      1  C   UNL     1      49.316   7.388  14.722  0.00  0.00    +0.000 C 
ENDROOT
BRANCH   1   2
ATOM      2  C   UNL     1      48.065   7.207  13.881  0.00  0.00    +0.000 A 
ATOM      3  C   UNL     1      47.768   5.966  13.300  0.00  0.00    +0.000 A 
ATOM      4  C   UNL     1      46.640   5.810  12.483  0.00  0.00    +0.000 A 
ATOM      5  C   UNL     1      45.778   6.886  12.215  0.00  0.00    +0.000 A 
ATOM      6  C   UNL     1      46.080   8.126  12.799  0.00  0.00    +0.000 A 
ATOM      7  C   UNL     1      47.207   8.283  13.621  0.00  0.00    +0.000 A 
BRANCH   5   8
ATOM      8  C   UNL     1      44.658   6.700  11.195  0.00  0.00    +0.000 C 
BRANCH   8   9
ATOM      9  O   UNL     1      43.797   7.843  11.308  0.00  0.00    +0.000 OA
ATOM     10  H   UNL     1      42.975   7.553  11.740  0.00  0.00    +0.000 HD
ENDBRANCH   8   9
BRANCH   8  11
ATOM     11  C   UNL     1      43.822   5.390  11.337  0.00  0.00    +0.000 C 
BRANCH  11  12
ATOM     12  N   UNL     1      43.920   4.427  10.212  0.00  0.00    +0.000 NA
ATOM     13  C   UNL     1      44.108   3.033  10.653  0.00  0.00    +0.000 C 
ATOM     14  C   UNL     1      44.885   2.335   9.532  0.00  0.00    +0.000 C 
ATOM     15  C   UNL     1      45.211   3.436   8.536  0.00  0.00    +0.000 C 
ATOM     16  C   UNL     1      45.087   4.716   9.357  0.00  0.00    +0.000 C 
BRANCH  15  17
ATOM     17  O   UNL     1      44.243   3.427   7.485  0.00  0.00    +0.000 OA
ATOM     18  H   UNL     1      43.600   2.735   7.736  0.00  0.00    +0.000 HD
ENDBRANCH  15  17
ENDBRANCH  11  12
ENDBRANCH   8  11
ENDBRANCH   5   8
ENDBRANCH   1   2
BRANCH   1  19
ATOM     19  N   UNL     1      49.537   6.207  15.560  0.00  0.00    +0.000 NA
ATOM     20  H   UNL     1      49.393   5.378  14.983  0.00  0.00    +0.000 HD
BRANCH  19  22
ATOM     21  C   UNL     1      48.624   7.412  17.558  0.00  0.00    +0.000 C 
ATOM     22  C   UNL     1      48.670   6.105  16.760  0.00  0.00    +0.000 C 
BRANCH  22  23
ATOM     23  C   UNL     1      49.014   4.894  17.665  0.00  0.00    +0.000 C 
ATOM     24  O   UNL     1      48.119   4.258  18.224  0.00  0.00    +0.000 OA
BRANCH  23  25
ATOM     25  C   UNL     1      50.421   4.507  17.872  0.00  0.00    +0.000 A 
ATOM     26  C   UNL     1      51.386   5.341  18.409  0.00  0.00    +0.000 A 
ATOM     27  S   UNL     1      52.859   4.541  18.749  0.00  0.00    +0.000 S 
ATOM     28  C   UNL     1      52.268   3.069  18.138  0.00  0.00    +0.000 A 
ATOM     29  N   UNL     1      53.015   1.934  18.176  0.00  0.00    +0.000 NA
ATOM     30  C   UNL     1      52.425   0.894  17.685  0.00  0.00    +0.000 A 
ATOM     31  N   UNL     1      51.171   0.895  17.125  0.00  0.00    +0.000 N 
ATOM     32  C   UNL     1      50.441   2.050  16.939  0.00  0.00    +0.000 A 
ATOM     33  O   UNL     1      49.480   2.078  16.175  0.00  0.00    +0.000 OA
ATOM     34  C   UNL     1      50.992   3.206  17.618  0.00  0.00    +0.000 A 
ATOM     35  H   UNL     1      50.814   0.075  16.663  0.00  0.00    +0.000 HD
ENDBRANCH  23  25
ENDBRANCH  22  23
ENDBRANCH  19  22
ENDBRANCH   1  19
TORSDOF 10
ENDMDL
MODEL 5
REMARK VINA RESULT:    -7.634      2.743      3.623
REMARK INTER + INTRA:         -12.212
REMARK INTER:                 -10.972
REMARK INTRA:                  -1.239
REMARK UNBOUND:                -0.561
REMARK  Name = 
REMARK  11 active torsions:
REMARK  status: ('A' for Active; 'I' for Inactive)
REMARK    1  A    between atoms: C_1  and  C_2
REMARK    2  A    between atoms: C_2  and  N_3
REMARK    3  A    between atoms: C_2  and  C_20
REMARK    4  A    between atoms: N_3  and  C_4
REMARK    5  A    between atoms: C_4  and  C_5
REMARK    6  A    between atoms: C_8  and  C_9
REMARK    7  A    between atoms: C_9  and  O_10
REMARK    8  A    between atoms: C_9  and  C_11
REMARK    9  A    between atoms: C_11  and  N_12
REMARK   10  A    between atoms: C_15  and  O_16
REMARK   11  A    between atoms: C_20  and  C_22
REMARK                            x       y       z     vdW  Elec       q    Type
REMARK                         _______ _______ _______ _____ _____    ______ ____
ROOT
ATOM      1  C   UNL     1      47.678   6.306  13.860  0.00  0.00    +0.000 C 
ENDROOT
BRANCH   1   2
ATOM      2  C   UNL     1      46.760   5.599  12.880  0.00  0.00    +0.000 A 
ATOM      3  C   UNL     1      46.272   4.314  13.157  0.00  0.00    +0.000 A 
ATOM      4  C   UNL     1      45.464   3.640  12.231  0.00  0.00    +0.000 A 
ATOM      5  C   UNL     1      45.123   4.222  10.999  0.00  0.00    +0.000 A 
ATOM      6  C   UNL     1      45.614   5.508  10.727  0.00  0.00    +0.000 A 
ATOM      7  C   UNL     1      46.420   6.186  11.655  0.00  0.00    +0.000 A 
BRANCH   5   8
ATOM      8  C   UNL     1      44.375   3.383   9.967  0.00  0.00    +0.000 C 
BRANCH   8   9
ATOM      9  O   UNL     1      43.162   2.938  10.594  0.00  0.00    +0.000 OA
ATOM     10  H   UNL     1      43.390   2.211  11.199  0.00  0.00    +0.000 HD
ENDBRANCH   8   9
BRANCH   8  11
ATOM     11  C   UNL     1      45.154   2.159   9.393  0.00  0.00    +0.000 C 
BRANCH  11  12
ATOM     12  N   UNL     1      46.180   2.463   8.364  0.00  0.00    +0.000 NA
ATOM     13  C   UNL     1      45.708   3.395   7.326  0.00  0.00    +0.000 C 
ATOM     14  C   UNL     1      46.496   3.053   6.058  0.00  0.00    +0.000 C 
ATOM     15  C   UNL     1      47.315   1.826   6.424  0.00  0.00    +0.000 C 
ATOM     16  C   UNL     1      46.581   1.247   7.631  0.00  0.00    +0.000 C 
BRANCH  15  17
ATOM     17  O   UNL     1      48.635   2.230   6.795  0.00  0.00    +0.000 OA
ATOM     18  H   UNL     1      49.120   1.398   6.960  0.00  0.00    +0.000 HD
ENDBRANCH  15  17
ENDBRANCH  11  12
ENDBRANCH   8  11
ENDBRANCH   5   8
ENDBRANCH   1   2
BRANCH   1  19
ATOM     19  N   UNL     1      47.218   7.678  14.085  0.00  0.00    +0.000 NA
ATOM     20  H   UNL     1      46.553   7.913  13.348  0.00  0.00    +0.000 HD
BRANCH  19  22
ATOM     21  C   UNL     1      49.011   8.830  12.767  0.00  0.00    +0.000 C 
ATOM     22  C   UNL     1      48.283   8.711  14.109  0.00  0.00    +0.000 C 
BRANCH  22  23
ATOM     23  C   UNL     1      49.278   8.538  15.287  0.00  0.00    +0.000 C 
ATOM     24  O   UNL     1      50.492   8.506  15.079  0.00  0.00    +0.000 OA
BRANCH  23  25
ATOM     25  C   UNL     1      48.771   8.394  16.663  0.00  0.00    +0.000 A 
ATOM     26  C   UNL     1      48.234   9.430  17.407  0.00  0.00    +0.000 A 
ATOM     27  S   UNL     1      47.514   8.912  18.869  0.00  0.00    +0.000 S 
ATOM     28  C   UNL     1      47.948   7.294  18.576  0.00  0.00    +0.000 A 
ATOM     29  N   UNL     1      47.584   6.298  19.427  0.00  0.00    +0.000 NA
ATOM     30  C   UNL     1      47.976   5.121  19.064  0.00  0.00    +0.000 A 
ATOM     31  N   UNL     1      48.731   4.856  17.948  0.00  0.00    +0.000 N 
ATOM     32  C   UNL     1      49.239   5.852  17.140  0.00  0.00    +0.000 A 
ATOM     33  O   UNL     1      50.148   5.625  16.346  0.00  0.00    +0.000 OA
ATOM     34  C   UNL     1      48.691   7.165  17.416  0.00  0.00    +0.000 A 
ATOM     35  H   UNL     1      49.095   3.932  17.781  0.00  0.00    +0.000 HD
ENDBRANCH  23  25
ENDBRANCH  22  23
ENDBRANCH  19  22
ENDBRANCH   1  19
TORSDOF 10
ENDMDL
MODEL 6
REMARK VINA RESULT:    -7.615      2.299      2.885
REMARK INTER + INTRA:         -12.183
REMARK INTER:                 -10.871
REMARK INTRA:                  -1.312
REMARK UNBOUND:                -0.561
REMARK  Name = 
REMARK  11 active torsions:
REMARK  status: ('A' for Active; 'I' for Inactive)
REMARK    1  A    between atoms: C_1  and  C_2
REMARK    2  A    between atoms: C_2  and  N_3
REMARK    3  A    between atoms: C_2  and  C_20
REMARK    4  A    between atoms: N_3  and  C_4
REMARK    5  A    between atoms: C_4  and  C_5
REMARK    6  A    between atoms: C_8  and  C_9
REMARK    7  A    between atoms: C_9  and  O_10
REMARK    8  A    between atoms: C_9  and  C_11
REMARK    9  A    between atoms: C_11  and  N_12
REMARK   10  A    between atoms: C_15  and  O_16
REMARK   11  A    between atoms: C_20  and  C_22
REMARK                            x       y       z     vdW  Elec       q    Type
REMARK                         _______ _______ _______ _____ _____    ______ ____
ROOT
ATOM      1  C   UNL     1      49.159   7.233  13.995  0.00  0.00    +0.000 C 
ENDROOT
BRANCH   1   2
ATOM      2  C   UNL     1      47.742   6.803  13.665  0.00  0.00    +0.000 A 
ATOM      3  C   UNL     1      47.303   5.503  13.955  0.00  0.00    +0.000 A 
ATOM      4  C   UNL     1      46.010   5.089  13.606  0.00  0.00    +0.000 A 
ATOM      5  C   UNL     1      45.118   5.955  12.951  0.00  0.00    +0.000 A 
ATOM      6  C   UNL     1      45.562   7.254  12.664  0.00  0.00    +0.000 A 
ATOM      7  C   UNL     1      46.855   7.672  13.016  0.00  0.00    +0.000 A 
BRANCH   5   8
ATOM      8  C   UNL     1      43.784   5.404  12.455  0.00  0.00    +0.000 C 
BRANCH   8   9
ATOM      9  O   UNL     1      42.818   5.663  13.485  0.00  0.00    +0.000 OA
ATOM     10  H   UNL     1      42.004   5.979  13.055  0.00  0.00    +0.000 HD
ENDBRANCH   8   9
BRANCH   8  11
ATOM     11  C   UNL     1      43.770   3.888  12.086  0.00  0.00    +0.000 C 
BRANCH  11  12
ATOM     12  N   UNL     1      44.533   3.504  10.873  0.00  0.00    +0.000 NA
ATOM     13  C   UNL     1      44.484   4.520   9.807  0.00  0.00    +0.000 C 
ATOM     14  C   UNL     1      44.634   3.757   8.487  0.00  0.00    +0.000 C 
ATOM     15  C   UNL     1      44.640   2.289   8.880  0.00  0.00    +0.000 C 
ATOM     16  C   UNL     1      43.984   2.281  10.258  0.00  0.00    +0.000 C 
BRANCH  15  17
ATOM     17  O   UNL     1      45.990   1.829   8.972  0.00  0.00    +0.000 OA
ATOM     18  H   UNL     1      46.527   2.636   9.094  0.00  0.00    +0.000 HD
ENDBRANCH  15  17
ENDBRANCH  11  12
ENDBRANCH   8  11
ENDBRANCH   5   8
ENDBRANCH   1   2
BRANCH   1  19
ATOM     19  N   UNL     1      49.602   6.602  15.241  0.00  0.00    +0.000 NA
ATOM     20  H   UNL     1      49.047   5.757  15.382  0.00  0.00    +0.000 HD
BRANCH  19  22
ATOM     21  C   UNL     1      50.738   8.315  16.674  0.00  0.00    +0.000 C 
ATOM     22  C   UNL     1      49.495   7.448  16.456  0.00  0.00    +0.000 C 
BRANCH  22  23
ATOM     23  C   UNL     1      49.126   6.645  17.731  0.00  0.00    +0.000 C 
ATOM     24  O   UNL     1      49.099   7.199  18.831  0.00  0.00    +0.000 OA
BRANCH  23  25
ATOM     25  C   UNL     1      48.822   5.207  17.632  0.00  0.00    +0.000 A 
ATOM     26  C   UNL     1      47.554   4.692  17.426  0.00  0.00    +0.000 A 
ATOM     27  S   UNL     1      47.547   3.010  17.117  0.00  0.00    +0.000 S 
ATOM     28  C   UNL     1      49.234   2.911  17.303  0.00  0.00    +0.000 A 
ATOM     29  N   UNL     1      49.900   1.741  17.114  0.00  0.00    +0.000 NA
ATOM     30  C   UNL     1      51.179   1.827  17.280  0.00  0.00    +0.000 A 
ATOM     31  N   UNL     1      51.847   2.967  17.654  0.00  0.00    +0.000 N 
ATOM     32  C   UNL     1      51.194   4.134  17.993  0.00  0.00    +0.000 A 
ATOM     33  O   UNL     1      51.767   5.027  18.609  0.00  0.00    +0.000 OA
ATOM     34  C   UNL     1      49.781   4.129  17.665  0.00  0.00    +0.000 A 
ATOM     35  H   UNL     1      52.830   2.939  17.872  0.00  0.00    +0.000 HD
ENDBRANCH  23  25
ENDBRANCH  22  23
ENDBRANCH  19  22
ENDBRANCH   1  19
TORSDOF 10
ENDMDL
MODEL 7
REMARK VINA RESULT:    -7.463      1.978      2.664
REMARK INTER + INTRA:         -11.951
REMARK INTER:                 -10.732
REMARK INTRA:                  -1.218
REMARK UNBOUND:                -0.561
REMARK  Name = 
REMARK  11 active torsions:
REMARK  status: ('A' for Active; 'I' for Inactive)
REMARK    1  A    between atoms: C_1  and  C_2
REMARK    2  A    between atoms: C_2  and  N_3
REMARK    3  A    between atoms: C_2  and  C_20
REMARK    4  A    between atoms: N_3  and  C_4
REMARK    5  A    between atoms: C_4  and  C_5
REMARK    6  A    between atoms: C_8  and  C_9
REMARK    7  A    between atoms: C_9  and  O_10
REMARK    8  A    between atoms: C_9  and  C_11
REMARK    9  A    between atoms: C_11  and  N_12
REMARK   10  A    between atoms: C_15  and  O_16
REMARK   11  A    between atoms: C_20  and  C_22
REMARK                            x       y       z     vdW  Elec       q    Type
REMARK                         _______ _______ _______ _____ _____    ______ ____
ROOT
ATOM      1  C   UNL     1      48.023   5.919  14.381  0.00  0.00    +0.000 C 
ENDROOT
BRANCH   1   2
ATOM      2  C   UNL     1      47.023   5.391  13.369  0.00  0.00    +0.000 A 
ATOM      3  C   UNL     1      46.564   4.068  13.440  0.00  0.00    +0.000 A 
ATOM      4  C   UNL     1      45.679   3.565  12.477  0.00  0.00    +0.000 A 
ATOM      5  C   UNL     1      45.229   4.361  11.411  0.00  0.00    +0.000 A 
ATOM      6  C   UNL     1      45.691   5.684  11.345  0.00  0.00    +0.000 A 
ATOM      7  C   UNL     1      46.574   6.191  12.310  0.00  0.00    +0.000 A 
BRANCH   5   8
ATOM      8  C   UNL     1      44.394   3.717  10.308  0.00  0.00    +0.000 C 
BRANCH   8   9
ATOM      9  O   UNL     1      43.084   3.495  10.854  0.00  0.00    +0.000 OA
ATOM     10  H   UNL     1      43.149   3.573  11.821  0.00  0.00    +0.000 HD
ENDBRANCH   8   9
BRANCH   8  11
ATOM     11  C   UNL     1      44.956   2.385   9.721  0.00  0.00    +0.000 C 
BRANCH  11  12
ATOM     12  N   UNL     1      46.003   2.521   8.678  0.00  0.00    +0.000 NA
ATOM     13  C   UNL     1      45.663   3.504   7.634  0.00  0.00    +0.000 C 
ATOM     14  C   UNL     1      46.376   3.035   6.362  0.00  0.00    +0.000 C 
ATOM     15  C   UNL     1      47.007   1.702   6.734  0.00  0.00    +0.000 C 
ATOM     16  C   UNL     1      46.209   1.253   7.955  0.00  0.00    +0.000 C 
BRANCH  15  17
ATOM     17  O   UNL     1      48.376   1.908   7.086  0.00  0.00    +0.000 OA
ATOM     18  H   UNL     1      48.352   2.425   7.915  0.00  0.00    +0.000 HD
ENDBRANCH  15  17
ENDBRANCH  11  12
ENDBRANCH   8  11
ENDBRANCH   5   8
ENDBRANCH   1   2
BRANCH   1  19
ATOM     19  N   UNL     1      47.506   5.747  15.741  0.00  0.00    +0.000 NA
ATOM     20  H   UNL     1      47.563   6.647  16.217  0.00  0.00    +0.000 HD
BRANCH  19  22
ATOM     21  C   UNL     1      47.279   3.588  16.993  0.00  0.00    +0.000 C 
ATOM     22  C   UNL     1      48.206   4.730  16.564  0.00  0.00    +0.000 C 
BRANCH  22  23
ATOM     23  C   UNL     1      48.963   5.337  17.774  0.00  0.00    +0.000 C 
ATOM     24  O   UNL     1      48.342   5.863  18.700  0.00  0.00    +0.000 OA
BRANCH  23  25
ATOM     25  C   UNL     1      50.436   5.301  17.813  0.00  0.00    +0.000 A 
ATOM     26  C   UNL     1      51.172   4.458  18.627  0.00  0.00    +0.000 A 
ATOM     27  S   UNL     1      52.846   4.473  18.281  0.00  0.00    +0.000 S 
ATOM     28  C   UNL     1      52.643   5.648  17.069  0.00  0.00    +0.000 A 
ATOM     29  N   UNL     1      53.691   6.083  16.320  0.00  0.00    +0.000 NA
ATOM     30  C   UNL     1      53.377   6.967  15.431  0.00  0.00    +0.000 A 
ATOM     31  N   UNL     1      52.118   7.484  15.250  0.00  0.00    +0.000 N 
ATOM     32  C   UNL     1      51.061   7.176  16.081  0.00  0.00    +0.000 A 
ATOM     33  O   UNL     1      50.045   7.864  16.099  0.00  0.00    +0.000 OA
ATOM     34  C   UNL     1      51.328   6.071  16.981  0.00  0.00    +0.000 A 
ATOM     35  H   UNL     1      51.963   8.250  14.614  0.00  0.00    +0.000 HD
ENDBRANCH  23  25
ENDBRANCH  22  23
ENDBRANCH  19  22
ENDBRANCH   1  19
TORSDOF 10
ENDMDL
MODEL 8
REMARK VINA RESULT:    -7.250      3.367      4.246
REMARK INTER + INTRA:         -11.626
REMARK INTER:                  -9.997
REMARK INTRA:                  -1.628
REMARK UNBOUND:                -0.561
REMARK  Name = 
REMARK  11 active torsions:
REMARK  status: ('A' for Active; 'I' for Inactive)
REMARK    1  A    between atoms: C_1  and  C_2
REMARK    2  A    between atoms: C_2  and  N_3
REMARK    3  A    between atoms: C_2  and  C_20
REMARK    4  A    between atoms: N_3  and  C_4
REMARK    5  A    between atoms: C_4  and  C_5
REMARK    6  A    between atoms: C_8  and  C_9
REMARK    7  A    between atoms: C_9  and  O_10
REMARK    8  A    between atoms: C_9  and  C_11
REMARK    9  A    between atoms: C_11  and  N_12
REMARK   10  A    between atoms: C_15  and  O_16
REMARK   11  A    between atoms: C_20  and  C_22
REMARK                            x       y       z     vdW  Elec       q    Type
REMARK                         _______ _______ _______ _____ _____    ______ ____
ROOT
ATOM      1  C   UNL     1      49.101   8.750  13.514  0.00  0.00    +0.000 C 
ENDROOT
BRANCH   1   2
ATOM      2  C   UNL     1      47.790   8.311  12.889  0.00  0.00    +0.000 A 
ATOM      3  C   UNL     1      46.584   8.926  13.252  0.00  0.00    +0.000 A 
ATOM      4  C   UNL     1      45.366   8.488  12.714  0.00  0.00    +0.000 A 
ATOM      5  C   UNL     1      45.313   7.421  11.802  0.00  0.00    +0.000 A 
ATOM      6  C   UNL     1      46.522   6.809  11.442  0.00  0.00    +0.000 A 
ATOM      7  C   UNL     1      47.743   7.249  11.978  0.00  0.00    +0.000 A 
BRANCH   5   8
ATOM      8  C   UNL     1      43.950   6.886  11.371  0.00  0.00    +0.000 C 
BRANCH   8   9
ATOM      9  O   UNL     1      43.153   8.023  11.007  0.00  0.00    +0.000 OA
ATOM     10  H   UNL     1      43.668   8.558  10.379  0.00  0.00    +0.000 HD
ENDBRANCH   8   9
BRANCH   8  11
ATOM     11  C   UNL     1      43.193   6.024  12.428  0.00  0.00    +0.000 C 
BRANCH  11  12
ATOM     12  N   UNL     1      43.413   4.558  12.356  0.00  0.00    +0.000 NA
ATOM     13  C   UNL     1      44.712   4.136  12.911  0.00  0.00    +0.000 C 
ATOM     14  C   UNL     1      45.101   2.861  12.157  0.00  0.00    +0.000 C 
ATOM     15  C   UNL     1      44.025   2.688  11.097  0.00  0.00    +0.000 C 
ATOM     16  C   UNL     1      43.425   4.084  10.959  0.00  0.00    +0.000 C 
BRANCH  15  17
ATOM     17  O   UNL     1      43.038   1.769  11.568  0.00  0.00    +0.000 OA
ATOM     18  H   UNL     1      43.478   1.265  12.280  0.00  0.00    +0.000 HD
ENDBRANCH  15  17
ENDBRANCH  11  12
ENDBRANCH   8  11
ENDBRANCH   5   8
ENDBRANCH   1   2
BRANCH   1  19
ATOM     19  N   UNL     1      49.740   7.622  14.197  0.00  0.00    +0.000 NA
ATOM     20  H   UNL     1      49.043   6.884  14.308  0.00  0.00    +0.000 HD
BRANCH  19  22
ATOM     21  C   UNL     1      51.652   7.214  15.764  0.00  0.00    +0.000 C 
ATOM     22  C   UNL     1      50.319   7.929  15.529  0.00  0.00    +0.000 C 
BRANCH  22  23
ATOM     23  C   UNL     1      49.328   7.692  16.698  0.00  0.00    +0.000 C 
ATOM     24  O   UNL     1      48.478   8.541  16.978  0.00  0.00    +0.000 OA
BRANCH  23  25
ATOM     25  C   UNL     1      49.409   6.453  17.491  0.00  0.00    +0.000 A 
ATOM     26  C   UNL     1      50.164   6.314  18.642  0.00  0.00    +0.000 A 
ATOM     27  S   UNL     1      49.872   4.847  19.471  0.00  0.00    +0.000 S 
ATOM     28  C   UNL     1      48.768   4.331  18.286  0.00  0.00    +0.000 A 
ATOM     29  N   UNL     1      48.096   3.155  18.408  0.00  0.00    +0.000 NA
ATOM     30  C   UNL     1      47.283   2.906  17.434  0.00  0.00    +0.000 A 
ATOM     31  N   UNL     1      47.112   3.706  16.332  0.00  0.00    +0.000 N 
ATOM     32  C   UNL     1      47.877   4.831  16.102  0.00  0.00    +0.000 A 
ATOM     33  O   UNL     1      47.928   5.349  14.991  0.00  0.00    +0.000 OA
ATOM     34  C   UNL     1      48.680   5.233  17.241  0.00  0.00    +0.000 A 
ATOM     35  H   UNL     1      46.545   3.400  15.557  0.00  0.00    +0.000 HD
ENDBRANCH  23  25
ENDBRANCH  22  23
ENDBRANCH  19  22
ENDBRANCH   1  19
TORSDOF 10
ENDMDL
MODEL 9
REMARK VINA RESULT:    -7.221      2.847      3.488
REMARK INTER + INTRA:         -11.581
REMARK INTER:                 -10.318
REMARK INTRA:                  -1.263
REMARK UNBOUND:                -0.561
REMARK  Name = 
REMARK  11 active torsions:
REMARK  status: ('A' for Active; 'I' for Inactive)
REMARK    1  A    between atoms: C_1  and  C_2
REMARK    2  A    between atoms: C_2  and  N_3
REMARK    3  A    between atoms: C_2  and  C_20
REMARK    4  A    between atoms: N_3  and  C_4
REMARK    5  A    between atoms: C_4  and  C_5
REMARK    6  A    between atoms: C_8  and  C_9
REMARK    7  A    between atoms: C_9  and  O_10
REMARK    8  A    between atoms: C_9  and  C_11
REMARK    9  A    between atoms: C_11  and  N_12
REMARK   10  A    between atoms: C_15  and  O_16
REMARK   11  A    between atoms: C_20  and  C_22
REMARK                            x       y       z     vdW  Elec       q    Type
REMARK                         _______ _______ _______ _____ _____    ______ ____
ROOT
ATOM      1  C   UNL     1      48.639   7.608  13.396  0.00  0.00    +0.000 C 
ENDROOT
BRANCH   1   2
ATOM      2  C   UNL     1      47.475   6.680  13.102  0.00  0.00    +0.000 A 
ATOM      3  C   UNL     1      47.299   5.500  13.837  0.00  0.00    +0.000 A 
ATOM      4  C   UNL     1      46.253   4.617  13.534  0.00  0.00    +0.000 A 
ATOM      5  C   UNL     1      45.355   4.881  12.486  0.00  0.00    +0.000 A 
ATOM      6  C   UNL     1      45.536   6.064  11.755  0.00  0.00    +0.000 A 
ATOM      7  C   UNL     1      46.581   6.951  12.059  0.00  0.00    +0.000 A 
BRANCH   5   8
ATOM      8  C   UNL     1      44.336   3.813  12.100  0.00  0.00    +0.000 C 
BRANCH   8   9
ATOM      9  O   UNL     1      44.886   2.548  12.500  0.00  0.00    +0.000 OA
ATOM     10  H   UNL     1      44.209   1.868  12.346  0.00  0.00    +0.000 HD
ENDBRANCH   8   9
BRANCH   8  11
ATOM     11  C   UNL     1      43.940   3.765  10.592  0.00  0.00    +0.000 C 
BRANCH  11  12
ATOM     12  N   UNL     1      44.994   3.306   9.654  0.00  0.00    +0.000 NA
ATOM     13  C   UNL     1      45.438   4.354   8.717  0.00  0.00    +0.000 C 
ATOM     14  C   UNL     1      45.901   3.625   7.453  0.00  0.00    +0.000 C 
ATOM     15  C   UNL     1      45.572   2.161   7.701  0.00  0.00    +0.000 C 
ATOM     16  C   UNL     1      44.509   2.209   8.795  0.00  0.00    +0.000 C 
BRANCH  15  17
ATOM     17  O   UNL     1      46.740   1.487   8.175  0.00  0.00    +0.000 OA
ATOM     18  H   UNL     1      46.764   1.663   9.136  0.00  0.00    +0.000 HD
ENDBRANCH  15  17
ENDBRANCH  11  12
ENDBRANCH   8  11
ENDBRANCH   5   8
ENDBRANCH   1   2
BRANCH   1  19
ATOM     19  N   UNL     1      49.659   6.908  14.182  0.00  0.00    +0.000 NA
ATOM     20  H   UNL     1      49.184   6.251  14.802  0.00  0.00    +0.000 HD
BRANCH  19  22
ATOM     21  C   UNL     1      51.653   8.425  14.166  0.00  0.00    +0.000 C 
ATOM     22  C   UNL     1      50.542   7.777  14.998  0.00  0.00    +0.000 C 
BRANCH  22  23
ATOM     23  C   UNL     1      51.109   7.066  16.255  0.00  0.00    +0.000 C 
ATOM     24  O   UNL     1      52.151   6.412  16.186  0.00  0.00    +0.000 OA
BRANCH  23  25
ATOM     25  C   UNL     1      50.391   7.158  17.538  0.00  0.00    +0.000 A 
ATOM     26  C   UNL     1      50.735   8.024  18.562  0.00  0.00    +0.000 A 
ATOM     27  S   UNL     1      49.581   8.074  19.823  0.00  0.00    +0.000 S 
ATOM     28  C   UNL     1      48.614   6.900  19.063  0.00  0.00    +0.000 A 
ATOM     29  N   UNL     1      47.425   6.510  19.593  0.00  0.00    +0.000 NA
ATOM     30  C   UNL     1      46.800   5.619  18.895  0.00  0.00    +0.000 A 
ATOM     31  N   UNL     1      47.275   5.056  17.737  0.00  0.00    +0.000 N 
ATOM     32  C   UNL     1      48.537   5.319  17.244  0.00  0.00    +0.000 A 
ATOM     33  O   UNL     1      49.055   4.592  16.402  0.00  0.00    +0.000 OA
ATOM     34  C   UNL     1      49.201   6.427  17.902  0.00  0.00    +0.000 A 
ATOM     35  H   UNL     1      46.789   4.289  17.301  0.00  0.00    +0.000 HD
ENDBRANCH  23  25
ENDBRANCH  22  23
ENDBRANCH  19  22
ENDBRANCH   1  19
TORSDOF 10
ENDMDL
