MODEL 1
REMARK VINA RESULT:    -6.281      0.000      0.000
REMARK INTER + INTRA:          -8.036
REMARK INTER:                  -7.750
REMARK INTRA:                  -0.286
REMARK UNBOUND:                -0.286
REMARK  Name = 
REMARK  6 active torsions:
REMARK  status: ('A' for Active; 'I' for Inactive)
REMARK    1  A    between atoms: C_1  and  N_2
REMARK    2  A    between atoms: N_2  and  C_3
REMARK    3  A    between atoms: N_2  and  C_4
REMARK    4  A    between atoms: C_4  and  C_5
REMARK    5  A    between atoms: C_9  and  C_10
REMARK    6  A    between atoms: C_11  and  C_12
REMARK                            x       y       z     vdW  Elec       q    Type
REMARK                         _______ _______ _______ _____ _____    ______ ____
ROOT
ATOM      1  C   UNL     1      44.377   3.829  10.255  0.00  0.00    +0.000 A 
ATOM      2  N   UNL     1      43.500   2.952  10.807  0.00  0.00    +0.000 NA
ATOM      3  C   UNL     1      43.480   2.897  12.149  0.00  0.00    +0.000 A 
ATOM      4  N   UNL     1      44.222   3.639  12.982  0.00  0.00    +0.000 NA
ATOM      5  C   UNL     1      45.089   4.501  12.400  0.00  0.00    +0.000 A 
ATOM      6  C   UNL     1      45.223   4.604  11.027  0.00  0.00    +0.000 A 
ATOM      7  F   UNL     1      46.102   5.446  10.463  0.00  0.00    +0.000 F 
ENDROOT
BRANCH   5   8
ATOM      8  C   UNL     1      45.850   5.392  13.290  0.00  0.00    +0.000 C 
ATOM      9  C   UNL     1      47.163   5.246  13.547  0.00  0.00    +0.000 C 
BRANCH   9  10
ATOM     10  C   UNL     1      47.918   6.090  14.481  0.00  0.00    +0.000 A 
ATOM     11  C   UNL     1      48.137   7.422  14.181  0.00  0.00    +0.000 A 
ATOM     12  C   UNL     1      48.851   8.141  15.111  0.00  0.00    +0.000 A 
ATOM     13  N   UNL     1      49.330   7.612  16.250  0.00  0.00    +0.000 NA
ATOM     14  C   UNL     1      49.071   6.309  16.439  0.00  0.00    +0.000 A 
ATOM     15  N   UNL     1      48.382   5.512  15.606  0.00  0.00    +0.000 NA
ENDBRANCH   9  10
ENDBRANCH   5   8
BRANCH   1  16
ATOM     16  C   UNL     1      44.354   3.997   8.748  0.00  0.00    +0.000 C 
BRANCH  16  18
ATOM     17  C   UNL     1      46.457   3.918   7.507  0.00  0.00    +0.000 C 
ATOM     18  N   UNL     1      45.282   3.177   7.949  0.00  0.00    +0.000 NA
ATOM     19  C   UNL     1      45.653   1.936   8.622  0.00  0.00    +0.000 C 
ENDBRANCH  16  18
ENDBRANCH   1  16
TORSDOF 4
ENDMDL
MODEL 2
REMARK VINA RESULT:    -6.217      2.166      2.929
REMARK INTER + INTRA:          -7.957
REMARK INTER:                  -7.552
REMARK INTRA:                  -0.406
REMARK UNBOUND:                -0.286
REMARK  Name = 
REMARK  6 active torsions:
REMARK  status: ('A' for Active; 'I' for Inactive)
REMARK    1  A    between atoms: C_1  and  N_2
REMARK    2  A    between atoms: N_2  and  C_3
REMARK    3  A    between atoms: N_2  and  C_4
REMARK    4  A    between atoms: C_4  and  C_5
REMARK    5  A    between atoms: C_9  and  C_10
REMARK    6  A    between atoms: C_11  and  C_12
REMARK                            x       y       z     vdW  Elec       q    Type
REMARK                         _______ _______ _______ _____ _____    ______ ____
ROOT
ATOM      1  C   UNL     1      44.664   4.359  11.288  0.00  0.00    +0.000 A 
ATOM      2  N   UNL     1      44.152   5.598  11.078  0.00  0.00    +0.000 NA
ATOM      3  C   UNL     1      44.554   6.560  11.924  0.00  0.00    +0.000 A 
ATOM      4  N   UNL     1      45.426   6.413  12.932  0.00  0.00    +0.000 NA
ATOM      5  C   UNL     1      45.915   5.164  13.119  0.00  0.00    +0.000 A 
ATOM      6  C   UNL     1      45.531   4.092  12.332  0.00  0.00    +0.000 A 
ATOM      7  F   UNL     1      46.008   2.855  12.541  0.00  0.00    +0.000 F 
ENDROOT
BRANCH   5   8
ATOM      8  C   UNL     1      46.942   4.994  14.158  0.00  0.00    +0.000 C 
ATOM      9  C   UNL     1      46.742   4.307  15.298  0.00  0.00    +0.000 C 
BRANCH   9  10
ATOM     10  C   UNL     1      47.737   4.183  16.370  0.00  0.00    +0.000 A 
ATOM     11  C   UNL     1      47.575   3.222  17.351  0.00  0.00    +0.000 A 
ATOM     12  C   UNL     1      48.554   3.171  18.315  0.00  0.00    +0.000 A 
ATOM     13  N   UNL     1      49.614   3.997  18.341  0.00  0.00    +0.000 NA
ATOM     14  C   UNL     1      49.670   4.900  17.349  0.00  0.00    +0.000 A 
ATOM     15  N   UNL     1      48.779   5.037  16.355  0.00  0.00    +0.000 NA
ENDBRANCH   9  10
ENDBRANCH   5   8
BRANCH   1  16
ATOM     16  C   UNL     1      44.317   3.271  10.291  0.00  0.00    +0.000 C 
BRANCH  16  18
ATOM     17  C   UNL     1      45.304   1.592   8.817  0.00  0.00    +0.000 C 
ATOM     18  N   UNL     1      45.279   2.996   9.209  0.00  0.00    +0.000 NA
ATOM     19  C   UNL     1      45.091   3.871   8.057  0.00  0.00    +0.000 C 
ENDBRANCH  16  18
ENDBRANCH   1  16
TORSDOF 4
ENDMDL
MODEL 3
REMARK VINA RESULT:    -5.889      2.879      6.844
REMARK INTER + INTRA:          -7.552
REMARK INTER:                  -7.326
REMARK INTRA:                  -0.226
REMARK UNBOUND:                -0.286
REMARK  Name = 
REMARK  6 active torsions:
REMARK  status: ('A' for Active; 'I' for Inactive)
REMARK    1  A    between atoms: C_1  and  N_2
REMARK    2  A    between atoms: N_2  and  C_3
REMARK    3  A    between atoms: N_2  and  C_4
REMARK    4  A    between atoms: C_4  and  C_5
REMARK    5  A    between atoms: C_9  and  C_10
REMARK    6  A    between atoms: C_11  and  C_12
REMARK                            x       y       z     vdW  Elec       q    Type
REMARK                         _______ _______ _______ _____ _____    ______ ____
ROOT
ATOM      1  C   UNL     1      44.445   6.259  12.089  0.00  0.00    +0.000 A 
ATOM      2  N   UNL     1      43.309   5.843  12.703  0.00  0.00    +0.000 NA
ATOM      3  C   UNL     1      42.640   4.846  12.102  0.00  0.00    +0.000 A 
ATOM      4  N   UNL     1      43.003   4.214  10.977  0.00  0.00    +0.000 NA
ATOM      5  C   UNL     1      44.139   4.655  10.387  0.00  0.00    +0.000 A 
ATOM      6  C   UNL     1      44.879   5.707  10.897  0.00  0.00    +0.000 A 
ATOM      7  F   UNL     1      45.991   6.149  10.290  0.00  0.00    +0.000 F 
ENDROOT
BRANCH   5   8
ATOM      8  C   UNL     1      44.609   3.920   9.202  0.00  0.00    +0.000 C 
ATOM      9  C   UNL     1      45.834   3.372   9.104  0.00  0.00    +0.000 C 
BRANCH   9  10
ATOM     10  C   UNL     1      46.338   2.692   7.904  0.00  0.00    +0.000 A 
ATOM     11  C   UNL     1      46.530   3.407   6.737  0.00  0.00    +0.000 A 
ATOM     12  C   UNL     1      47.007   2.693   5.662  0.00  0.00    +0.000 A 
ATOM     13  N   UNL     1      47.272   1.376   5.704  0.00  0.00    +0.000 NA
ATOM     14  C   UNL     1      47.041   0.775   6.882  0.00  0.00    +0.000 A 
ATOM     15  N   UNL     1      46.584   1.370   7.996  0.00  0.00    +0.000 NA
ENDBRANCH   9  10
ENDBRANCH   5   8
BRANCH   1  16
ATOM     16  C   UNL     1      45.284   7.310  12.790  0.00  0.00    +0.000 C 
BRANCH  16  18
ATOM     17  C   UNL     1      44.612   9.330  11.591  0.00  0.00    +0.000 C 
ATOM     18  N   UNL     1      45.721   8.479  12.007  0.00  0.00    +0.000 NA
ATOM     19  C   UNL     1      46.762   9.247  12.682  0.00  0.00    +0.000 C 
ENDBRANCH  16  18
ENDBRANCH   1  16
TORSDOF 4
ENDMDL
MODEL 4
REMARK VINA RESULT:    -5.782      1.973      2.421
REMARK INTER + INTRA:          -7.421
REMARK INTER:                  -6.991
REMARK INTRA:                  -0.429
REMARK UNBOUND:                -0.286
REMARK  Name = 
REMARK  6 active torsions:
REMARK  status: ('A' for Active; 'I' for Inactive)
REMARK    1  A    between atoms: C_1  and  N_2
REMARK    2  A    between atoms: N_2  and  C_3
REMARK    3  A    between atoms: N_2  and  C_4
REMARK    4  A    between atoms: C_4  and  C_5
REMARK    5  A    between atoms: C_9  and  C_10
REMARK    6  A    between atoms: C_11  and  C_12
REMARK                            x       y       z     vdW  Elec       q    Type
REMARK                         _______ _______ _______ _____ _____    ______ ____
ROOT
ATOM      1  C   UNL     1      44.696   3.780   9.432  0.00  0.00    +0.000 A 
ATOM      2  N   UNL     1      43.783   3.111  10.182  0.00  0.00    +0.000 NA
ATOM      3  C   UNL     1      43.557   3.593  11.414  0.00  0.00    +0.000 A 
ATOM      4  N   UNL     1      44.127   4.679  11.955  0.00  0.00    +0.000 NA
ATOM      5  C   UNL     1      45.036   5.322  11.185  0.00  0.00    +0.000 A 
ATOM      6  C   UNL     1      45.377   4.882   9.917  0.00  0.00    +0.000 A 
ATOM      7  F   UNL     1      46.295   5.515   9.172  0.00  0.00    +0.000 F 
ENDROOT
BRANCH   5   8
ATOM      8  C   UNL     1      45.609   6.568  11.718  0.00  0.00    +0.000 C 
ATOM      9  C   UNL     1      46.859   6.663  12.206  0.00  0.00    +0.000 C 
BRANCH   9  10
ATOM     10  C   UNL     1      47.421   7.884  12.798  0.00  0.00    +0.000 A 
ATOM     11  C   UNL     1      47.990   7.838  14.056  0.00  0.00    +0.000 A 
ATOM     12  C   UNL     1      48.495   9.025  14.535  0.00  0.00    +0.000 A 
ATOM     13  N   UNL     1      48.446  10.182  13.852  0.00  0.00    +0.000 NA
ATOM     14  C   UNL     1      47.863  10.118  12.644  0.00  0.00    +0.000 A 
ATOM     15  N   UNL     1      47.343   9.019  12.075  0.00  0.00    +0.000 NA
ENDBRANCH   9  10
ENDBRANCH   5   8
BRANCH   1  16
ATOM     16  C   UNL     1      44.900   3.330   7.999  0.00  0.00    +0.000 C 
BRANCH  16  18
ATOM     17  C   UNL     1      46.375   1.382   8.001  0.00  0.00    +0.000 C 
ATOM     18  N   UNL     1      46.218   2.783   7.629  0.00  0.00    +0.000 NA
ATOM     19  C   UNL     1      46.541   3.004   6.223  0.00  0.00    +0.000 C 
ENDBRANCH  16  18
ENDBRANCH   1  16
TORSDOF 4
ENDMDL
MODEL 5
REMARK VINA RESULT:    -5.747      2.473      3.217
REMARK INTER + INTRA:          -7.377
REMARK INTER:                  -7.329
REMARK INTRA:                  -0.048
REMARK UNBOUND:                -0.286
REMARK  Name = 
REMARK  6 active torsions:
REMARK  status: ('A' for Active; 'I' for Inactive)
REMARK    1  A    between atoms: C_1  and  N_2
REMARK    2  A    between atoms: N_2  and  C_3
REMARK    3  A    between atoms: N_2  and  C_4
REMARK    4  A    between atoms: C_4  and  C_5
REMARK    5  A    between atoms: C_9  and  C_10
REMARK    6  A    between atoms: C_11  and  C_12
REMARK                            x       y       z     vdW  Elec       q    Type
REMARK                         _______ _______ _______ _____ _____    ______ ____
ROOT
ATOM      1  C   UNL     1      44.478   5.597  11.485  0.00  0.00    +0.000 A 
ATOM      2  N   UNL     1      44.447   6.940  11.288  0.00  0.00    +0.000 NA
ATOM      3  C   UNL     1      45.274   7.672  12.051  0.00  0.00    +0.000 A 
ATOM      4  N   UNL     1      46.138   7.199  12.960  0.00  0.00    +0.000 NA
ATOM      5  C   UNL     1      46.143   5.857  13.135  0.00  0.00    +0.000 A 
ATOM      6  C   UNL     1      45.298   5.014  12.435  0.00  0.00    +0.000 A 
ATOM      7  F   UNL     1      45.297   3.688  12.633  0.00  0.00    +0.000 F 
ENDROOT
BRANCH   5   8
ATOM      8  C   UNL     1      47.145   5.303  14.060  0.00  0.00    +0.000 C 
ATOM      9  C   UNL     1      46.872   4.351  14.971  0.00  0.00    +0.000 C 
BRANCH   9  10
ATOM     10  C   UNL     1      47.847   3.836  15.940  0.00  0.00    +0.000 A 
ATOM     11  C   UNL     1      48.258   4.633  16.992  0.00  0.00    +0.000 A 
ATOM     12  C   UNL     1      49.170   4.072  17.855  0.00  0.00    +0.000 A 
ATOM     13  N   UNL     1      49.662   2.830  17.711  0.00  0.00    +0.000 NA
ATOM     14  C   UNL     1      49.205   2.144  16.651  0.00  0.00    +0.000 A 
ATOM     15  N   UNL     1      48.314   2.586  15.750  0.00  0.00    +0.000 NA
ENDBRANCH   9  10
ENDBRANCH   5   8
BRANCH   1  16
ATOM     16  C   UNL     1      43.636   4.729  10.571  0.00  0.00    +0.000 C 
BRANCH  16  18
ATOM     17  C   UNL     1      45.565   4.714   9.071  0.00  0.00    +0.000 C 
ATOM     18  N   UNL     1      44.306   4.074   9.433  0.00  0.00    +0.000 NA
ATOM     19  C   UNL     1      44.473   2.638   9.633  0.00  0.00    +0.000 C 
ENDBRANCH  16  18
ENDBRANCH   1  16
TORSDOF 4
ENDMDL
MODEL 6
REMARK VINA RESULT:    -5.637      2.585      8.047
REMARK INTER + INTRA:          -7.242
REMARK INTER:                  -6.865
REMARK INTRA:                  -0.377
REMARK UNBOUND:                -0.286
REMARK  Name = 
REMARK  6 active torsions:
REMARK  status: ('A' for Active; 'I' for Inactive)
REMARK    1  A    between atoms: C_1  and  N_2
REMARK    2  A    between atoms: N_2  and  C_3
REMARK    3  A    between atoms: N_2  and  C_4
REMARK    4  A    between atoms: C_4  and  C_5
REMARK    5  A    between atoms: C_9  and  C_10
REMARK    6  A    between atoms: C_11  and  C_12
REMARK                            x       y       z     vdW  Elec       q    Type
REMARK                         _______ _______ _______ _____ _____    ______ ____
ROOT
ATOM      1  C   UNL     1      48.748   5.049  17.308  0.00  0.00    +0.000 A 
ATOM      2  N   UNL     1      49.365   6.202  16.944  0.00  0.00    +0.000 NA
ATOM      3  C   UNL     1      49.117   6.642  15.701  0.00  0.00    +0.000 A 
ATOM      4  N   UNL     1      48.304   6.065  14.805  0.00  0.00    +0.000 NA
ATOM      5  C   UNL     1      47.706   4.915  15.196  0.00  0.00    +0.000 A 
ATOM      6  C   UNL     1      47.929   4.350  16.440  0.00  0.00    +0.000 A 
ATOM      7  F   UNL     1      47.348   3.198  16.807  0.00  0.00    +0.000 F 
ENDROOT
BRANCH   5   8
ATOM      8  C   UNL     1      46.739   4.310  14.267  0.00  0.00    +0.000 C 
ATOM      9  C   UNL     1      46.177   4.975  13.241  0.00  0.00    +0.000 C 
BRANCH   9  10
ATOM     10  C   UNL     1      45.164   4.402  12.346  0.00  0.00    +0.000 A 
ATOM     11  C   UNL     1      45.024   4.893  11.061  0.00  0.00    +0.000 A 
ATOM     12  C   UNL     1      44.054   4.298  10.288  0.00  0.00    +0.000 A 
ATOM     13  N   UNL     1      43.263   3.303  10.725  0.00  0.00    +0.000 NA
ATOM     14  C   UNL     1      43.474   2.908  11.991  0.00  0.00    +0.000 A 
ATOM     15  N   UNL     1      44.393   3.409  12.832  0.00  0.00    +0.000 NA
ENDBRANCH   9  10
ENDBRANCH   5   8
BRANCH   1  16
ATOM     16  C   UNL     1      48.918   4.577  18.739  0.00  0.00    +0.000 C 
BRANCH  16  18
ATOM     17  C   UNL     1      47.319   6.104  19.778  0.00  0.00    +0.000 C 
ATOM     18  N   UNL     1      48.665   5.546  19.819  0.00  0.00    +0.000 NA
ATOM     19  C   UNL     1      48.981   5.008  21.139  0.00  0.00    +0.000 C 
ENDBRANCH  16  18
ENDBRANCH   1  16
TORSDOF 4
ENDMDL
MODEL 7
REMARK VINA RESULT:    -5.442      2.126      7.334
REMARK INTER + INTRA:          -7.001
REMARK INTER:                  -6.552
REMARK INTRA:                  -0.449
REMARK UNBOUND:                -0.286
REMARK  Name = 
REMARK  6 active torsions:
REMARK  status: ('A' for Active; 'I' for Inactive)
REMARK    1  A    between atoms: C_1  and  N_2
REMARK    2  A    between atoms: N_2  and  C_3
REMARK    3  A    between atoms: N_2  and  C_4
REMARK    4  A    between atoms: C_4  and  C_5
REMARK    5  A    between atoms: C_9  and  C_10
REMARK    6  A    between atoms: C_11  and  C_12
REMARK                            x       y       z     vdW  Elec       q    Type
REMARK                         _______ _______ _______ _____ _____    ______ ____
ROOT
ATOM      1  C   UNL     1      48.758   5.654  16.877  0.00  0.00    +0.000 A 
ATOM      2  N   UNL     1      48.404   4.963  17.991  0.00  0.00    +0.000 NA
ATOM      3  C   UNL     1      47.444   4.038  17.837  0.00  0.00    +0.000 A 
ATOM      4  N   UNL     1      46.828   3.720  16.689  0.00  0.00    +0.000 NA
ATOM      5  C   UNL     1      47.201   4.428  15.597  0.00  0.00    +0.000 A 
ATOM      6  C   UNL     1      48.147   5.436  15.655  0.00  0.00    +0.000 A 
ATOM      7  F   UNL     1      48.492   6.145  14.570  0.00  0.00    +0.000 F 
ENDROOT
BRANCH   5   8
ATOM      8  C   UNL     1      46.608   4.037  14.309  0.00  0.00    +0.000 C 
ATOM      9  C   UNL     1      45.593   4.700  13.724  0.00  0.00    +0.000 C 
BRANCH   9  10
ATOM     10  C   UNL     1      44.953   4.284  12.470  0.00  0.00    +0.000 A 
ATOM     11  C   UNL     1      45.237   4.957  11.296  0.00  0.00    +0.000 A 
ATOM     12  C   UNL     1      44.596   4.500  10.168  0.00  0.00    +0.000 A 
ATOM     13  N   UNL     1      43.731   3.471  10.170  0.00  0.00    +0.000 NA
ATOM     14  C   UNL     1      43.518   2.895  11.364  0.00  0.00    +0.000 A 
ATOM     15  N   UNL     1      44.090   3.250  12.525  0.00  0.00    +0.000 NA
ENDBRANCH   9  10
ENDBRANCH   5   8
BRANCH   1  16
ATOM     16  C   UNL     1      49.911   6.632  16.988  0.00  0.00    +0.000 C 
BRANCH  16  18
ATOM     17  C   UNL     1      51.620   7.488  15.466  0.00  0.00    +0.000 C 
ATOM     18  N   UNL     1      51.137   6.340  16.225  0.00  0.00    +0.000 NA
ATOM     19  C   UNL     1      52.191   5.768  17.058  0.00  0.00    +0.000 C 
ENDBRANCH  16  18
ENDBRANCH   1  16
TORSDOF 4
ENDMDL
MODEL 8
REMARK VINA RESULT:    -5.313      3.054      4.228
REMARK INTER + INTRA:          -6.842
REMARK INTER:                  -6.616
REMARK INTRA:                  -0.226
REMARK UNBOUND:                -0.286
REMARK  Name = 
REMARK  6 active torsions:
REMARK  status: ('A' for Active; 'I' for Inactive)
REMARK    1  A    between atoms: C_1  and  N_2
REMARK    2  A    between atoms: N_2  and  C_3
REMARK    3  A    between atoms: N_2  and  C_4
REMARK    4  A    between atoms: C_4  and  C_5
REMARK    5  A    between atoms: C_9  and  C_10
REMARK    6  A    between atoms: C_11  and  C_12
REMARK                            x       y       z     vdW  Elec       q    Type
REMARK                         _______ _______ _______ _____ _____    ______ ____
ROOT
ATOM      1  C   UNL     1      45.059   5.007  12.988  0.00  0.00    +0.000 A 
ATOM      2  N   UNL     1      45.620   3.979  13.674  0.00  0.00    +0.000 NA
ATOM      3  C   UNL     1      46.918   4.113  13.989  0.00  0.00    +0.000 A 
ATOM      4  N   UNL     1      47.695   5.170  13.711  0.00  0.00    +0.000 NA
ATOM      5  C   UNL     1      47.107   6.176  13.022  0.00  0.00    +0.000 A 
ATOM      6  C   UNL     1      45.787   6.120  12.609  0.00  0.00    +0.000 A 
ATOM      7  F   UNL     1      45.223   7.115  11.908  0.00  0.00    +0.000 F 
ENDROOT
BRANCH   5   8
ATOM      8  C   UNL     1      47.910   7.386  12.784  0.00  0.00    +0.000 C 
ATOM      9  C   UNL     1      48.635   7.591  11.669  0.00  0.00    +0.000 C 
BRANCH   9  10
ATOM     10  C   UNL     1      49.489   8.765  11.447  0.00  0.00    +0.000 A 
ATOM     11  C   UNL     1      48.924  10.025  11.389  0.00  0.00    +0.000 A 
ATOM     12  C   UNL     1      49.796  11.069  11.182  0.00  0.00    +0.000 A 
ATOM     13  N   UNL     1      51.122  10.910  11.030  0.00  0.00    +0.000 NA
ATOM     14  C   UNL     1      51.566   9.645  11.093  0.00  0.00    +0.000 A 
ATOM     15  N   UNL     1      50.811   8.553  11.297  0.00  0.00    +0.000 NA
ENDBRANCH   9  10
ENDBRANCH   5   8
BRANCH   1  16
ATOM     16  C   UNL     1      43.570   4.940  12.707  0.00  0.00    +0.000 C 
BRANCH  16  18
ATOM     17  C   UNL     1      43.722   4.610  10.291  0.00  0.00    +0.000 C 
ATOM     18  N   UNL     1      43.123   4.158  11.542  0.00  0.00    +0.000 NA
ATOM     19  C   UNL     1      43.299   2.721  11.731  0.00  0.00    +0.000 C 
ENDBRANCH  16  18
ENDBRANCH   1  16
TORSDOF 4
ENDMDL
MODEL 9
REMARK VINA RESULT:    -5.238      2.772      6.993
REMARK INTER + INTRA:          -6.749
REMARK INTER:                  -6.308
REMARK INTRA:                  -0.441
REMARK UNBOUND:                -0.286
REMARK  Name = 
REMARK  6 active torsions:
REMARK  status: ('A' for Active; 'I' for Inactive)
REMARK    1  A    between atoms: C_1  and  N_2
REMARK    2  A    between atoms: N_2  and  C_3
REMARK    3  A    between atoms: N_2  and  C_4
REMARK    4  A    between atoms: C_4  and  C_5
REMARK    5  A    between atoms: C_9  and  C_10
REMARK    6  A    between atoms: C_11  and  C_12
REMARK                            x       y       z     vdW  Elec       q    Type
REMARK                         _______ _______ _______ _____ _____    ______ ____
ROOT
ATOM      1  C   UNL     1      50.256   8.109  13.232  0.00  0.00    +0.000 A 
ATOM      2  N   UNL     1      50.481   7.765  14.525  0.00  0.00    +0.000 NA
ATOM      3  C   UNL     1      49.588   6.932  15.083  0.00  0.00    +0.000 A 
ATOM      4  N   UNL     1      48.520   6.395  14.475  0.00  0.00    +0.000 NA
ATOM      5  C   UNL     1      48.321   6.760  13.187  0.00  0.00    +0.000 A 
ATOM      6  C   UNL     1      49.155   7.649  12.531  0.00  0.00    +0.000 A 
ATOM      7  F   UNL     1      48.935   8.020  11.261  0.00  0.00    +0.000 F 
ENDROOT
BRANCH   5   8
ATOM      8  C   UNL     1      47.211   6.115  12.469  0.00  0.00    +0.000 C 
ATOM      9  C   UNL     1      46.274   5.359  13.071  0.00  0.00    +0.000 C 
BRANCH   9  10
ATOM     10  C   UNL     1      45.198   4.659  12.359  0.00  0.00    +0.000 A 
ATOM     11  C   UNL     1      44.747   5.145  11.145  0.00  0.00    +0.000 A 
ATOM     12  C   UNL     1      43.740   4.427  10.543  0.00  0.00    +0.000 A 
ATOM     13  N   UNL     1      43.195   3.321  11.078  0.00  0.00    +0.000 NA
ATOM     14  C   UNL     1      43.698   2.941  12.263  0.00  0.00    +0.000 A 
ATOM     15  N   UNL     1      44.682   3.558  12.938  0.00  0.00    +0.000 NA
ENDBRANCH   9  10
ENDBRANCH   5   8
BRANCH   1  16
ATOM     16  C   UNL     1      51.298   8.963  12.536  0.00  0.00    +0.000 C 
BRANCH  16  18
ATOM     17  C   UNL     1      52.258   8.471  10.343  0.00  0.00    +0.000 C 
ATOM     18  N   UNL     1      52.363   8.274  11.785  0.00  0.00    +0.000 NA
ATOM     19  C   UNL     1      53.697   8.606  12.274  0.00  0.00    +0.000 C 
ENDBRANCH  16  18
ENDBRANCH   1  16
TORSDOF 4
ENDMDL
