MODEL 1
REMARK VINA RESULT:    -6.871      0.000      0.000
REMARK INTER + INTRA:          -9.178
REMARK INTER:                  -8.477
REMARK INTRA:                  -0.700
REMARK UNBOUND:                -0.700
REMARK  Name = 
REMARK  5 active torsions:
REMARK  status: ('A' for Active; 'I' for Inactive)
REMARK    1  A    between atoms: N_1  and  C_2
REMARK    2  A    between atoms: C_2  and  C_3
REMARK    3  A    between atoms: C_6  and  C_7
REMARK    4  A    between atoms: C_7  and  N_8
REMARK    5  A    between atoms: C_14  and  O_15
REMARK                            x       y       z     vdW  Elec       q    Type
REMARK                         _______ _______ _______ _____ _____    ______ ____
ROOT
ATOM      1  C   UNL     1      44.478   6.562  11.354  0.00  0.00    +0.000 C 
ENDROOT
BRANCH   1   2
ATOM      2  N   UNL     1      44.238   5.156  11.045  0.00  0.00    +0.000 N 
ATOM      3  C   UNL     1      43.424   4.335  11.789  0.00  0.00    +0.000 A 
ATOM      4  C   UNL     1      43.560   3.054  11.310  0.00  0.00    +0.000 A 
ATOM      5  C   UNL     1      44.421   3.104  10.182  0.00  0.00    +0.000 A 
ATOM      6  C   UNL     1      44.903   2.126   9.288  0.00  0.00    +0.000 A 
ATOM      7  C   UNL     1      45.715   2.511   8.216  0.00  0.00    +0.000 A 
ATOM      8  C   UNL     1      46.042   3.849   8.041  0.00  0.00    +0.000 A 
ATOM      9  C   UNL     1      45.612   4.835   8.930  0.00  0.00    +0.000 A 
ATOM     10  C   UNL     1      44.798   4.441  10.003  0.00  0.00    +0.000 A 
BRANCH   8  11
ATOM     11  O   UNL     1      46.806   4.253   6.982  0.00  0.00    +0.000 OA
ATOM     12  H   UNL     1      47.614   3.716   6.965  0.00  0.00    +0.000 HD
ENDBRANCH   8  11
ENDBRANCH   1   2
BRANCH   1  16
ATOM     13  C   UNL     1      47.997   7.816  12.408  0.00  0.00    +0.000 C 
ATOM     14  C   UNL     1      47.628   6.347  12.138  0.00  0.00    +0.000 C 
ATOM     15  C   UNL     1      46.403   5.887  12.928  0.00  0.00    +0.000 C 
ATOM     16  C   UNL     1      45.170   6.784  12.720  0.00  0.00    +0.000 C 
ATOM     17  C   UNL     1      45.533   8.264  12.933  0.00  0.00    +0.000 C 
ATOM     18  C   UNL     1      46.771   8.709  12.157  0.00  0.00    +0.000 C 
BRANCH  13  19
ATOM     19  C   UNL     1      48.626   7.969  13.811  0.00  0.00    +0.000 C 
BRANCH  19  20
ATOM     20  N   UNL     1      49.745   7.057  14.030  0.00  0.00    +0.000 NA
ATOM     21  H   UNL     1      49.952   7.014  15.028  0.00  0.00    +0.000 HD
ATOM     22  H   UNL     1      50.583   7.435  13.590  0.00  0.00    +0.000 HD
ENDBRANCH  19  20
ENDBRANCH  13  19
ENDBRANCH   1  16
TORSDOF 5
ENDMDL
MODEL 2
REMARK VINA RESULT:    -5.883      3.805      7.080
REMARK INTER + INTRA:          -7.959
REMARK INTER:                  -7.626
REMARK INTRA:                  -0.333
REMARK UNBOUND:                -0.700
REMARK  Name = 
REMARK  5 active torsions:
REMARK  status: ('A' for Active; 'I' for Inactive)
REMARK    1  A    between atoms: N_1  and  C_2
REMARK    2  A    between atoms: C_2  and  C_3
REMARK    3  A    between atoms: C_6  and  C_7
REMARK    4  A    between atoms: C_7  and  N_8
REMARK    5  A    between atoms: C_14  and  O_15
REMARK                            x       y       z     vdW  Elec       q    Type
REMARK                         _______ _______ _______ _____ _____    ______ ____
ROOT
ATOM      1  C   UNL     1      47.592   5.678  13.367  0.00  0.00    +0.000 C 
ENDROOT
BRANCH   1   2
ATOM      2  N   UNL     1      48.104   6.075  14.674  0.00  0.00    +0.000 N 
ATOM      3  C   UNL     1      48.837   7.217  14.898  0.00  0.00    +0.000 A 
ATOM      4  C   UNL     1      49.286   7.187  16.196  0.00  0.00    +0.000 A 
ATOM      5  C   UNL     1      48.741   6.031  16.816  0.00  0.00    +0.000 A 
ATOM      6  C   UNL     1      48.834   5.494  18.116  0.00  0.00    +0.000 A 
ATOM      7  C   UNL     1      48.117   4.337  18.439  0.00  0.00    +0.000 A 
ATOM      8  C   UNL     1      47.323   3.725  17.477  0.00  0.00    +0.000 A 
ATOM      9  C   UNL     1      47.240   4.210  16.172  0.00  0.00    +0.000 A 
ATOM     10  C   UNL     1      47.964   5.371  15.856  0.00  0.00    +0.000 A 
BRANCH   8  11
ATOM     11  O   UNL     1      46.586   2.614  17.779  0.00  0.00    +0.000 OA
ATOM     12  H   UNL     1      46.322   2.665  18.711  0.00  0.00    +0.000 HD
ENDBRANCH   8  11
ENDBRANCH   1   2
BRANCH   1  16
ATOM     13  C   UNL     1      44.973   4.512  10.750  0.00  0.00    +0.000 C 
ATOM     14  C   UNL     1      45.783   5.818  10.667  0.00  0.00    +0.000 C 
ATOM     15  C   UNL     1      45.685   6.660  11.939  0.00  0.00    +0.000 C 
ATOM     16  C   UNL     1      46.066   5.886  13.214  0.00  0.00    +0.000 C 
ATOM     17  C   UNL     1      45.307   4.550  13.287  0.00  0.00    +0.000 C 
ATOM     18  C   UNL     1      45.392   3.726  12.004  0.00  0.00    +0.000 C 
BRANCH  13  19
ATOM     19  C   UNL     1      43.459   4.804  10.651  0.00  0.00    +0.000 C 
BRANCH  19  20
ATOM     20  N   UNL     1      42.650   3.839  11.390  0.00  0.00    +0.000 NA
ATOM     21  H   UNL     1      41.937   3.456  10.770  0.00  0.00    +0.000 HD
ATOM     22  H   UNL     1      42.142   4.319  12.132  0.00  0.00    +0.000 HD
ENDBRANCH  19  20
ENDBRANCH  13  19
ENDBRANCH   1  16
TORSDOF 5
ENDMDL
MODEL 3
REMARK VINA RESULT:    -5.816      4.057      5.194
REMARK INTER + INTRA:          -7.876
REMARK INTER:                  -7.531
REMARK INTRA:                  -0.345
REMARK UNBOUND:                -0.700
REMARK  Name = 
REMARK  5 active torsions:
REMARK  status: ('A' for Active; 'I' for Inactive)
REMARK    1  A    between atoms: N_1  and  C_2
REMARK    2  A    between atoms: C_2  and  C_3
REMARK    3  A    between atoms: C_6  and  C_7
REMARK    4  A    between atoms: C_7  and  N_8
REMARK    5  A    between atoms: C_14  and  O_15
REMARK                            x       y       z     vdW  Elec       q    Type
REMARK                         _______ _______ _______ _____ _____    ______ ____
ROOT
ATOM      1  C   UNL     1      47.422   3.882  14.626  0.00  0.00    +0.000 C 
ENDROOT
BRANCH   1   2
ATOM      2  N   UNL     1      46.927   4.669  13.501  0.00  0.00    +0.000 N 
ATOM      3  C   UNL     1      47.487   5.854  13.088  0.00  0.00    +0.000 A 
ATOM      4  C   UNL     1      46.675   6.394  12.119  0.00  0.00    +0.000 A 
ATOM      5  C   UNL     1      45.628   5.468  11.868  0.00  0.00    +0.000 A 
ATOM      6  C   UNL     1      44.529   5.465  10.986  0.00  0.00    +0.000 A 
ATOM      7  C   UNL     1      43.685   4.351  10.937  0.00  0.00    +0.000 A 
ATOM      8  C   UNL     1      43.932   3.259  11.760  0.00  0.00    +0.000 A 
ATOM      9  C   UNL     1      44.989   3.247  12.671  0.00  0.00    +0.000 A 
ATOM     10  C   UNL     1      45.831   4.370  12.714  0.00  0.00    +0.000 A 
BRANCH   8  11
ATOM     11  O   UNL     1      43.141   2.146  11.706  0.00  0.00    +0.000 OA
ATOM     12  H   UNL     1      42.370   2.345  11.151  0.00  0.00    +0.000 HD
ENDBRANCH   8  11
ENDBRANCH   1   2
BRANCH   1  16
ATOM     13  C   UNL     1      49.248   3.783  18.050  0.00  0.00    +0.000 C 
ATOM     14  C   UNL     1      48.146   2.804  17.610  0.00  0.00    +0.000 C 
ATOM     15  C   UNL     1      46.883   3.513  17.119  0.00  0.00    +0.000 C 
ATOM     16  C   UNL     1      47.152   4.537  16.003  0.00  0.00    +0.000 C 
ATOM     17  C   UNL     1      48.291   5.492  16.403  0.00  0.00    +0.000 C 
ATOM     18  C   UNL     1      49.540   4.776  16.912  0.00  0.00    +0.000 C 
BRANCH  13  19
ATOM     19  C   UNL     1      48.881   4.442  19.398  0.00  0.00    +0.000 C 
BRANCH  19  20
ATOM     20  N   UNL     1      48.424   3.476  20.393  0.00  0.00    +0.000 NA
ATOM     21  H   UNL     1      47.631   2.958  20.017  0.00  0.00    +0.000 HD
ATOM     22  H   UNL     1      48.069   3.971  21.210  0.00  0.00    +0.000 HD
ENDBRANCH  19  20
ENDBRANCH  13  19
ENDBRANCH   1  16
TORSDOF 5
ENDMDL
MODEL 4
REMARK VINA RESULT:    -5.318      2.703      6.364
REMARK INTER + INTRA:          -7.262
REMARK INTER:                  -6.925
REMARK INTRA:                  -0.337
REMARK UNBOUND:                -0.700
REMARK  Name = 
REMARK  5 active torsions:
REMARK  status: ('A' for Active; 'I' for Inactive)
REMARK    1  A    between atoms: N_1  and  C_2
REMARK    2  A    between atoms: C_2  and  C_3
REMARK    3  A    between atoms: C_6  and  C_7
REMARK    4  A    between atoms: C_7  and  N_8
REMARK    5  A    between atoms: C_14  and  O_15
REMARK                            x       y       z     vdW  Elec       q    Type
REMARK                         _______ _______ _______ _____ _____    ______ ____
ROOT
ATOM      1  C   UNL     1      47.168   6.432  12.572  0.00  0.00    +0.000 C 
ENDROOT
BRANCH   1   2
ATOM      2  N   UNL     1      47.485   7.844  12.379  0.00  0.00    +0.000 N 
ATOM      3  C   UNL     1      46.586   8.866  12.576  0.00  0.00    +0.000 A 
ATOM      4  C   UNL     1      47.171  10.034  12.148  0.00  0.00    +0.000 A 
ATOM      5  C   UNL     1      48.502   9.732  11.755  0.00  0.00    +0.000 A 
ATOM      6  C   UNL     1      49.565  10.513  11.258  0.00  0.00    +0.000 A 
ATOM      7  C   UNL     1      50.805   9.915  11.010  0.00  0.00    +0.000 A 
ATOM      8  C   UNL     1      50.978   8.558  11.251  0.00  0.00    +0.000 A 
ATOM      9  C   UNL     1      49.935   7.751  11.707  0.00  0.00    +0.000 A 
ATOM     10  C   UNL     1      48.694   8.359  11.953  0.00  0.00    +0.000 A 
BRANCH   8  11
ATOM     11  O   UNL     1      52.189   7.958  11.048  0.00  0.00    +0.000 OA
ATOM     12  H   UNL     1      52.057   7.188  10.473  0.00  0.00    +0.000 HD
ENDBRANCH   8  11
ENDBRANCH   1   2
BRANCH   1  16
ATOM     13  C   UNL     1      44.927   3.593  11.162  0.00  0.00    +0.000 C 
ATOM     14  C   UNL     1      45.281   4.892  10.416  0.00  0.00    +0.000 C 
ATOM     15  C   UNL     1      44.984   6.148  11.236  0.00  0.00    +0.000 C 
ATOM     16  C   UNL     1      45.648   6.143  12.623  0.00  0.00    +0.000 C 
ATOM     17  C   UNL     1      45.351   4.827  13.365  0.00  0.00    +0.000 C 
ATOM     18  C   UNL     1      45.630   3.578  12.530  0.00  0.00    +0.000 C 
BRANCH  13  19
ATOM     19  C   UNL     1      43.395   3.403  11.227  0.00  0.00    +0.000 C 
BRANCH  19  20
ATOM     20  N   UNL     1      43.011   2.097  11.752  0.00  0.00    +0.000 NA
ATOM     21  H   UNL     1      43.623   1.383  11.357  0.00  0.00    +0.000 HD
ATOM     22  H   UNL     1      42.072   1.864  11.432  0.00  0.00    +0.000 HD
ENDBRANCH  19  20
ENDBRANCH  13  19
ENDBRANCH   1  16
TORSDOF 5
ENDMDL
MODEL 5
REMARK VINA RESULT:    -5.062      2.853      4.036
REMARK INTER + INTRA:          -6.946
REMARK INTER:                  -6.338
REMARK INTRA:                  -0.608
REMARK UNBOUND:                -0.700
REMARK  Name = 
REMARK  5 active torsions:
REMARK  status: ('A' for Active; 'I' for Inactive)
REMARK    1  A    between atoms: N_1  and  C_2
REMARK    2  A    between atoms: C_2  and  C_3
REMARK    3  A    between atoms: C_6  and  C_7
REMARK    4  A    between atoms: C_7  and  N_8
REMARK    5  A    between atoms: C_14  and  O_15
REMARK                            x       y       z     vdW  Elec       q    Type
REMARK                         _______ _______ _______ _____ _____    ______ ____
ROOT
ATOM      1  C   UNL     1      46.577   8.483  13.310  0.00  0.00    +0.000 C 
ENDROOT
BRANCH   1   2
ATOM      2  N   UNL     1      45.824   7.490  12.551  0.00  0.00    +0.000 N 
ATOM      3  C   UNL     1      44.908   7.802  11.575  0.00  0.00    +0.000 A 
ATOM      4  C   UNL     1      44.281   6.640  11.193  0.00  0.00    +0.000 A 
ATOM      5  C   UNL     1      44.891   5.568  11.896  0.00  0.00    +0.000 A 
ATOM      6  C   UNL     1      44.687   4.173  11.903  0.00  0.00    +0.000 A 
ATOM      7  C   UNL     1      45.510   3.358  12.687  0.00  0.00    +0.000 A 
ATOM      8  C   UNL     1      46.518   3.927  13.454  0.00  0.00    +0.000 A 
ATOM      9  C   UNL     1      46.721   5.307  13.498  0.00  0.00    +0.000 A 
ATOM     10  C   UNL     1      45.890   6.118  12.709  0.00  0.00    +0.000 A 
BRANCH   8  11
ATOM     11  O   UNL     1      47.356   3.148  14.202  0.00  0.00    +0.000 OA
ATOM     12  H   UNL     1      46.817   2.555  14.748  0.00  0.00    +0.000 HD
ENDBRANCH   8  11
ENDBRANCH   1   2
BRANCH   1  16
ATOM     13  C   UNL     1      50.446   8.207  13.450  0.00  0.00    +0.000 C 
ATOM     14  C   UNL     1      49.604   9.219  14.246  0.00  0.00    +0.000 C 
ATOM     15  C   UNL     1      48.645  10.019  13.364  0.00  0.00    +0.000 C 
ATOM     16  C   UNL     1      47.726   9.134  12.503  0.00  0.00    +0.000 C 
ATOM     17  C   UNL     1      48.545   8.079  11.740  0.00  0.00    +0.000 C 
ATOM     18  C   UNL     1      49.517   7.300  12.626  0.00  0.00    +0.000 C 
BRANCH  13  19
ATOM     19  C   UNL     1      51.531   8.933  12.624  0.00  0.00    +0.000 C 
BRANCH  19  20
ATOM     20  N   UNL     1      52.485   8.012  12.013  0.00  0.00    +0.000 NA
ATOM     21  H   UNL     1      52.810   8.404  11.129  0.00  0.00    +0.000 HD
ATOM     22  H   UNL     1      52.013   7.142  11.773  0.00  0.00    +0.000 HD
ENDBRANCH  19  20
ENDBRANCH  13  19
ENDBRANCH   1  16
TORSDOF 5
ENDMDL
MODEL 6
REMARK VINA RESULT:    -4.875      2.833      6.593
REMARK INTER + INTRA:          -6.716
REMARK INTER:                  -6.243
REMARK INTRA:                  -0.473
REMARK UNBOUND:                -0.700
REMARK  Name = 
REMARK  5 active torsions:
REMARK  status: ('A' for Active; 'I' for Inactive)
REMARK    1  A    between atoms: N_1  and  C_2
REMARK    2  A    between atoms: C_2  and  C_3
REMARK    3  A    between atoms: C_6  and  C_7
REMARK    4  A    between atoms: C_7  and  N_8
REMARK    5  A    between atoms: C_14  and  O_15
REMARK                            x       y       z     vdW  Elec       q    Type
REMARK                         _______ _______ _______ _____ _____    ______ ____
ROOT
ATOM      1  C   UNL     1      45.477   6.843  12.877  0.00  0.00    +0.000 C 
ENDROOT
BRANCH   1   2
ATOM      2  N   UNL     1      46.447   7.933  12.879  0.00  0.00    +0.000 N 
ATOM      3  C   UNL     1      46.265   9.124  12.216  0.00  0.00    +0.000 A 
ATOM      4  C   UNL     1      47.434   9.841  12.300  0.00  0.00    +0.000 A 
ATOM      5  C   UNL     1      48.336   9.104  13.112  0.00  0.00    +0.000 A 
ATOM      6  C   UNL     1      49.653   9.339  13.558  0.00  0.00    +0.000 A 
ATOM      7  C   UNL     1      50.267   8.421  14.416  0.00  0.00    +0.000 A 
ATOM      8  C   UNL     1      49.578   7.284  14.819  0.00  0.00    +0.000 A 
ATOM      9  C   UNL     1      48.289   7.004  14.367  0.00  0.00    +0.000 A 
ATOM     10  C   UNL     1      47.680   7.930  13.505  0.00  0.00    +0.000 A 
BRANCH   8  11
ATOM     11  O   UNL     1      50.145   6.390  15.684  0.00  0.00    +0.000 OA
ATOM     12  H   UNL     1      51.053   6.676  15.869  0.00  0.00    +0.000 HD
ENDBRANCH   8  11
ENDBRANCH   1   2
BRANCH   1  16
ATOM     13  C   UNL     1      43.601   3.859  11.252  0.00  0.00    +0.000 C 
ATOM     14  C   UNL     1      44.159   3.874  12.685  0.00  0.00    +0.000 C 
ATOM     15  C   UNL     1      45.634   4.274  12.744  0.00  0.00    +0.000 C 
ATOM     16  C   UNL     1      45.931   5.615  12.051  0.00  0.00    +0.000 C 
ATOM     17  C   UNL     1      45.332   5.639  10.634  0.00  0.00    +0.000 C 
ATOM     18  C   UNL     1      43.865   5.217  10.582  0.00  0.00    +0.000 C 
BRANCH  13  19
ATOM     19  C   UNL     1      44.144   2.642  10.471  0.00  0.00    +0.000 C 
BRANCH  19  20
ATOM     20  N   UNL     1      44.067   2.820   9.024  0.00  0.00    +0.000 NA
ATOM     21  H   UNL     1      44.996   3.037   8.662  0.00  0.00    +0.000 HD
ATOM     22  H   UNL     1      43.492   3.634   8.811  0.00  0.00    +0.000 HD
ENDBRANCH  19  20
ENDBRANCH  13  19
ENDBRANCH   1  16
TORSDOF 5
ENDMDL
MODEL 7
REMARK VINA RESULT:    -4.661      3.896      5.790
REMARK INTER + INTRA:          -6.451
REMARK INTER:                  -6.031
REMARK INTRA:                  -0.420
REMARK UNBOUND:                -0.700
REMARK  Name = 
REMARK  5 active torsions:
REMARK  status: ('A' for Active; 'I' for Inactive)
REMARK    1  A    between atoms: N_1  and  C_2
REMARK    2  A    between atoms: C_2  and  C_3
REMARK    3  A    between atoms: C_6  and  C_7
REMARK    4  A    between atoms: C_7  and  N_8
REMARK    5  A    between atoms: C_14  and  O_15
REMARK                            x       y       z     vdW  Elec       q    Type
REMARK                         _______ _______ _______ _____ _____    ______ ____
ROOT
ATOM      1  C   UNL     1      48.203   7.060  15.382  0.00  0.00    +0.000 C 
ENDROOT
BRANCH   1   2
ATOM      2  N   UNL     1      48.036   6.970  13.935  0.00  0.00    +0.000 N 
ATOM      3  C   UNL     1      48.845   7.614  13.028  0.00  0.00    +0.000 A 
ATOM      4  C   UNL     1      48.303   7.440  11.777  0.00  0.00    +0.000 A 
ATOM      5  C   UNL     1      47.173   6.590  11.909  0.00  0.00    +0.000 A 
ATOM      6  C   UNL     1      46.248   6.058  10.988  0.00  0.00    +0.000 A 
ATOM      7  C   UNL     1      45.251   5.186  11.436  0.00  0.00    +0.000 A 
ATOM      8  C   UNL     1      45.176   4.854  12.783  0.00  0.00    +0.000 A 
ATOM      9  C   UNL     1      46.053   5.393  13.725  0.00  0.00    +0.000 A 
ATOM     10  C   UNL     1      47.050   6.269  13.267  0.00  0.00    +0.000 A 
BRANCH   8  11
ATOM     11  O   UNL     1      44.231   3.977  13.239  0.00  0.00    +0.000 OA
ATOM     12  H   UNL     1      43.701   4.424  13.917  0.00  0.00    +0.000 HD
ENDBRANCH   8  11
ENDBRANCH   1   2
BRANCH   1  16
ATOM     13  C   UNL     1      48.401   5.569  18.960  0.00  0.00    +0.000 C 
ATOM     14  C   UNL     1      49.354   6.636  18.395  0.00  0.00    +0.000 C 
ATOM     15  C   UNL     1      49.975   6.230  17.058  0.00  0.00    +0.000 C 
ATOM     16  C   UNL     1      48.933   5.840  15.995  0.00  0.00    +0.000 C 
ATOM     17  C   UNL     1      47.936   4.813  16.559  0.00  0.00    +0.000 C 
ATOM     18  C   UNL     1      47.338   5.217  17.905  0.00  0.00    +0.000 C 
BRANCH  13  19
ATOM     19  C   UNL     1      49.197   4.358  19.497  0.00  0.00    +0.000 C 
BRANCH  19  20
ATOM     20  N   UNL     1      48.462   3.604  20.509  0.00  0.00    +0.000 NA
ATOM     21  H   UNL     1      47.568   4.062  20.685  0.00  0.00    +0.000 HD
ATOM     22  H   UNL     1      48.969   3.637  21.392  0.00  0.00    +0.000 HD
ENDBRANCH  19  20
ENDBRANCH  13  19
ENDBRANCH   1  16
TORSDOF 5
ENDMDL
MODEL 8
REMARK VINA RESULT:    -4.274      3.298      5.355
REMARK INTER + INTRA:          -5.973
REMARK INTER:                  -5.254
REMARK INTRA:                  -0.720
REMARK UNBOUND:                -0.700
REMARK  Name = 
REMARK  5 active torsions:
REMARK  status: ('A' for Active; 'I' for Inactive)
REMARK    1  A    between atoms: N_1  and  C_2
REMARK    2  A    between atoms: C_2  and  C_3
REMARK    3  A    between atoms: C_6  and  C_7
REMARK    4  A    between atoms: C_7  and  N_8
REMARK    5  A    between atoms: C_14  and  O_15
REMARK                            x       y       z     vdW  Elec       q    Type
REMARK                         _______ _______ _______ _____ _____    ______ ____
ROOT
ATOM      1  C   UNL     1      49.192   7.766  13.632  0.00  0.00    +0.000 C 
ENDROOT
BRANCH   1   2
ATOM      2  N   UNL     1      47.790   7.763  13.226  0.00  0.00    +0.000 N 
ATOM      3  C   UNL     1      47.092   8.892  12.870  0.00  0.00    +0.000 A 
ATOM      4  C   UNL     1      45.773   8.543  12.707  0.00  0.00    +0.000 A 
ATOM      5  C   UNL     1      45.672   7.138  12.886  0.00  0.00    +0.000 A 
ATOM      6  C   UNL     1      44.597   6.228  12.824  0.00  0.00    +0.000 A 
ATOM      7  C   UNL     1      44.837   4.862  13.000  0.00  0.00    +0.000 A 
ATOM      8  C   UNL     1      46.130   4.411  13.237  0.00  0.00    +0.000 A 
ATOM      9  C   UNL     1      47.209   5.290  13.341  0.00  0.00    +0.000 A 
ATOM     10  C   UNL     1      46.959   6.660  13.165  0.00  0.00    +0.000 A 
BRANCH   8  11
ATOM     11  O   UNL     1      46.394   3.078  13.378  0.00  0.00    +0.000 OA
ATOM     12  H   UNL     1      45.560   2.590  13.293  0.00  0.00    +0.000 HD
ENDBRANCH   8  11
ENDBRANCH   1   2
BRANCH   1  16
ATOM     13  C   UNL     1      50.742   6.351  16.898  0.00  0.00    +0.000 C 
ATOM     14  C   UNL     1      49.256   6.250  16.510  0.00  0.00    +0.000 C 
ATOM     15  C   UNL     1      48.644   7.602  16.144  0.00  0.00    +0.000 C 
ATOM     16  C   UNL     1      49.423   8.348  15.047  0.00  0.00    +0.000 C 
ATOM     17  C   UNL     1      50.921   8.412  15.391  0.00  0.00    +0.000 C 
ATOM     18  C   UNL     1      51.519   7.060  15.776  0.00  0.00    +0.000 C 
BRANCH  13  19
ATOM     19  C   UNL     1      50.896   6.997  18.293  0.00  0.00    +0.000 C 
BRANCH  19  20
ATOM     20  N   UNL     1      50.090   6.334  19.313  0.00  0.00    +0.000 NA
ATOM     21  H   UNL     1      50.455   6.571  20.236  0.00  0.00    +0.000 HD
ATOM     22  H   UNL     1      50.194   5.324  19.227  0.00  0.00    +0.000 HD
ENDBRANCH  19  20
ENDBRANCH  13  19
ENDBRANCH   1  16
TORSDOF 5
ENDMDL
MODEL 9
REMARK VINA RESULT:    -4.075      6.261      7.874
REMARK INTER + INTRA:          -5.728
REMARK INTER:                  -5.013
REMARK INTRA:                  -0.715
REMARK UNBOUND:                -0.700
REMARK  Name = 
REMARK  5 active torsions:
REMARK  status: ('A' for Active; 'I' for Inactive)
REMARK    1  A    between atoms: N_1  and  C_2
REMARK    2  A    between atoms: C_2  and  C_3
REMARK    3  A    between atoms: C_6  and  C_7
REMARK    4  A    between atoms: C_7  and  N_8
REMARK    5  A    between atoms: C_14  and  O_15
REMARK                            x       y       z     vdW  Elec       q    Type
REMARK                         _______ _______ _______ _____ _____    ______ ____
ROOT
ATOM      1  C   UNL     1      50.014   7.319  17.866  0.00  0.00    +0.000 C 
ENDROOT
BRANCH   1   2
ATOM      2  N   UNL     1      50.500   5.944  17.823  0.00  0.00    +0.000 N 
ATOM      3  C   UNL     1      51.828   5.596  17.905  0.00  0.00    +0.000 A 
ATOM      4  C   UNL     1      51.930   4.246  17.668  0.00  0.00    +0.000 A 
ATOM      5  C   UNL     1      50.614   3.733  17.521  0.00  0.00    +0.000 A 
ATOM      6  C   UNL     1      50.098   2.442  17.285  0.00  0.00    +0.000 A 
ATOM      7  C   UNL     1      48.714   2.248  17.244  0.00  0.00    +0.000 A 
ATOM      8  C   UNL     1      47.858   3.326  17.431  0.00  0.00    +0.000 A 
ATOM      9  C   UNL     1      48.337   4.621  17.629  0.00  0.00    +0.000 A 
ATOM     10  C   UNL     1      49.728   4.807  17.668  0.00  0.00    +0.000 A 
BRANCH   8  11
ATOM     11  O   UNL     1      46.502   3.154  17.429  0.00  0.00    +0.000 OA
ATOM     12  H   UNL     1      46.153   3.461  18.281  0.00  0.00    +0.000 HD
ENDBRANCH   8  11
ENDBRANCH   1   2
BRANCH   1  16
ATOM     13  C   UNL     1      48.023   8.713  14.839  0.00  0.00    +0.000 C 
ATOM     14  C   UNL     1      48.697   7.331  14.891  0.00  0.00    +0.000 C 
ATOM     15  C   UNL     1      50.170   7.403  15.296  0.00  0.00    +0.000 C 
ATOM     16  C   UNL     1      50.404   8.150  16.620  0.00  0.00    +0.000 C 
ATOM     17  C   UNL     1      49.691   9.514  16.609  0.00  0.00    +0.000 C 
ATOM     18  C   UNL     1      48.226   9.435  16.182  0.00  0.00    +0.000 C 
BRANCH  13  19
ATOM     19  C   UNL     1      48.506   9.507  13.605  0.00  0.00    +0.000 C 
BRANCH  19  20
ATOM     20  N   UNL     1      48.079  10.903  13.630  0.00  0.00    +0.000 NA
ATOM     21  H   UNL     1      48.305  11.339  12.736  0.00  0.00    +0.000 HD
ATOM     22  H   UNL     1      48.618  11.412  14.329  0.00  0.00    +0.000 HD
ENDBRANCH  19  20
ENDBRANCH  13  19
ENDBRANCH   1  16
TORSDOF 5
ENDMDL
