MODEL 1
REMARK VINA RESULT:    -7.590      0.000      0.000
REMARK INTER + INTRA:         -10.189
REMARK INTER:                  -9.365
REMARK INTRA:                  -0.824
REMARK UNBOUND:                -0.824
REMARK  Name = 
REMARK  4 active torsions:
REMARK  status: ('A' for Active; 'I' for Inactive)
REMARK    1  A    between atoms: C_2  and  C_4
REMARK    2  A    between atoms: C_7  and  C_8
REMARK    3  A    between atoms: C_8  and  C_9
REMARK    4  A    between atoms: C_9  and  C_10
REMARK                            x       y       z     vdW  Elec       q    Type
REMARK                         _______ _______ _______ _____ _____    ______ ____
ROOT
ATOM      1  C   UNL     1      46.424   2.326   7.796  0.00  0.00    +0.000 A 
ATOM      2  C   UNL     1      46.389   3.713   7.638  0.00  0.00    +0.000 A 
ATOM      3  C   UNL     1      45.503   4.481   8.397  0.00  0.00    +0.000 A 
ATOM      4  C   UNL     1      44.626   3.877   9.310  0.00  0.00    +0.000 A 
ATOM      5  C   UNL     1      44.668   2.481   9.455  0.00  0.00    +0.000 A 
ATOM      6  C   UNL     1      45.551   1.709   8.696  0.00  0.00    +0.000 A 
ENDROOT
BRANCH   1   8
ATOM      7  N   UNL     1      48.481   2.103   6.522  0.00  0.00    +0.000 N 
ATOM      8  C   UNL     1      47.361   1.486   7.011  0.00  0.00    +0.000 C 
ATOM      9  O   UNL     1      47.171   0.289   6.837  0.00  0.00    +0.000 OA
ATOM     10  H   UNL     1      49.166   1.507   6.077  0.00  0.00    +0.000 HD
ATOM     11  H   UNL     1      48.791   3.003   6.861  0.00  0.00    +0.000 HD
ENDBRANCH   1   8
BRANCH   4  12
ATOM     12  C   UNL     1      43.685   4.681  10.183  0.00  0.00    +0.000 C 
BRANCH  12  13
ATOM     13  C   UNL     1      43.847   4.448  11.690  0.00  0.00    +0.000 C 
BRANCH  13  14
ATOM     14  C   UNL     1      45.134   5.021  12.227  0.00  0.00    +0.000 A 
ATOM     15  C   UNL     1      45.634   6.230  11.727  0.00  0.00    +0.000 A 
ATOM     16  C   UNL     1      46.810   6.775  12.245  0.00  0.00    +0.000 A 
ATOM     17  C   UNL     1      47.497   6.111  13.259  0.00  0.00    +0.000 A 
ATOM     18  C   UNL     1      47.017   4.899  13.749  0.00  0.00    +0.000 A 
ATOM     19  C   UNL     1      45.841   4.352  13.233  0.00  0.00    +0.000 A 
ENDBRANCH  13  14
ENDBRANCH  12  13
ENDBRANCH   4  12
TORSDOF 4
ENDMDL
MODEL 2
REMARK VINA RESULT:    -7.494      3.345      6.108
REMARK INTER + INTRA:         -10.070
REMARK INTER:                  -9.364
REMARK INTRA:                  -0.706
REMARK UNBOUND:                -0.824
REMARK  Name = 
REMARK  4 active torsions:
REMARK  status: ('A' for Active; 'I' for Inactive)
REMARK    1  A    between atoms: C_2  and  C_4
REMARK    2  A    between atoms: C_7  and  C_8
REMARK    3  A    between atoms: C_8  and  C_9
REMARK    4  A    between atoms: C_9  and  C_10
REMARK                            x       y       z     vdW  Elec       q    Type
REMARK                         _______ _______ _______ _____ _____    ______ ____
ROOT
ATOM      1  C   UNL     1      46.637   5.608  12.909  0.00  0.00    +0.000 A 
ATOM      2  C   UNL     1      46.031   4.369  13.130  0.00  0.00    +0.000 A 
ATOM      3  C   UNL     1      45.217   3.803  12.147  0.00  0.00    +0.000 A 
ATOM      4  C   UNL     1      44.980   4.470  10.936  0.00  0.00    +0.000 A 
ATOM      5  C   UNL     1      45.591   5.717  10.728  0.00  0.00    +0.000 A 
ATOM      6  C   UNL     1      46.405   6.289  11.711  0.00  0.00    +0.000 A 
ENDROOT
BRANCH   1   8
ATOM      7  N   UNL     1      47.448   7.590  14.056  0.00  0.00    +0.000 N 
ATOM      8  C   UNL     1      47.514   6.228  13.931  0.00  0.00    +0.000 C 
ATOM      9  O   UNL     1      48.236   5.560  14.659  0.00  0.00    +0.000 OA
ATOM     10  H   UNL     1      47.968   7.999  14.821  0.00  0.00    +0.000 HD
ATOM     11  H   UNL     1      46.690   8.131  13.663  0.00  0.00    +0.000 HD
ENDBRANCH   1   8
BRANCH   4  12
ATOM     12  C   UNL     1      44.142   3.866   9.827  0.00  0.00    +0.000 C 
BRANCH  12  13
ATOM     13  C   UNL     1      44.524   2.433   9.439  0.00  0.00    +0.000 C 
BRANCH  13  14
ATOM     14  C   UNL     1      45.563   2.389   8.347  0.00  0.00    +0.000 A 
ATOM     15  C   UNL     1      45.778   3.505   7.529  0.00  0.00    +0.000 A 
ATOM     16  C   UNL     1      46.759   3.474   6.537  0.00  0.00    +0.000 A 
ATOM     17  C   UNL     1      47.525   2.325   6.351  0.00  0.00    +0.000 A 
ATOM     18  C   UNL     1      47.304   1.203   7.148  0.00  0.00    +0.000 A 
ATOM     19  C   UNL     1      46.324   1.233   8.141  0.00  0.00    +0.000 A 
ENDBRANCH  13  14
ENDBRANCH  12  13
ENDBRANCH   4  12
TORSDOF 4
ENDMDL
MODEL 3
REMARK VINA RESULT:    -6.744      3.766      6.512
REMARK INTER + INTRA:          -9.145
REMARK INTER:                  -8.556
REMARK INTRA:                  -0.589
REMARK UNBOUND:                -0.824
REMARK  Name = 
REMARK  4 active torsions:
REMARK  status: ('A' for Active; 'I' for Inactive)
REMARK    1  A    between atoms: C_2  and  C_4
REMARK    2  A    between atoms: C_7  and  C_8
REMARK    3  A    between atoms: C_8  and  C_9
REMARK    4  A    between atoms: C_9  and  C_10
REMARK                            x       y       z     vdW  Elec       q    Type
REMARK                         _______ _______ _______ _____ _____    ______ ____
ROOT
ATOM      1  C   UNL     1      45.456   6.842  12.381  0.00  0.00    +0.000 A 
ATOM      2  C   UNL     1      44.429   6.021  12.852  0.00  0.00    +0.000 A 
ATOM      3  C   UNL     1      44.094   4.854  12.163  0.00  0.00    +0.000 A 
ATOM      4  C   UNL     1      44.764   4.496  10.984  0.00  0.00    +0.000 A 
ATOM      5  C   UNL     1      45.791   5.332  10.518  0.00  0.00    +0.000 A 
ATOM      6  C   UNL     1      46.128   6.502  11.203  0.00  0.00    +0.000 A 
ENDROOT
BRANCH   1   8
ATOM      7  N   UNL     1      46.947   8.014  13.899  0.00  0.00    +0.000 N 
ATOM      8  C   UNL     1      45.840   8.082  13.097  0.00  0.00    +0.000 C 
ATOM      9  O   UNL     1      45.226   9.131  12.954  0.00  0.00    +0.000 OA
ATOM     10  H   UNL     1      47.265   8.884  14.304  0.00  0.00    +0.000 HD
ATOM     11  H   UNL     1      47.613   7.255  13.836  0.00  0.00    +0.000 HD
ENDBRANCH   1   8
BRANCH   4  12
ATOM     12  C   UNL     1      44.460   3.214  10.236  0.00  0.00    +0.000 C 
BRANCH  12  13
ATOM     13  C   UNL     1      44.387   3.360   8.712  0.00  0.00    +0.000 C 
BRANCH  13  14
ATOM     14  C   UNL     1      45.569   2.738   8.014  0.00  0.00    +0.000 A 
ATOM     15  C   UNL     1      45.905   1.398   8.249  0.00  0.00    +0.000 A 
ATOM     16  C   UNL     1      46.983   0.814   7.582  0.00  0.00    +0.000 A 
ATOM     17  C   UNL     1      47.735   1.566   6.682  0.00  0.00    +0.000 A 
ATOM     18  C   UNL     1      47.420   2.904   6.457  0.00  0.00    +0.000 A 
ATOM     19  C   UNL     1      46.342   3.491   7.123  0.00  0.00    +0.000 A 
ENDBRANCH  13  14
ENDBRANCH  12  13
ENDBRANCH   4  12
TORSDOF 4
ENDMDL
MODEL 4
REMARK VINA RESULT:    -6.615      1.260      2.121
REMARK INTER + INTRA:          -8.985
REMARK INTER:                  -8.369
REMARK INTRA:                  -0.616
REMARK UNBOUND:                -0.824
REMARK  Name = 
REMARK  4 active torsions:
REMARK  status: ('A' for Active; 'I' for Inactive)
REMARK    1  A    between atoms: C_2  and  C_4
REMARK    2  A    between atoms: C_7  and  C_8
REMARK    3  A    between atoms: C_8  and  C_9
REMARK    4  A    between atoms: C_9  and  C_10
REMARK                            x       y       z     vdW  Elec       q    Type
REMARK                         _______ _______ _______ _____ _____    ______ ____
ROOT
ATOM      1  C   UNL     1      46.465   2.637   7.550  0.00  0.00    +0.000 A 
ATOM      2  C   UNL     1      45.770   1.867   8.485  0.00  0.00    +0.000 A 
ATOM      3  C   UNL     1      45.007   2.489   9.475  0.00  0.00    +0.000 A 
ATOM      4  C   UNL     1      44.941   3.887   9.561  0.00  0.00    +0.000 A 
ATOM      5  C   UNL     1      45.648   4.650   8.618  0.00  0.00    +0.000 A 
ATOM      6  C   UNL     1      46.414   4.031   7.627  0.00  0.00    +0.000 A 
ENDROOT
BRANCH   1   8
ATOM      7  N   UNL     1      47.793   2.835   5.525  0.00  0.00    +0.000 N 
ATOM      8  C   UNL     1      47.274   2.003   6.481  0.00  0.00    +0.000 C 
ATOM      9  O   UNL     1      47.504   0.801   6.466  0.00  0.00    +0.000 OA
ATOM     10  H   UNL     1      48.427   2.415   4.859  0.00  0.00    +0.000 HD
ATOM     11  H   UNL     1      47.840   3.837   5.651  0.00  0.00    +0.000 HD
ENDBRANCH   1   8
BRANCH   4  12
ATOM     12  C   UNL     1      44.087   4.597  10.592  0.00  0.00    +0.000 C 
BRANCH  12  13
ATOM     13  C   UNL     1      44.814   4.954  11.894  0.00  0.00    +0.000 C 
BRANCH  13  14
ATOM     14  C   UNL     1      45.080   6.433  12.019  0.00  0.00    +0.000 A 
ATOM     15  C   UNL     1      44.359   7.350  11.242  0.00  0.00    +0.000 A 
ATOM     16  C   UNL     1      44.585   8.721  11.379  0.00  0.00    +0.000 A 
ATOM     17  C   UNL     1      45.537   9.183  12.285  0.00  0.00    +0.000 A 
ATOM     18  C   UNL     1      46.272   8.277  13.047  0.00  0.00    +0.000 A 
ATOM     19  C   UNL     1      46.048   6.906  12.913  0.00  0.00    +0.000 A 
ENDBRANCH  13  14
ENDBRANCH  12  13
ENDBRANCH   4  12
TORSDOF 4
ENDMDL
MODEL 5
REMARK VINA RESULT:    -6.303      3.347      5.826
REMARK INTER + INTRA:          -8.600
REMARK INTER:                  -8.046
REMARK INTRA:                  -0.555
REMARK UNBOUND:                -0.824
REMARK  Name = 
REMARK  4 active torsions:
REMARK  status: ('A' for Active; 'I' for Inactive)
REMARK    1  A    between atoms: C_2  and  C_4
REMARK    2  A    between atoms: C_7  and  C_8
REMARK    3  A    between atoms: C_8  and  C_9
REMARK    4  A    between atoms: C_9  and  C_10
REMARK                            x       y       z     vdW  Elec       q    Type
REMARK                         _______ _______ _______ _____ _____    ______ ____
ROOT
ATOM      1  C   UNL     1      47.531   6.484  12.862  0.00  0.00    +0.000 A 
ATOM      2  C   UNL     1      46.965   7.221  11.820  0.00  0.00    +0.000 A 
ATOM      3  C   UNL     1      45.825   6.750  11.168  0.00  0.00    +0.000 A 
ATOM      4  C   UNL     1      45.241   5.527  11.531  0.00  0.00    +0.000 A 
ATOM      5  C   UNL     1      45.823   4.792  12.577  0.00  0.00    +0.000 A 
ATOM      6  C   UNL     1      46.966   5.260  13.231  0.00  0.00    +0.000 A 
ENDROOT
BRANCH   1   8
ATOM      7  N   UNL     1      49.874   7.130  12.834  0.00  0.00    +0.000 N 
ATOM      8  C   UNL     1      48.736   6.966  13.579  0.00  0.00    +0.000 C 
ATOM      9  O   UNL     1      48.716   7.243  14.771  0.00  0.00    +0.000 OA
ATOM     10  H   UNL     1      50.662   7.555  13.303  0.00  0.00    +0.000 HD
ATOM     11  H   UNL     1      49.856   7.161  11.824  0.00  0.00    +0.000 HD
ENDBRANCH   1   8
BRANCH   4  12
ATOM     12  C   UNL     1      43.978   5.006  10.879  0.00  0.00    +0.000 C 
BRANCH  12  13
ATOM     13  C   UNL     1      44.010   3.518  10.509  0.00  0.00    +0.000 C 
BRANCH  13  14
ATOM     14  C   UNL     1      44.940   3.230   9.357  0.00  0.00    +0.000 A 
ATOM     15  C   UNL     1      45.411   4.274   8.549  0.00  0.00    +0.000 A 
ATOM     16  C   UNL     1      46.295   4.011   7.502  0.00  0.00    +0.000 A 
ATOM     17  C   UNL     1      46.707   2.704   7.250  0.00  0.00    +0.000 A 
ATOM     18  C   UNL     1      46.229   1.658   8.037  0.00  0.00    +0.000 A 
ATOM     19  C   UNL     1      45.346   1.919   9.085  0.00  0.00    +0.000 A 
ENDBRANCH  13  14
ENDBRANCH  12  13
ENDBRANCH   4  12
TORSDOF 4
ENDMDL
MODEL 6
REMARK VINA RESULT:    -5.847      4.035      6.859
REMARK INTER + INTRA:          -8.038
REMARK INTER:                  -7.454
REMARK INTRA:                  -0.584
REMARK UNBOUND:                -0.824
REMARK  Name = 
REMARK  4 active torsions:
REMARK  status: ('A' for Active; 'I' for Inactive)
REMARK    1  A    between atoms: C_2  and  C_4
REMARK    2  A    between atoms: C_7  and  C_8
REMARK    3  A    between atoms: C_8  and  C_9
REMARK    4  A    between atoms: C_9  and  C_10
REMARK                            x       y       z     vdW  Elec       q    Type
REMARK                         _______ _______ _______ _____ _____    ______ ____
ROOT
ATOM      1  C   UNL     1      47.805   5.491  15.153  0.00  0.00    +0.000 A 
ATOM      2  C   UNL     1      46.867   4.587  14.652  0.00  0.00    +0.000 A 
ATOM      3  C   UNL     1      46.276   4.809  13.407  0.00  0.00    +0.000 A 
ATOM      4  C   UNL     1      46.597   5.945  12.650  0.00  0.00    +0.000 A 
ATOM      5  C   UNL     1      47.538   6.850  13.167  0.00  0.00    +0.000 A 
ATOM      6  C   UNL     1      48.130   6.632  14.414  0.00  0.00    +0.000 A 
ENDROOT
BRANCH   1   8
ATOM      7  N   UNL     1      47.896   5.908  17.545  0.00  0.00    +0.000 N 
ATOM      8  C   UNL     1      48.456   5.276  16.468  0.00  0.00    +0.000 C 
ATOM      9  O   UNL     1      49.425   4.539  16.600  0.00  0.00    +0.000 OA
ATOM     10  H   UNL     1      48.278   5.678  18.453  0.00  0.00    +0.000 HD
ATOM     11  H   UNL     1      46.965   6.302  17.514  0.00  0.00    +0.000 HD
ENDBRANCH   1   8
BRANCH   4  12
ATOM     12  C   UNL     1      46.013   6.195  11.275  0.00  0.00    +0.000 C 
BRANCH  12  13
ATOM     13  C   UNL     1      44.836   5.287  10.900  0.00  0.00    +0.000 C 
BRANCH  13  14
ATOM     14  C   UNL     1      45.196   4.289   9.829  0.00  0.00    +0.000 A 
ATOM     15  C   UNL     1      44.899   2.930   9.998  0.00  0.00    +0.000 A 
ATOM     16  C   UNL     1      45.206   2.011   8.994  0.00  0.00    +0.000 A 
ATOM     17  C   UNL     1      45.818   2.442   7.818  0.00  0.00    +0.000 A 
ATOM     18  C   UNL     1      46.133   3.789   7.650  0.00  0.00    +0.000 A 
ATOM     19  C   UNL     1      45.827   4.710   8.653  0.00  0.00    +0.000 A 
ENDBRANCH  13  14
ENDBRANCH  12  13
ENDBRANCH   4  12
TORSDOF 4
ENDMDL
MODEL 7
REMARK VINA RESULT:    -5.263      3.411      5.055
REMARK INTER + INTRA:          -7.317
REMARK INTER:                  -6.718
REMARK INTRA:                  -0.599
REMARK UNBOUND:                -0.824
REMARK  Name = 
REMARK  4 active torsions:
REMARK  status: ('A' for Active; 'I' for Inactive)
REMARK    1  A    between atoms: C_2  and  C_4
REMARK    2  A    between atoms: C_7  and  C_8
REMARK    3  A    between atoms: C_8  and  C_9
REMARK    4  A    between atoms: C_9  and  C_10
REMARK                            x       y       z     vdW  Elec       q    Type
REMARK                         _______ _______ _______ _____ _____    ______ ____
ROOT
ATOM      1  C   UNL     1      44.909   4.038  11.384  0.00  0.00    +0.000 A 
ATOM      2  C   UNL     1      45.101   5.211  10.650  0.00  0.00    +0.000 A 
ATOM      3  C   UNL     1      45.835   6.266  11.196  0.00  0.00    +0.000 A 
ATOM      4  C   UNL     1      46.372   6.176  12.489  0.00  0.00    +0.000 A 
ATOM      5  C   UNL     1      46.168   4.994  13.218  0.00  0.00    +0.000 A 
ATOM      6  C   UNL     1      45.432   3.936  12.676  0.00  0.00    +0.000 A 
ENDROOT
BRANCH   1   8
ATOM      7  N   UNL     1      43.387   2.172  11.706  0.00  0.00    +0.000 N 
ATOM      8  C   UNL     1      44.143   2.898  10.825  0.00  0.00    +0.000 C 
ATOM      9  O   UNL     1      44.149   2.635   9.630  0.00  0.00    +0.000 OA
ATOM     10  H   UNL     1      42.788   1.461  11.307  0.00  0.00    +0.000 HD
ATOM     11  H   UNL     1      43.159   2.514  12.629  0.00  0.00    +0.000 HD
ENDBRANCH   1   8
BRANCH   4  12
ATOM     12  C   UNL     1      47.213   7.280  13.096  0.00  0.00    +0.000 C 
BRANCH  12  13
ATOM     13  C   UNL     1      47.372   8.526  12.217  0.00  0.00    +0.000 C 
BRANCH  13  14
ATOM     14  C   UNL     1      48.792   8.727  11.753  0.00  0.00    +0.000 A 
ATOM     15  C   UNL     1      49.276  10.016  11.490  0.00  0.00    +0.000 A 
ATOM     16  C   UNL     1      50.599  10.205  11.089  0.00  0.00    +0.000 A 
ATOM     17  C   UNL     1      51.445   9.107  10.941  0.00  0.00    +0.000 A 
ATOM     18  C   UNL     1      50.967   7.821  11.182  0.00  0.00    +0.000 A 
ATOM     19  C   UNL     1      49.644   7.630  11.584  0.00  0.00    +0.000 A 
ENDBRANCH  13  14
ENDBRANCH  12  13
ENDBRANCH   4  12
TORSDOF 4
ENDMDL
MODEL 8
REMARK VINA RESULT:    -5.069      4.098      6.025
REMARK INTER + INTRA:          -7.077
REMARK INTER:                  -6.503
REMARK INTRA:                  -0.574
REMARK UNBOUND:                -0.824
REMARK  Name = 
REMARK  4 active torsions:
REMARK  status: ('A' for Active; 'I' for Inactive)
REMARK    1  A    between atoms: C_2  and  C_4
REMARK    2  A    between atoms: C_7  and  C_8
REMARK    3  A    between atoms: C_8  and  C_9
REMARK    4  A    between atoms: C_9  and  C_10
REMARK                            x       y       z     vdW  Elec       q    Type
REMARK                         _______ _______ _______ _____ _____    ______ ____
ROOT
ATOM      1  C   UNL     1      44.523   5.397  11.974  0.00  0.00    +0.000 A 
ATOM      2  C   UNL     1      45.098   4.977  13.175  0.00  0.00    +0.000 A 
ATOM      3  C   UNL     1      46.390   5.384  13.513  0.00  0.00    +0.000 A 
ATOM      4  C   UNL     1      47.137   6.200  12.651  0.00  0.00    +0.000 A 
ATOM      5  C   UNL     1      46.550   6.611  11.443  0.00  0.00    +0.000 A 
ATOM      6  C   UNL     1      45.258   6.204  11.100  0.00  0.00    +0.000 A 
ENDROOT
BRANCH   1   8
ATOM      7  N   UNL     1      42.169   5.937  11.714  0.00  0.00    +0.000 N 
ATOM      8  C   UNL     1      43.149   4.990  11.594  0.00  0.00    +0.000 C 
ATOM      9  O   UNL     1      42.901   3.874  11.156  0.00  0.00    +0.000 OA
ATOM     10  H   UNL     1      41.255   5.689  11.359  0.00  0.00    +0.000 HD
ATOM     11  H   UNL     1      42.380   6.920  11.820  0.00  0.00    +0.000 HD
ENDBRANCH   1   8
BRANCH   4  12
ATOM     12  C   UNL     1      48.523   6.699  13.004  0.00  0.00    +0.000 C 
BRANCH  12  13
ATOM     13  C   UNL     1      48.596   7.545  14.280  0.00  0.00    +0.000 C 
BRANCH  13  14
ATOM     14  C   UNL     1      49.432   6.897  15.355  0.00  0.00    +0.000 A 
ATOM     15  C   UNL     1      48.855   5.979  16.243  0.00  0.00    +0.000 A 
ATOM     16  C   UNL     1      49.635   5.357  17.219  0.00  0.00    +0.000 A 
ATOM     17  C   UNL     1      50.993   5.654  17.319  0.00  0.00    +0.000 A 
ATOM     18  C   UNL     1      51.570   6.580  16.453  0.00  0.00    +0.000 A 
ATOM     19  C   UNL     1      50.792   7.203  15.475  0.00  0.00    +0.000 A 
ENDBRANCH  13  14
ENDBRANCH  12  13
ENDBRANCH   4  12
TORSDOF 4
ENDMDL
MODEL 9
REMARK VINA RESULT:    -5.045      4.362      6.894
REMARK INTER + INTRA:          -7.049
REMARK INTER:                  -6.462
REMARK INTRA:                  -0.586
REMARK UNBOUND:                -0.824
REMARK  Name = 
REMARK  4 active torsions:
REMARK  status: ('A' for Active; 'I' for Inactive)
REMARK    1  A    between atoms: C_2  and  C_4
REMARK    2  A    between atoms: C_7  and  C_8
REMARK    3  A    between atoms: C_8  and  C_9
REMARK    4  A    between atoms: C_9  and  C_10
REMARK                            x       y       z     vdW  Elec       q    Type
REMARK                         _______ _______ _______ _____ _____    ______ ____
ROOT
ATOM      1  C   UNL     1      47.127   9.302  12.536  0.00  0.00    +0.000 A 
ATOM      2  C   UNL     1      45.846   9.737  12.193  0.00  0.00    +0.000 A 
ATOM      3  C   UNL     1      44.890   8.821  11.749  0.00  0.00    +0.000 A 
ATOM      4  C   UNL     1      45.203   7.460  11.620  0.00  0.00    +0.000 A 
ATOM      5  C   UNL     1      46.497   7.035  11.962  0.00  0.00    +0.000 A 
ATOM      6  C   UNL     1      47.457   7.950  12.406  0.00  0.00    +0.000 A 
ENDROOT
BRANCH   1   8
ATOM      7  N   UNL     1      48.408  10.256  14.367  0.00  0.00    +0.000 N 
ATOM      8  C   UNL     1      48.158  10.251  13.021  0.00  0.00    +0.000 C 
ATOM      9  O   UNL     1      48.789  10.971  12.257  0.00  0.00    +0.000 OA
ATOM     10  H   UNL     1      49.181  10.828  14.680  0.00  0.00    +0.000 HD
ATOM     11  H   UNL     1      48.101   9.509  14.974  0.00  0.00    +0.000 HD
ENDBRANCH   1   8
BRANCH   4  12
ATOM     12  C   UNL     1      44.181   6.430  11.186  0.00  0.00    +0.000 C 
BRANCH  12  13
ATOM     13  C   UNL     1      44.550   4.978  11.514  0.00  0.00    +0.000 C 
BRANCH  13  14
ATOM     14  C   UNL     1      44.896   4.179  10.283  0.00  0.00    +0.000 A 
ATOM     15  C   UNL     1      44.631   2.805  10.234  0.00  0.00    +0.000 A 
ATOM     16  C   UNL     1      44.925   2.070   9.084  0.00  0.00    +0.000 A 
ATOM     17  C   UNL     1      45.492   2.703   7.980  0.00  0.00    +0.000 A 
ATOM     18  C   UNL     1      45.776   4.067   8.027  0.00  0.00    +0.000 A 
ATOM     19  C   UNL     1      45.483   4.803   9.176  0.00  0.00    +0.000 A 
ENDBRANCH  13  14
ENDBRANCH  12  13
ENDBRANCH   4  12
TORSDOF 4
ENDMDL
