MODEL 1
REMARK VINA RESULT:    -8.930      0.000      0.000
REMARK INTER + INTRA:         -12.328
REMARK INTER:                 -11.540
REMARK INTRA:                  -0.788
REMARK UNBOUND:                -0.788
REMARK  Name = 
REMARK  5 active torsions:
REMARK  status: ('A' for Active; 'I' for Inactive)
REMARK    1  A    between atoms: C_2  and  C_4
REMARK    2  A    between atoms: C_7  and  N_8
REMARK    3  A    between atoms: N_8  and  C_9
REMARK    4  A    between atoms: C_9  and  C_10
REMARK    5  A    between atoms: C_14  and  C_15
REMARK                            x       y       z     vdW  Elec       q    Type
REMARK                         _______ _______ _______ _____ _____    ______ ____
ROOT
ATOM      1  C   UNL     1      43.858   3.377  11.885  0.00  0.00    +0.000 C 
ENDROOT
BRANCH   1   2
ATOM      2  C   UNL     1      45.058   4.028  12.555  0.00  0.00    +0.000 A 
ATOM      3  N   UNL     1      45.943   3.240  13.203  0.00  0.00    +0.000 NA
ATOM      4  C   UNL     1      47.007   3.865  13.737  0.00  0.00    +0.000 A 
ATOM      5  C   UNL     1      47.234   5.217  13.627  0.00  0.00    +0.000 A 
ATOM      6  C   UNL     1      46.298   5.946  12.919  0.00  0.00    +0.000 A 
ATOM      7  N   UNL     1      45.204   5.358  12.386  0.00  0.00    +0.000 NA
BRANCH   6   8
ATOM      8  C   UNL     1      46.420   7.396  12.662  0.00  0.00    +0.000 A 
ATOM      9  C   UNL     1      47.668   8.015  12.450  0.00  0.00    +0.000 A 
ATOM     10  C   UNL     1      47.769   9.382  12.163  0.00  0.00    +0.000 A 
ATOM     11  C   UNL     1      46.620  10.161  12.082  0.00  0.00    +0.000 A 
ATOM     12  C   UNL     1      45.383   9.569  12.291  0.00  0.00    +0.000 A 
ATOM     13  F   UNL     1      44.273  10.315  12.208  0.00  0.00    +0.000 F 
ATOM     14  C   UNL     1      45.275   8.209  12.577  0.00  0.00    +0.000 A 
ENDBRANCH   6   8
ENDBRANCH   1   2
BRANCH   1  15
ATOM     15  N   UNL     1      43.677   3.818  10.503  0.00  0.00    +0.000 N 
ATOM     16  H   UNL     1      42.697   3.940  10.251  0.00  0.00    +0.000 HD
BRANCH  15  20
ATOM     17  C   UNL     1      46.431   2.630   7.546  0.00  0.00    +0.000 A 
ATOM     18  C   UNL     1      45.851   1.665   8.372  0.00  0.00    +0.000 A 
ATOM     19  C   UNL     1      44.910   2.043   9.337  0.00  0.00    +0.000 A 
ATOM     20  C   UNL     1      44.509   3.377   9.482  0.00  0.00    +0.000 A 
ATOM     21  C   UNL     1      45.104   4.331   8.647  0.00  0.00    +0.000 A 
ATOM     22  C   UNL     1      46.060   3.967   7.691  0.00  0.00    +0.000 A 
BRANCH  17  24
ATOM     23  N   UNL     1      47.492   2.982   5.381  0.00  0.00    +0.000 N 
ATOM     24  C   UNL     1      47.480   2.278   6.553  0.00  0.00    +0.000 C 
ATOM     25  O   UNL     1      48.318   1.416   6.779  0.00  0.00    +0.000 OA
ATOM     26  H   UNL     1      48.262   2.794   4.753  0.00  0.00    +0.000 HD
ATOM     27  H   UNL     1      46.985   3.847   5.261  0.00  0.00    +0.000 HD
ENDBRANCH  17  24
ENDBRANCH  15  20
ENDBRANCH   1  15
TORSDOF 5
ENDMDL
MODEL 2
REMARK VINA RESULT:    -8.880      1.637      1.953
REMARK INTER + INTRA:         -12.263
REMARK INTER:                 -11.513
REMARK INTRA:                  -0.750
REMARK UNBOUND:                -0.788
REMARK  Name = 
REMARK  5 active torsions:
REMARK  status: ('A' for Active; 'I' for Inactive)
REMARK    1  A    between atoms: C_2  and  C_4
REMARK    2  A    between atoms: C_7  and  N_8
REMARK    3  A    between atoms: N_8  and  C_9
REMARK    4  A    between atoms: C_9  and  C_10
REMARK    5  A    between atoms: C_14  and  C_15
REMARK                            x       y       z     vdW  Elec       q    Type
REMARK                         _______ _______ _______ _____ _____    ______ ____
ROOT
ATOM      1  C   UNL     1      43.640   4.496  11.510  0.00  0.00    +0.000 C 
ENDROOT
BRANCH   1   2
ATOM      2  C   UNL     1      44.886   4.846  12.310  0.00  0.00    +0.000 A 
ATOM      3  N   UNL     1      45.359   3.944  13.196  0.00  0.00    +0.000 NA
ATOM      4  C   UNL     1      46.489   4.288  13.841  0.00  0.00    +0.000 A 
ATOM      5  C   UNL     1      47.167   5.463  13.618  0.00  0.00    +0.000 A 
ATOM      6  C   UNL     1      46.635   6.316  12.671  0.00  0.00    +0.000 A 
ATOM      7  N   UNL     1      45.490   6.016  12.018  0.00  0.00    +0.000 NA
BRANCH   6   8
ATOM      8  C   UNL     1      47.268   7.591  12.275  0.00  0.00    +0.000 A 
ATOM      9  C   UNL     1      46.585   8.821  12.352  0.00  0.00    +0.000 A 
ATOM     10  C   UNL     1      47.210  10.028  12.016  0.00  0.00    +0.000 A 
ATOM     11  C   UNL     1      48.535  10.031  11.594  0.00  0.00    +0.000 A 
ATOM     12  C   UNL     1      49.222   8.829  11.510  0.00  0.00    +0.000 A 
ATOM     13  F   UNL     1      50.501   8.828  11.109  0.00  0.00    +0.000 F 
ATOM     14  C   UNL     1      48.608   7.624  11.842  0.00  0.00    +0.000 A 
ENDBRANCH   6   8
ENDBRANCH   1   2
BRANCH   1  15
ATOM     15  N   UNL     1      43.805   4.735  10.078  0.00  0.00    +0.000 N 
ATOM     16  H   UNL     1      42.972   5.130   9.643  0.00  0.00    +0.000 HD
BRANCH  15  20
ATOM     17  C   UNL     1      46.321   2.254   7.786  0.00  0.00    +0.000 A 
ATOM     18  C   UNL     1      45.437   1.678   8.701  0.00  0.00    +0.000 A 
ATOM     19  C   UNL     1      44.573   2.490   9.445  0.00  0.00    +0.000 A 
ATOM     20  C   UNL     1      44.551   3.880   9.278  0.00  0.00    +0.000 A 
ATOM     21  C   UNL     1      45.448   4.440   8.357  0.00  0.00    +0.000 A 
ATOM     22  C   UNL     1      46.330   3.639   7.621  0.00  0.00    +0.000 A 
BRANCH  17  24
ATOM     23  N   UNL     1      48.434   2.058   6.588  0.00  0.00    +0.000 N 
ATOM     24  C   UNL     1      47.298   1.433   7.024  0.00  0.00    +0.000 C 
ATOM     25  O   UNL     1      47.115   0.241   6.814  0.00  0.00    +0.000 OA
ATOM     26  H   UNL     1      49.128   1.469   6.149  0.00  0.00    +0.000 HD
ATOM     27  H   UNL     1      48.731   2.955   6.943  0.00  0.00    +0.000 HD
ENDBRANCH  17  24
ENDBRANCH  15  20
ENDBRANCH   1  15
TORSDOF 5
ENDMDL
MODEL 3
REMARK VINA RESULT:    -8.517      2.727      3.992
REMARK INTER + INTRA:         -11.794
REMARK INTER:                 -11.264
REMARK INTRA:                  -0.530
REMARK UNBOUND:                -0.788
REMARK  Name = 
REMARK  5 active torsions:
REMARK  status: ('A' for Active; 'I' for Inactive)
REMARK    1  A    between atoms: C_2  and  C_4
REMARK    2  A    between atoms: C_7  and  N_8
REMARK    3  A    between atoms: N_8  and  C_9
REMARK    4  A    between atoms: C_9  and  C_10
REMARK    5  A    between atoms: C_14  and  C_15
REMARK                            x       y       z     vdW  Elec       q    Type
REMARK                         _______ _______ _______ _____ _____    ______ ____
ROOT
ATOM      1  C   UNL     1      44.181   4.509  11.844  0.00  0.00    +0.000 C 
ENDROOT
BRANCH   1   2
ATOM      2  C   UNL     1      45.460   5.200  12.293  0.00  0.00    +0.000 A 
ATOM      3  N   UNL     1      45.957   6.197  11.530  0.00  0.00    +0.000 NA
ATOM      4  C   UNL     1      47.064   6.801  11.999  0.00  0.00    +0.000 A 
ATOM      5  C   UNL     1      47.666   6.474  13.191  0.00  0.00    +0.000 A 
ATOM      6  C   UNL     1      47.075   5.466  13.927  0.00  0.00    +0.000 A 
ATOM      7  N   UNL     1      45.974   4.820  13.480  0.00  0.00    +0.000 NA
BRANCH   6   8
ATOM      8  C   UNL     1      47.562   5.031  15.252  0.00  0.00    +0.000 A 
ATOM      9  C   UNL     1      48.542   5.754  15.962  0.00  0.00    +0.000 A 
ATOM     10  C   UNL     1      48.965   5.357  17.237  0.00  0.00    +0.000 A 
ATOM     11  C   UNL     1      48.415   4.226  17.831  0.00  0.00    +0.000 A 
ATOM     12  C   UNL     1      47.451   3.501  17.145  0.00  0.00    +0.000 A 
ATOM     13  F   UNL     1      46.916   2.414  17.716  0.00  0.00    +0.000 F 
ATOM     14  C   UNL     1      47.026   3.889  15.877  0.00  0.00    +0.000 A 
ENDBRANCH   6   8
ENDBRANCH   1   2
BRANCH   1  15
ATOM     15  N   UNL     1      43.954   4.624  10.404  0.00  0.00    +0.000 N 
ATOM     16  H   UNL     1      42.976   4.784  10.168  0.00  0.00    +0.000 HD
BRANCH  15  20
ATOM     17  C   UNL     1      46.399   2.447   7.753  0.00  0.00    +0.000 A 
ATOM     18  C   UNL     1      45.637   1.764   8.704  0.00  0.00    +0.000 A 
ATOM     19  C   UNL     1      44.796   2.474   9.569  0.00  0.00    +0.000 A 
ATOM     20  C   UNL     1      44.675   3.867   9.491  0.00  0.00    +0.000 A 
ATOM     21  C   UNL     1      45.450   4.535   8.533  0.00  0.00    +0.000 A 
ATOM     22  C   UNL     1      46.309   3.838   7.675  0.00  0.00    +0.000 A 
BRANCH  17  24
ATOM     23  N   UNL     1      48.460   2.426   6.455  0.00  0.00    +0.000 N 
ATOM     24  C   UNL     1      47.351   1.738   6.860  0.00  0.00    +0.000 C 
ATOM     25  O   UNL     1      47.170   0.576   6.517  0.00  0.00    +0.000 OA
ATOM     26  H   UNL     1      49.142   1.903   5.921  0.00  0.00    +0.000 HD
ATOM     27  H   UNL     1      48.764   3.279   6.902  0.00  0.00    +0.000 HD
ENDBRANCH  17  24
ENDBRANCH  15  20
ENDBRANCH   1  15
TORSDOF 5
ENDMDL
MODEL 4
REMARK VINA RESULT:    -8.253      2.587      4.101
REMARK INTER + INTRA:         -11.454
REMARK INTER:                 -10.929
REMARK INTRA:                  -0.525
REMARK UNBOUND:                -0.788
REMARK  Name = 
REMARK  5 active torsions:
REMARK  status: ('A' for Active; 'I' for Inactive)
REMARK    1  A    between atoms: C_2  and  C_4
REMARK    2  A    between atoms: C_7  and  N_8
REMARK    3  A    between atoms: N_8  and  C_9
REMARK    4  A    between atoms: C_9  and  C_10
REMARK    5  A    between atoms: C_14  and  C_15
REMARK                            x       y       z     vdW  Elec       q    Type
REMARK                         _______ _______ _______ _____ _____    ______ ____
ROOT
ATOM      1  C   UNL     1      44.303   3.815  12.064  0.00  0.00    +0.000 C 
ENDROOT
BRANCH   1   2
ATOM      2  C   UNL     1      45.442   4.679  12.584  0.00  0.00    +0.000 A 
ATOM      3  N   UNL     1      45.724   5.832  11.939  0.00  0.00    +0.000 NA
ATOM      4  C   UNL     1      46.710   6.577  12.469  0.00  0.00    +0.000 A 
ATOM      5  C   UNL     1      47.393   6.238  13.614  0.00  0.00    +0.000 A 
ATOM      6  C   UNL     1      47.020   5.059  14.231  0.00  0.00    +0.000 A 
ATOM      7  N   UNL     1      46.049   4.272  13.717  0.00  0.00    +0.000 NA
BRANCH   6   8
ATOM      8  C   UNL     1      47.615   4.579  15.495  0.00  0.00    +0.000 A 
ATOM      9  C   UNL     1      47.574   3.221  15.872  0.00  0.00    +0.000 A 
ATOM     10  C   UNL     1      48.180   2.769  17.051  0.00  0.00    +0.000 A 
ATOM     11  C   UNL     1      48.842   3.667  17.880  0.00  0.00    +0.000 A 
ATOM     12  C   UNL     1      48.891   5.008  17.526  0.00  0.00    +0.000 A 
ATOM     13  F   UNL     1      49.533   5.876  18.319  0.00  0.00    +0.000 F 
ATOM     14  C   UNL     1      48.290   5.466  16.355  0.00  0.00    +0.000 A 
ENDBRANCH   6   8
ENDBRANCH   1   2
BRANCH   1  15
ATOM     15  N   UNL     1      43.964   4.107  10.673  0.00  0.00    +0.000 N 
ATOM     16  H   UNL     1      42.959   4.188  10.518  0.00  0.00    +0.000 HD
BRANCH  15  20
ATOM     17  C   UNL     1      46.426   2.620   7.596  0.00  0.00    +0.000 A 
ATOM     18  C   UNL     1      45.802   1.727   8.469  0.00  0.00    +0.000 A 
ATOM     19  C   UNL     1      44.956   2.207   9.475  0.00  0.00    +0.000 A 
ATOM     20  C   UNL     1      44.693   3.575   9.618  0.00  0.00    +0.000 A 
ATOM     21  C   UNL     1      45.331   4.456   8.735  0.00  0.00    +0.000 A 
ATOM     22  C   UNL     1      46.194   3.989   7.737  0.00  0.00    +0.000 A 
BRANCH  17  24
ATOM     23  N   UNL     1      47.525   2.940   5.445  0.00  0.00    +0.000 N 
ATOM     24  C   UNL     1      47.381   2.157   6.556  0.00  0.00    +0.000 C 
ATOM     25  O   UNL     1      48.035   1.131   6.692  0.00  0.00    +0.000 OA
ATOM     26  H   UNL     1      48.241   2.660   4.788  0.00  0.00    +0.000 HD
ATOM     27  H   UNL     1      47.197   3.895   5.407  0.00  0.00    +0.000 HD
ENDBRANCH  17  24
ENDBRANCH  15  20
ENDBRANCH   1  15
TORSDOF 5
ENDMDL
MODEL 5
REMARK VINA RESULT:    -8.058      3.630      6.958
REMARK INTER + INTRA:         -11.201
REMARK INTER:                 -10.525
REMARK INTRA:                  -0.677
REMARK UNBOUND:                -0.788
REMARK  Name = 
REMARK  5 active torsions:
REMARK  status: ('A' for Active; 'I' for Inactive)
REMARK    1  A    between atoms: C_2  and  C_4
REMARK    2  A    between atoms: C_7  and  N_8
REMARK    3  A    between atoms: N_8  and  C_9
REMARK    4  A    between atoms: C_9  and  C_10
REMARK    5  A    between atoms: C_14  and  C_15
REMARK                            x       y       z     vdW  Elec       q    Type
REMARK                         _______ _______ _______ _____ _____    ______ ____
ROOT
ATOM      1  C   UNL     1      44.012   6.619  11.425  0.00  0.00    +0.000 C 
ENDROOT
BRANCH   1   2
ATOM      2  C   UNL     1      44.025   5.116  11.196  0.00  0.00    +0.000 A 
ATOM      3  N   UNL     1      43.260   4.334  11.987  0.00  0.00    +0.000 NA
ATOM      4  C   UNL     1      43.276   3.018  11.709  0.00  0.00    +0.000 A 
ATOM      5  C   UNL     1      43.991   2.466  10.672  0.00  0.00    +0.000 A 
ATOM      6  C   UNL     1      44.721   3.338   9.889  0.00  0.00    +0.000 A 
ATOM      7  N   UNL     1      44.747   4.665  10.150  0.00  0.00    +0.000 NA
BRANCH   6   8
ATOM      8  C   UNL     1      45.499   2.915   8.706  0.00  0.00    +0.000 A 
ATOM      9  C   UNL     1      45.914   3.831   7.718  0.00  0.00    +0.000 A 
ATOM     10  C   UNL     1      46.689   3.426   6.624  0.00  0.00    +0.000 A 
ATOM     11  C   UNL     1      47.066   2.094   6.494  0.00  0.00    +0.000 A 
ATOM     12  C   UNL     1      46.664   1.179   7.456  0.00  0.00    +0.000 A 
ATOM     13  F   UNL     1      47.030  -0.104   7.337  0.00  0.00    +0.000 F 
ATOM     14  C   UNL     1      45.893   1.573   8.547  0.00  0.00    +0.000 A 
ENDBRANCH   6   8
ENDBRANCH   1   2
BRANCH   1  15
ATOM     15  N   UNL     1      44.703   7.008  12.654  0.00  0.00    +0.000 N 
ATOM     16  H   UNL     1      44.113   7.545  13.288  0.00  0.00    +0.000 HD
BRANCH  15  20
ATOM     17  C   UNL     1      48.829   7.827  12.433  0.00  0.00    +0.000 A 
ATOM     18  C   UNL     1      47.911   8.827  12.104  0.00  0.00    +0.000 A 
ATOM     19  C   UNL     1      46.538   8.577  12.205  0.00  0.00    +0.000 A 
ATOM     20  C   UNL     1      46.050   7.344  12.656  0.00  0.00    +0.000 A 
ATOM     21  C   UNL     1      46.986   6.352  12.978  0.00  0.00    +0.000 A 
ATOM     22  C   UNL     1      48.362   6.584  12.863  0.00  0.00    +0.000 A 
BRANCH  17  24
ATOM     23  N   UNL     1      50.912   7.370  11.255  0.00  0.00    +0.000 N 
ATOM     24  C   UNL     1      50.293   8.030  12.279  0.00  0.00    +0.000 C 
ATOM     25  O   UNL     1      50.921   8.778  13.018  0.00  0.00    +0.000 OA
ATOM     26  H   UNL     1      51.889   7.586  11.108  0.00  0.00    +0.000 HD
ATOM     27  H   UNL     1      50.402   6.949  10.492  0.00  0.00    +0.000 HD
ENDBRANCH  17  24
ENDBRANCH  15  20
ENDBRANCH   1  15
TORSDOF 5
ENDMDL
MODEL 6
REMARK VINA RESULT:    -7.860      3.815      7.518
REMARK INTER + INTRA:         -10.946
REMARK INTER:                 -10.604
REMARK INTRA:                  -0.342
REMARK UNBOUND:                -0.788
REMARK  Name = 
REMARK  5 active torsions:
REMARK  status: ('A' for Active; 'I' for Inactive)
REMARK    1  A    between atoms: C_2  and  C_4
REMARK    2  A    between atoms: C_7  and  N_8
REMARK    3  A    between atoms: N_8  and  C_9
REMARK    4  A    between atoms: C_9  and  C_10
REMARK    5  A    between atoms: C_14  and  C_15
REMARK                            x       y       z     vdW  Elec       q    Type
REMARK                         _______ _______ _______ _____ _____    ______ ____
ROOT
ATOM      1  C   UNL     1      46.143   7.240  11.635  0.00  0.00    +0.000 C 
ENDROOT
BRANCH   1   2
ATOM      2  C   UNL     1      45.256   6.135  11.082  0.00  0.00    +0.000 A 
ATOM      3  N   UNL     1      43.958   6.102  11.454  0.00  0.00    +0.000 NA
ATOM      4  C   UNL     1      43.211   5.132  10.898  0.00  0.00    +0.000 A 
ATOM      5  C   UNL     1      43.692   4.227   9.981  0.00  0.00    +0.000 A 
ATOM      6  C   UNL     1      45.022   4.351   9.628  0.00  0.00    +0.000 A 
ATOM      7  N   UNL     1      45.811   5.300  10.180  0.00  0.00    +0.000 NA
BRANCH   6   8
ATOM      8  C   UNL     1      45.680   3.497   8.619  0.00  0.00    +0.000 A 
ATOM      9  C   UNL     1      46.332   4.037   7.492  0.00  0.00    +0.000 A 
ATOM     10  C   UNL     1      46.991   3.221   6.565  0.00  0.00    +0.000 A 
ATOM     11  C   UNL     1      47.013   1.842   6.744  0.00  0.00    +0.000 A 
ATOM     12  C   UNL     1      46.373   1.292   7.847  0.00  0.00    +0.000 A 
ATOM     13  F   UNL     1      46.396  -0.035   8.026  0.00  0.00    +0.000 F 
ATOM     14  C   UNL     1      45.715   2.098   8.773  0.00  0.00    +0.000 A 
ENDBRANCH   6   8
ENDBRANCH   1   2
BRANCH   1  15
ATOM     15  N   UNL     1      47.379   6.728  12.224  0.00  0.00    +0.000 N 
ATOM     16  H   UNL     1      48.020   6.345  11.531  0.00  0.00    +0.000 HD
BRANCH  15  20
ATOM     17  C   UNL     1      47.554   4.587  15.847  0.00  0.00    +0.000 A 
ATOM     18  C   UNL     1      48.275   5.775  15.716  0.00  0.00    +0.000 A 
ATOM     19  C   UNL     1      48.200   6.512  14.528  0.00  0.00    +0.000 A 
ATOM     20  C   UNL     1      47.390   6.101  13.462  0.00  0.00    +0.000 A 
ATOM     21  C   UNL     1      46.676   4.904  13.612  0.00  0.00    +0.000 A 
ATOM     22  C   UNL     1      46.758   4.148  14.787  0.00  0.00    +0.000 A 
BRANCH  17  24
ATOM     23  N   UNL     1      48.813   3.825  17.788  0.00  0.00    +0.000 N 
ATOM     24  C   UNL     1      47.656   3.742  17.066  0.00  0.00    +0.000 C 
ATOM     25  O   UNL     1      46.736   3.021  17.429  0.00  0.00    +0.000 OA
ATOM     26  H   UNL     1      48.835   3.313  18.661  0.00  0.00    +0.000 HD
ATOM     27  H   UNL     1      49.481   4.572  17.662  0.00  0.00    +0.000 HD
ENDBRANCH  17  24
ENDBRANCH  15  20
ENDBRANCH   1  15
TORSDOF 5
ENDMDL
MODEL 7
REMARK VINA RESULT:    -7.689      2.306      3.224
REMARK INTER + INTRA:         -10.724
REMARK INTER:                 -10.139
REMARK INTRA:                  -0.585
REMARK UNBOUND:                -0.788
REMARK  Name = 
REMARK  5 active torsions:
REMARK  status: ('A' for Active; 'I' for Inactive)
REMARK    1  A    between atoms: C_2  and  C_4
REMARK    2  A    between atoms: C_7  and  N_8
REMARK    3  A    between atoms: N_8  and  C_9
REMARK    4  A    between atoms: C_9  and  C_10
REMARK    5  A    between atoms: C_14  and  C_15
REMARK                            x       y       z     vdW  Elec       q    Type
REMARK                         _______ _______ _______ _____ _____    ______ ____
ROOT
ATOM      1  C   UNL     1      44.393   5.153  11.523  0.00  0.00    +0.000 C 
ENDROOT
BRANCH   1   2
ATOM      2  C   UNL     1      44.998   6.539  11.683  0.00  0.00    +0.000 A 
ATOM      3  N   UNL     1      44.242   7.614  11.373  0.00  0.00    +0.000 NA
ATOM      4  C   UNL     1      44.812   8.815  11.577  0.00  0.00    +0.000 A 
ATOM      5  C   UNL     1      46.074   8.982  12.097  0.00  0.00    +0.000 A 
ATOM      6  C   UNL     1      46.769   7.832  12.419  0.00  0.00    +0.000 A 
ATOM      7  N   UNL     1      46.237   6.607  12.209  0.00  0.00    +0.000 NA
BRANCH   6   8
ATOM      8  C   UNL     1      48.111   7.838  13.036  0.00  0.00    +0.000 A 
ATOM      9  C   UNL     1      49.156   8.646  12.545  0.00  0.00    +0.000 A 
ATOM     10  C   UNL     1      50.412   8.676  13.164  0.00  0.00    +0.000 A 
ATOM     11  C   UNL     1      50.650   7.898  14.291  0.00  0.00    +0.000 A 
ATOM     12  C   UNL     1      49.633   7.094  14.787  0.00  0.00    +0.000 A 
ATOM     13  F   UNL     1      49.857   6.347  15.876  0.00  0.00    +0.000 F 
ATOM     14  C   UNL     1      48.381   7.058  14.177  0.00  0.00    +0.000 A 
ENDBRANCH   6   8
ENDBRANCH   1   2
BRANCH   1  15
ATOM     15  N   UNL     1      43.972   4.877  10.150  0.00  0.00    +0.000 N 
ATOM     16  H   UNL     1      42.959   4.858  10.042  0.00  0.00    +0.000 HD
BRANCH  15  20
ATOM     17  C   UNL     1      46.375   2.333   7.805  0.00  0.00    +0.000 A 
ATOM     18  C   UNL     1      45.475   1.780   8.718  0.00  0.00    +0.000 A 
ATOM     19  C   UNL     1      44.648   2.613   9.480  0.00  0.00    +0.000 A 
ATOM     20  C   UNL     1      44.679   4.006   9.333  0.00  0.00    +0.000 A 
ATOM     21  C   UNL     1      45.591   4.543   8.414  0.00  0.00    +0.000 A 
ATOM     22  C   UNL     1      46.436   3.720   7.661  0.00  0.00    +0.000 A 
BRANCH  17  24
ATOM     23  N   UNL     1      48.464   2.077   6.578  0.00  0.00    +0.000 N 
ATOM     24  C   UNL     1      47.314   1.487   7.024  0.00  0.00    +0.000 C 
ATOM     25  O   UNL     1      47.088   0.304   6.808  0.00  0.00    +0.000 OA
ATOM     26  H   UNL     1      49.133   1.468   6.126  0.00  0.00    +0.000 HD
ATOM     27  H   UNL     1      48.796   2.961   6.937  0.00  0.00    +0.000 HD
ENDBRANCH  17  24
ENDBRANCH  15  20
ENDBRANCH   1  15
TORSDOF 5
ENDMDL
MODEL 8
REMARK VINA RESULT:    -7.661      2.112      2.903
REMARK INTER + INTRA:         -10.688
REMARK INTER:                 -10.155
REMARK INTRA:                  -0.533
REMARK UNBOUND:                -0.788
REMARK  Name = 
REMARK  5 active torsions:
REMARK  status: ('A' for Active; 'I' for Inactive)
REMARK    1  A    between atoms: C_2  and  C_4
REMARK    2  A    between atoms: C_7  and  N_8
REMARK    3  A    between atoms: N_8  and  C_9
REMARK    4  A    between atoms: C_9  and  C_10
REMARK    5  A    between atoms: C_14  and  C_15
REMARK                            x       y       z     vdW  Elec       q    Type
REMARK                         _______ _______ _______ _____ _____    ______ ____
ROOT
ATOM      1  C   UNL     1      43.936   2.854  11.634  0.00  0.00    +0.000 C 
ENDROOT
BRANCH   1   2
ATOM      2  C   UNL     1      44.165   4.357  11.589  0.00  0.00    +0.000 A 
ATOM      3  N   UNL     1      43.121   5.161  11.291  0.00  0.00    +0.000 NA
ATOM      4  C   UNL     1      43.370   6.482  11.312  0.00  0.00    +0.000 A 
ATOM      5  C   UNL     1      44.591   7.024  11.640  0.00  0.00    +0.000 A 
ATOM      6  C   UNL     1      45.597   6.135  11.965  0.00  0.00    +0.000 A 
ATOM      7  N   UNL     1      45.391   4.799  11.936  0.00  0.00    +0.000 NA
BRANCH   6   8
ATOM      8  C   UNL     1      46.947   6.553  12.393  0.00  0.00    +0.000 A 
ATOM      9  C   UNL     1      47.805   7.288  11.549  0.00  0.00    +0.000 A 
ATOM     10  C   UNL     1      49.066   7.717  11.980  0.00  0.00    +0.000 A 
ATOM     11  C   UNL     1      49.498   7.421  13.268  0.00  0.00    +0.000 A 
ATOM     12  C   UNL     1      48.668   6.696  14.112  0.00  0.00    +0.000 A 
ATOM     13  F   UNL     1      49.078   6.413  15.355  0.00  0.00    +0.000 F 
ATOM     14  C   UNL     1      47.412   6.265  13.690  0.00  0.00    +0.000 A 
ENDBRANCH   6   8
ENDBRANCH   1   2
BRANCH   1  15
ATOM     15  N   UNL     1      43.773   2.270  10.304  0.00  0.00    +0.000 N 
ATOM     16  H   UNL     1      43.337   1.349  10.326  0.00  0.00    +0.000 HD
BRANCH  15  20
ATOM     17  C   UNL     1      46.489   2.637   7.105  0.00  0.00    +0.000 A 
ATOM     18  C   UNL     1      45.639   3.702   7.411  0.00  0.00    +0.000 A 
ATOM     19  C   UNL     1      44.755   3.604   8.492  0.00  0.00    +0.000 A 
ATOM     20  C   UNL     1      44.715   2.463   9.302  0.00  0.00    +0.000 A 
ATOM     21  C   UNL     1      45.573   1.403   8.978  0.00  0.00    +0.000 A 
ATOM     22  C   UNL     1      46.448   1.482   7.888  0.00  0.00    +0.000 A 
BRANCH  17  24
ATOM     23  N   UNL     1      48.677   2.233   6.112  0.00  0.00    +0.000 N 
ATOM     24  C   UNL     1      47.396   2.676   5.929  0.00  0.00    +0.000 C 
ATOM     25  O   UNL     1      47.014   3.061   4.832  0.00  0.00    +0.000 OA
ATOM     26  H   UNL     1      49.256   2.182   5.285  0.00  0.00    +0.000 HD
ATOM     27  H   UNL     1      48.954   1.691   6.918  0.00  0.00    +0.000 HD
ENDBRANCH  17  24
ENDBRANCH  15  20
ENDBRANCH   1  15
TORSDOF 5
ENDMDL
MODEL 9
REMARK VINA RESULT:    -7.616      4.642      8.340
REMARK INTER + INTRA:         -10.630
REMARK INTER:                 -10.175
REMARK INTRA:                  -0.455
REMARK UNBOUND:                -0.788
REMARK  Name = 
REMARK  5 active torsions:
REMARK  status: ('A' for Active; 'I' for Inactive)
REMARK    1  A    between atoms: C_2  and  C_4
REMARK    2  A    between atoms: C_7  and  N_8
REMARK    3  A    between atoms: N_8  and  C_9
REMARK    4  A    between atoms: C_9  and  C_10
REMARK    5  A    between atoms: C_14  and  C_15
REMARK                            x       y       z     vdW  Elec       q    Type
REMARK                         _______ _______ _______ _____ _____    ______ ____
ROOT
ATOM      1  C   UNL     1      46.168   5.325  13.861  0.00  0.00    +0.000 C 
ENDROOT
BRANCH   1   2
ATOM      2  C   UNL     1      45.128   4.983  12.804  0.00  0.00    +0.000 A 
ATOM      3  N   UNL     1      43.846   5.350  13.016  0.00  0.00    +0.000 NA
ATOM      4  C   UNL     1      42.980   5.064  12.029  0.00  0.00    +0.000 A 
ATOM      5  C   UNL     1      43.341   4.460  10.847  0.00  0.00    +0.000 A 
ATOM      6  C   UNL     1      44.678   4.147  10.695  0.00  0.00    +0.000 A 
ATOM      7  N   UNL     1      45.576   4.401  11.674  0.00  0.00    +0.000 NA
BRANCH   6   8
ATOM      8  C   UNL     1      45.239   3.547   9.467  0.00  0.00    +0.000 A 
ATOM      9  C   UNL     1      45.713   4.335   8.399  0.00  0.00    +0.000 A 
ATOM     10  C   UNL     1      46.284   3.757   7.259  0.00  0.00    +0.000 A 
ATOM     11  C   UNL     1      46.395   2.374   7.162  0.00  0.00    +0.000 A 
ATOM     12  C   UNL     1      45.932   1.582   8.204  0.00  0.00    +0.000 A 
ATOM     13  F   UNL     1      46.042   0.250   8.117  0.00  0.00    +0.000 F 
ATOM     14  C   UNL     1      45.362   2.150   9.341  0.00  0.00    +0.000 A 
ENDBRANCH   6   8
ENDBRANCH   1   2
BRANCH   1  15
ATOM     15  N   UNL     1      46.720   4.138  14.512  0.00  0.00    +0.000 N 
ATOM     16  H   UNL     1      46.161   3.301  14.351  0.00  0.00    +0.000 HD
BRANCH  15  20
ATOM     17  C   UNL     1      48.439   4.595  18.330  0.00  0.00    +0.000 A 
ATOM     18  C   UNL     1      47.736   3.427  18.029  0.00  0.00    +0.000 A 
ATOM     19  C   UNL     1      47.188   3.249  16.753  0.00  0.00    +0.000 A 
ATOM     20  C   UNL     1      47.348   4.211  15.748  0.00  0.00    +0.000 A 
ATOM     21  C   UNL     1      48.054   5.378  16.071  0.00  0.00    +0.000 A 
ATOM     22  C   UNL     1      48.591   5.575  17.349  0.00  0.00    +0.000 A 
BRANCH  17  24
ATOM     23  N   UNL     1      48.665   3.949  20.669  0.00  0.00    +0.000 N 
ATOM     24  C   UNL     1      48.981   4.849  19.690  0.00  0.00    +0.000 C 
ATOM     25  O   UNL     1      49.705   5.808  19.927  0.00  0.00    +0.000 OA
ATOM     26  H   UNL     1      49.112   4.086  21.566  0.00  0.00    +0.000 HD
ATOM     27  H   UNL     1      48.285   3.036  20.465  0.00  0.00    +0.000 HD
ENDBRANCH  17  24
ENDBRANCH  15  20
ENDBRANCH   1  15
TORSDOF 5
ENDMDL
