MODEL 1
REMARK VINA RESULT:    -7.193      0.000      0.000
REMARK INTER + INTRA:         -13.149
REMARK INTER:                 -11.608
REMARK INTRA:                  -1.541
REMARK UNBOUND:                -1.541
REMARK  Name = 
REMARK  11 active torsions:
REMARK  status: ('A' for Active; 'I' for Inactive)
REMARK    1  A    between atoms: N_1  and  C_2
REMARK    2  A    between atoms: C_2  and  C_3
REMARK    3  A    between atoms: C_3  and  C_4
REMARK    4  A    between atoms: C_4  and  C_5
REMARK    5  A    between atoms: C_5  and  N_6
REMARK    6  A    between atoms: C_5  and  C_28
REMARK    7  A    between atoms: N_6  and  C_7
REMARK    8  A    between atoms: C_7  and  C_8
REMARK    9  A    between atoms: C_11  and  C_12
REMARK   10  A    between atoms: C_12  and  N_13
REMARK   11  A    between atoms: C_14  and  C_16
REMARK                            x       y       z     vdW  Elec       q    Type
REMARK                         _______ _______ _______ _____ _____    ______ ____
ROOT
ATOM      1  C   UNL     1      45.487   6.898  11.308  0.00  0.00    +0.000 A 
ATOM      2  C   UNL     1      45.041   8.045  11.968  0.00  0.00    +0.000 A 
ATOM      3  C   UNL     1      45.823   8.613  12.969  0.00  0.00    +0.000 A 
ATOM      4  C   UNL     1      47.045   8.022  13.279  0.00  0.00    +0.000 A 
ATOM      5  N   UNL     1      47.473   6.877  12.690  0.00  0.00    +0.000 NA
ATOM      6  C   UNL     1      46.689   6.345  11.727  0.00  0.00    +0.000 A 
ENDROOT
BRANCH   1   7
ATOM      7  C   UNL     1      44.667   6.247  10.232  0.00  0.00    +0.000 C 
BRANCH   7   8
ATOM      8  N   UNL     1      45.488   5.408   9.354  0.00  0.00    +0.000 NA
ATOM      9  H   UNL     1      46.471   5.638   9.524  0.00  0.00    +0.000 HD
BRANCH   8  10
ATOM     10  C   UNL     1      45.330   3.960   9.653  0.00  0.00    +0.000 C 
BRANCH  10  11
ATOM     11  C   UNL     1      45.916   3.115   8.514  0.00  0.00    +0.000 A 
ATOM     12  C   UNL     1      46.321   3.702   7.311  0.00  0.00    +0.000 A 
ATOM     13  C   UNL     1      46.847   2.897   6.301  0.00  0.00    +0.000 A 
ATOM     14  C   UNL     1      46.976   1.532   6.516  0.00  0.00    +0.000 A 
ATOM     15  C   UNL     1      46.569   1.027   7.739  0.00  0.00    +0.000 A 
ATOM     16  N   UNL     1      46.040   1.779   8.733  0.00  0.00    +0.000 NA
ENDBRANCH  10  11
BRANCH  10  17
ATOM     17  C   UNL     1      43.851   3.599   9.931  0.00  0.00    +0.000 C 
BRANCH  17  18
ATOM     18  C   UNL     1      43.579   2.840  11.234  0.00  0.00    +0.000 C 
BRANCH  18  19
ATOM     19  C   UNL     1      43.757   3.669  12.507  0.00  0.00    +0.000 C 
BRANCH  19  20
ATOM     20  N   UNL     1      42.639   4.583  12.728  0.00  0.00    +0.000 NA
ATOM     21  H   UNL     1      42.997   5.464  13.099  0.00  0.00    +0.000 HD
ATOM     22  H   UNL     1      42.025   4.205  13.449  0.00  0.00    +0.000 HD
ENDBRANCH  19  20
ENDBRANCH  18  19
ENDBRANCH  17  18
ENDBRANCH  10  17
ENDBRANCH   8  10
ENDBRANCH   7   8
ENDBRANCH   1   7
BRANCH   4  23
ATOM     23  C   UNL     1      47.941   8.638  14.325  0.00  0.00    +0.000 C 
BRANCH  23  24
ATOM     24  N   UNL     1      48.182   7.726  15.416  0.00  0.00    +0.000 N 
ATOM     25  C   UNL     1      49.368   7.054  15.542  0.00  0.00    +0.000 C 
ATOM     26  O   UNL     1      50.318   7.258  14.790  0.00  0.00    +0.000 OA
ATOM     27  H   UNL     1      47.350   7.373  15.880  0.00  0.00    +0.000 HD
BRANCH  25  28
ATOM     28  C   UNL     1      49.479   6.132  16.677  0.00  0.00    +0.000 A 
ATOM     29  C   UNL     1      50.474   6.329  17.625  0.00  0.00    +0.000 A 
ATOM     30  S   UNL     1      50.425   5.208  18.908  0.00  0.00    +0.000 S 
ATOM     31  C   UNL     1      49.107   4.389  18.213  0.00  0.00    +0.000 A 
ATOM     32  N   UNL     1      48.573   3.292  18.814  0.00  0.00    +0.000 NA
ATOM     33  C   UNL     1      47.600   2.751  18.160  0.00  0.00    +0.000 A 
ATOM     34  N   UNL     1      47.108   3.208  16.968  0.00  0.00    +0.000 N 
ATOM     35  C   UNL     1      47.596   4.329  16.338  0.00  0.00    +0.000 A 
ATOM     36  O   UNL     1      47.107   4.738  15.290  0.00  0.00    +0.000 OA
ATOM     37  C   UNL     1      48.700   4.970  17.027  0.00  0.00    +0.000 A 
ATOM     38  H   UNL     1      46.338   2.742  16.509  0.00  0.00    +0.000 HD
ENDBRANCH  25  28
ENDBRANCH  23  24
ENDBRANCH   4  23
TORSDOF 11
ENDMDL
MODEL 2
REMARK VINA RESULT:    -7.023      2.849      4.109
REMARK INTER + INTRA:         -12.875
REMARK INTER:                 -11.285
REMARK INTRA:                  -1.590
REMARK UNBOUND:                -1.541
REMARK  Name = 
REMARK  11 active torsions:
REMARK  status: ('A' for Active; 'I' for Inactive)
REMARK    1  A    between atoms: N_1  and  C_2
REMARK    2  A    between atoms: C_2  and  C_3
REMARK    3  A    between atoms: C_3  and  C_4
REMARK    4  A    between atoms: C_4  and  C_5
REMARK    5  A    between atoms: C_5  and  N_6
REMARK    6  A    between atoms: C_5  and  C_28
REMARK    7  A    between atoms: N_6  and  C_7
REMARK    8  A    between atoms: C_7  and  C_8
REMARK    9  A    between atoms: C_11  and  C_12
REMARK   10  A    between atoms: C_12  and  N_13
REMARK   11  A    between atoms: C_14  and  C_16
REMARK                            x       y       z     vdW  Elec       q    Type
REMARK                         _______ _______ _______ _____ _____    ______ ____
ROOT
ATOM      1  C   UNL     1      47.163   4.892  14.114  0.00  0.00    +0.000 A 
ATOM      2  C   UNL     1      47.872   6.092  14.036  0.00  0.00    +0.000 A 
ATOM      3  C   UNL     1      48.529   6.580  15.162  0.00  0.00    +0.000 A 
ATOM      4  C   UNL     1      48.469   5.844  16.342  0.00  0.00    +0.000 A 
ATOM      5  N   UNL     1      47.741   4.704  16.456  0.00  0.00    +0.000 NA
ATOM      6  C   UNL     1      47.109   4.259  15.349  0.00  0.00    +0.000 A 
ENDROOT
BRANCH   1   7
ATOM      7  C   UNL     1      46.431   4.338  12.926  0.00  0.00    +0.000 C 
BRANCH   7   8
ATOM      8  N   UNL     1      45.012   4.706  12.942  0.00  0.00    +0.000 NA
ATOM      9  H   UNL     1      44.867   5.377  13.701  0.00  0.00    +0.000 HD
BRANCH   8  10
ATOM     10  C   UNL     1      44.593   5.382  11.686  0.00  0.00    +0.000 C 
BRANCH  10  11
ATOM     11  C   UNL     1      44.786   4.443  10.487  0.00  0.00    +0.000 A 
ATOM     12  C   UNL     1      45.461   4.865   9.337  0.00  0.00    +0.000 A 
ATOM     13  C   UNL     1      45.613   3.980   8.271  0.00  0.00    +0.000 A 
ATOM     14  C   UNL     1      45.108   2.692   8.378  0.00  0.00    +0.000 A 
ATOM     15  C   UNL     1      44.466   2.342   9.553  0.00  0.00    +0.000 A 
ATOM     16  N   UNL     1      44.289   3.183  10.600  0.00  0.00    +0.000 NA
ENDBRANCH  10  11
BRANCH  10  17
ATOM     17  C   UNL     1      45.341   6.722  11.489  0.00  0.00    +0.000 C 
BRANCH  17  18
ATOM     18  C   UNL     1      45.006   7.831  12.494  0.00  0.00    +0.000 C 
BRANCH  18  19
ATOM     19  C   UNL     1      45.415   9.238  12.053  0.00  0.00    +0.000 C 
BRANCH  19  20
ATOM     20  N   UNL     1      44.455  10.250  12.487  0.00  0.00    +0.000 NA
ATOM     21  H   UNL     1      44.836  10.747  13.291  0.00  0.00    +0.000 HD
ATOM     22  H   UNL     1      43.603   9.795  12.817  0.00  0.00    +0.000 HD
ENDBRANCH  19  20
ENDBRANCH  18  19
ENDBRANCH  17  18
ENDBRANCH  10  17
ENDBRANCH   8  10
ENDBRANCH   7   8
ENDBRANCH   1   7
BRANCH   4  23
ATOM     23  C   UNL     1      49.209   6.318  17.568  0.00  0.00    +0.000 C 
BRANCH  23  24
ATOM     24  N   UNL     1      50.220   5.370  17.972  0.00  0.00    +0.000 N 
ATOM     25  C   UNL     1      51.471   5.374  17.417  0.00  0.00    +0.000 C 
ATOM     26  O   UNL     1      51.828   6.234  16.615  0.00  0.00    +0.000 OA
ATOM     27  H   UNL     1      49.873   4.532  18.430  0.00  0.00    +0.000 HD
BRANCH  25  28
ATOM     28  C   UNL     1      52.398   4.341  17.890  0.00  0.00    +0.000 A 
ATOM     29  C   UNL     1      53.596   4.716  18.483  0.00  0.00    +0.000 A 
ATOM     30  S   UNL     1      54.528   3.398  19.031  0.00  0.00    +0.000 S 
ATOM     31  C   UNL     1      53.388   2.280  18.446  0.00  0.00    +0.000 A 
ATOM     32  N   UNL     1      53.593   0.942  18.579  0.00  0.00    +0.000 NA
ATOM     33  C   UNL     1      52.664   0.210  18.060  0.00  0.00    +0.000 A 
ATOM     34  N   UNL     1      51.550   0.691  17.428  0.00  0.00    +0.000 N 
ATOM     35  C   UNL     1      51.286   2.034  17.296  0.00  0.00    +0.000 A 
ATOM     36  O   UNL     1      50.257   2.435  16.761  0.00  0.00    +0.000 OA
ATOM     37  C   UNL     1      52.305   2.902  17.854  0.00  0.00    +0.000 A 
ATOM     38  H   UNL     1      50.855   0.064  17.048  0.00  0.00    +0.000 HD
ENDBRANCH  25  28
ENDBRANCH  23  24
ENDBRANCH   4  23
TORSDOF 11
ENDMDL
MODEL 3
REMARK VINA RESULT:    -6.896      2.889      8.109
REMARK INTER + INTRA:         -12.669
REMARK INTER:                 -10.686
REMARK INTRA:                  -1.984
REMARK UNBOUND:                -1.541
REMARK  Name = 
REMARK  11 active torsions:
REMARK  status: ('A' for Active; 'I' for Inactive)
REMARK    1  A    between atoms: N_1  and  C_2
REMARK    2  A    between atoms: C_2  and  C_3
REMARK    3  A    between atoms: C_3  and  C_4
REMARK    4  A    between atoms: C_4  and  C_5
REMARK    5  A    between atoms: C_5  and  N_6
REMARK    6  A    between atoms: C_5  and  C_28
REMARK    7  A    between atoms: N_6  and  C_7
REMARK    8  A    between atoms: C_7  and  C_8
REMARK    9  A    between atoms: C_11  and  C_12
REMARK   10  A    between atoms: C_12  and  N_13
REMARK   11  A    between atoms: C_14  and  C_16
REMARK                            x       y       z     vdW  Elec       q    Type
REMARK                         _______ _______ _______ _____ _____    ______ ____
ROOT
ATOM      1  C   UNL     1      49.431   8.024  15.496  0.00  0.00    +0.000 A 
ATOM      2  C   UNL     1      48.263   8.780  15.385  0.00  0.00    +0.000 A 
ATOM      3  C   UNL     1      47.573   8.809  14.177  0.00  0.00    +0.000 A 
ATOM      4  C   UNL     1      48.065   8.066  13.107  0.00  0.00    +0.000 A 
ATOM      5  N   UNL     1      49.226   7.368  13.176  0.00  0.00    +0.000 NA
ATOM      6  C   UNL     1      49.878   7.364  14.359  0.00  0.00    +0.000 A 
ENDROOT
BRANCH   1   7
ATOM      7  C   UNL     1      50.213   7.977  16.778  0.00  0.00    +0.000 C 
BRANCH   7   8
ATOM      8  N   UNL     1      50.931   6.708  16.931  0.00  0.00    +0.000 NA
ATOM      9  H   UNL     1      51.894   6.919  17.203  0.00  0.00    +0.000 HD
BRANCH   8  10
ATOM     10  C   UNL     1      50.355   5.864  18.012  0.00  0.00    +0.000 C 
BRANCH  10  11
ATOM     11  C   UNL     1      49.688   4.617  17.414  0.00  0.00    +0.000 A 
ATOM     12  C   UNL     1      50.229   3.343  17.608  0.00  0.00    +0.000 A 
ATOM     13  C   UNL     1      49.591   2.237  17.047  0.00  0.00    +0.000 A 
ATOM     14  C   UNL     1      48.422   2.421  16.322  0.00  0.00    +0.000 A 
ATOM     15  C   UNL     1      47.938   3.711  16.188  0.00  0.00    +0.000 A 
ATOM     16  N   UNL     1      48.542   4.806  16.707  0.00  0.00    +0.000 NA
ENDBRANCH  10  11
BRANCH  10  17
ATOM     17  C   UNL     1      49.374   6.670  18.896  0.00  0.00    +0.000 C 
BRANCH  17  18
ATOM     18  C   UNL     1      48.644   5.876  19.985  0.00  0.00    +0.000 C 
BRANCH  18  19
ATOM     19  C   UNL     1      47.131   6.095  20.032  0.00  0.00    +0.000 C 
BRANCH  19  20
ATOM     20  N   UNL     1      46.454   5.499  18.884  0.00  0.00    +0.000 NA
ATOM     21  H   UNL     1      46.854   4.578  18.703  0.00  0.00    +0.000 HD
ATOM     22  H   UNL     1      46.641   6.055  18.049  0.00  0.00    +0.000 HD
ENDBRANCH  19  20
ENDBRANCH  18  19
ENDBRANCH  17  18
ENDBRANCH  10  17
ENDBRANCH   8  10
ENDBRANCH   7   8
ENDBRANCH   1   7
BRANCH   4  23
ATOM     23  C   UNL     1      47.315   8.034  11.799  0.00  0.00    +0.000 C 
BRANCH  23  24
ATOM     24  N   UNL     1      46.674   6.758  11.589  0.00  0.00    +0.000 N 
ATOM     25  C   UNL     1      45.311   6.636  11.557  0.00  0.00    +0.000 C 
ATOM     26  O   UNL     1      44.565   7.610  11.615  0.00  0.00    +0.000 OA
ATOM     27  H   UNL     1      47.251   5.945  11.784  0.00  0.00    +0.000 HD
BRANCH  25  28
ATOM     28  C   UNL     1      44.783   5.281  11.368  0.00  0.00    +0.000 A 
ATOM     29  C   UNL     1      44.057   4.680  12.388  0.00  0.00    +0.000 A 
ATOM     30  S   UNL     1      43.464   3.134  11.983  0.00  0.00    +0.000 S 
ATOM     31  C   UNL     1      44.202   3.192  10.452  0.00  0.00    +0.000 A 
ATOM     32  N   UNL     1      44.097   2.148   9.588  0.00  0.00    +0.000 NA
ATOM     33  C   UNL     1      44.734   2.314   8.477  0.00  0.00    +0.000 A 
ATOM     34  N   UNL     1      45.458   3.427   8.149  0.00  0.00    +0.000 N 
ATOM     35  C   UNL     1      45.569   4.519   8.978  0.00  0.00    +0.000 A 
ATOM     36  O   UNL     1      46.192   5.520   8.638  0.00  0.00    +0.000 OA
ATOM     37  C   UNL     1      44.879   4.380  10.246  0.00  0.00    +0.000 A 
ATOM     38  H   UNL     1      45.929   3.498   7.258  0.00  0.00    +0.000 HD
ENDBRANCH  25  28
ENDBRANCH  23  24
ENDBRANCH   4  23
TORSDOF 11
ENDMDL
MODEL 4
REMARK VINA RESULT:    -6.672      3.074      8.774
REMARK INTER + INTRA:         -12.308
REMARK INTER:                 -10.699
REMARK INTRA:                  -1.609
REMARK UNBOUND:                -1.541
REMARK  Name = 
REMARK  11 active torsions:
REMARK  status: ('A' for Active; 'I' for Inactive)
REMARK    1  A    between atoms: N_1  and  C_2
REMARK    2  A    between atoms: C_2  and  C_3
REMARK    3  A    between atoms: C_3  and  C_4
REMARK    4  A    between atoms: C_4  and  C_5
REMARK    5  A    between atoms: C_5  and  N_6
REMARK    6  A    between atoms: C_5  and  C_28
REMARK    7  A    between atoms: N_6  and  C_7
REMARK    8  A    between atoms: C_7  and  C_8
REMARK    9  A    between atoms: C_11  and  C_12
REMARK   10  A    between atoms: C_12  and  N_13
REMARK   11  A    between atoms: C_14  and  C_16
REMARK                            x       y       z     vdW  Elec       q    Type
REMARK                         _______ _______ _______ _____ _____    ______ ____
ROOT
ATOM      1  C   UNL     1      50.215   7.114  15.526  0.00  0.00    +0.000 A 
ATOM      2  C   UNL     1      50.676   7.835  14.422  0.00  0.00    +0.000 A 
ATOM      3  C   UNL     1      49.850   8.003  13.315  0.00  0.00    +0.000 A 
ATOM      4  C   UNL     1      48.572   7.452  13.343  0.00  0.00    +0.000 A 
ATOM      5  N   UNL     1      48.124   6.701  14.381  0.00  0.00    +0.000 NA
ATOM      6  C   UNL     1      48.950   6.550  15.439  0.00  0.00    +0.000 A 
ENDROOT
BRANCH   1   7
ATOM      7  C   UNL     1      51.079   6.899  16.735  0.00  0.00    +0.000 C 
BRANCH   7   8
ATOM      8  N   UNL     1      50.374   6.154  17.782  0.00  0.00    +0.000 NA
ATOM      9  H   UNL     1      49.764   5.470  17.328  0.00  0.00    +0.000 HD
BRANCH   8  10
ATOM     10  C   UNL     1      51.306   5.387  18.650  0.00  0.00    +0.000 C 
BRANCH  10  11
ATOM     11  C   UNL     1      51.410   3.934  18.166  0.00  0.00    +0.000 A 
ATOM     12  C   UNL     1      52.562   3.175  18.394  0.00  0.00    +0.000 A 
ATOM     13  C   UNL     1      52.615   1.859  17.937  0.00  0.00    +0.000 A 
ATOM     14  C   UNL     1      51.516   1.322  17.281  0.00  0.00    +0.000 A 
ATOM     15  C   UNL     1      50.405   2.130  17.107  0.00  0.00    +0.000 A 
ATOM     16  N   UNL     1      50.329   3.416  17.526  0.00  0.00    +0.000 NA
ENDBRANCH  10  11
BRANCH  10  17
ATOM     17  C   UNL     1      50.887   5.467  20.138  0.00  0.00    +0.000 C 
BRANCH  17  18
ATOM     18  C   UNL     1      49.426   5.846  20.404  0.00  0.00    +0.000 C 
BRANCH  18  19
ATOM     19  C   UNL     1      48.603   4.765  21.108  0.00  0.00    +0.000 C 
BRANCH  19  20
ATOM     20  N   UNL     1      48.545   3.527  20.334  0.00  0.00    +0.000 NA
ATOM     21  H   UNL     1      49.269   2.891  20.669  0.00  0.00    +0.000 HD
ATOM     22  H   UNL     1      48.773   3.722  19.359  0.00  0.00    +0.000 HD
ENDBRANCH  19  20
ENDBRANCH  18  19
ENDBRANCH  17  18
ENDBRANCH  10  17
ENDBRANCH   8  10
ENDBRANCH   7   8
ENDBRANCH   1   7
BRANCH   4  23
ATOM     23  C   UNL     1      47.633   7.656  12.180  0.00  0.00    +0.000 C 
BRANCH  23  24
ATOM     24  N   UNL     1      46.917   6.443  11.863  0.00  0.00    +0.000 N 
ATOM     25  C   UNL     1      45.550   6.411  11.804  0.00  0.00    +0.000 C 
ATOM     26  O   UNL     1      44.866   7.423  11.928  0.00  0.00    +0.000 OA
ATOM     27  H   UNL     1      47.438   5.582  12.001  0.00  0.00    +0.000 HD
BRANCH  25  28
ATOM     28  C   UNL     1      44.941   5.112  11.501  0.00  0.00    +0.000 A 
ATOM     29  C   UNL     1      44.217   4.450  12.484  0.00  0.00    +0.000 A 
ATOM     30  S   UNL     1      43.526   2.985  11.951  0.00  0.00    +0.000 S 
ATOM     31  C   UNL     1      44.216   3.159  10.406  0.00  0.00    +0.000 A 
ATOM     32  N   UNL     1      44.024   2.214   9.448  0.00  0.00    +0.000 NA
ATOM     33  C   UNL     1      44.632   2.458   8.335  0.00  0.00    +0.000 A 
ATOM     34  N   UNL     1      45.406   3.559   8.091  0.00  0.00    +0.000 N 
ATOM     35  C   UNL     1      45.605   4.555   9.019  0.00  0.00    +0.000 A 
ATOM     36  O   UNL     1      46.271   5.551   8.757  0.00  0.00    +0.000 OA
ATOM     37  C   UNL     1      44.950   4.325  10.293  0.00  0.00    +0.000 A 
ATOM     38  H   UNL     1      45.851   3.696   7.194  0.00  0.00    +0.000 HD
ENDBRANCH  25  28
ENDBRANCH  23  24
ENDBRANCH   4  23
TORSDOF 11
ENDMDL
MODEL 5
REMARK VINA RESULT:    -6.502      3.700      5.122
REMARK INTER + INTRA:         -12.033
REMARK INTER:                 -10.671
REMARK INTRA:                  -1.362
REMARK UNBOUND:                -1.541
REMARK  Name = 
REMARK  11 active torsions:
REMARK  status: ('A' for Active; 'I' for Inactive)
REMARK    1  A    between atoms: N_1  and  C_2
REMARK    2  A    between atoms: C_2  and  C_3
REMARK    3  A    between atoms: C_3  and  C_4
REMARK    4  A    between atoms: C_4  and  C_5
REMARK    5  A    between atoms: C_5  and  N_6
REMARK    6  A    between atoms: C_5  and  C_28
REMARK    7  A    between atoms: N_6  and  C_7
REMARK    8  A    between atoms: C_7  and  C_8
REMARK    9  A    between atoms: C_11  and  C_12
REMARK   10  A    between atoms: C_12  and  N_13
REMARK   11  A    between atoms: C_14  and  C_16
REMARK                            x       y       z     vdW  Elec       q    Type
REMARK                         _______ _______ _______ _____ _____    ______ ____
ROOT
ATOM      1  C   UNL     1      46.355   7.092  12.379  0.00  0.00    +0.000 A 
ATOM      2  C   UNL     1      46.453   8.277  13.111  0.00  0.00    +0.000 A 
ATOM      3  C   UNL     1      47.520   8.460  13.986  0.00  0.00    +0.000 A 
ATOM      4  C   UNL     1      48.474   7.453  14.098  0.00  0.00    +0.000 A 
ATOM      5  N   UNL     1      48.370   6.272  13.438  0.00  0.00    +0.000 NA
ATOM      6  C   UNL     1      47.320   6.120  12.601  0.00  0.00    +0.000 A 
ENDROOT
BRANCH   1   7
ATOM      7  C   UNL     1      45.213   6.850  11.434  0.00  0.00    +0.000 C 
BRANCH   7   8
ATOM      8  N   UNL     1      45.623   6.042  10.281  0.00  0.00    +0.000 NA
ATOM      9  H   UNL     1      46.645   5.989  10.278  0.00  0.00    +0.000 HD
BRANCH   8  10
ATOM     10  C   UNL     1      45.121   4.645  10.368  0.00  0.00    +0.000 C 
BRANCH  10  11
ATOM     11  C   UNL     1      45.630   3.823   9.176  0.00  0.00    +0.000 A 
ATOM     12  C   UNL     1      45.574   2.425   9.184  0.00  0.00    +0.000 A 
ATOM     13  C   UNL     1      46.049   1.717   8.081  0.00  0.00    +0.000 A 
ATOM     14  C   UNL     1      46.550   2.412   6.989  0.00  0.00    +0.000 A 
ATOM     15  C   UNL     1      46.557   3.795   7.049  0.00  0.00    +0.000 A 
ATOM     16  N   UNL     1      46.117   4.511   8.111  0.00  0.00    +0.000 NA
ENDBRANCH  10  11
BRANCH  10  17
ATOM     17  C   UNL     1      43.577   4.605  10.473  0.00  0.00    +0.000 C 
BRANCH  17  18
ATOM     18  C   UNL     1      43.003   3.716  11.582  0.00  0.00    +0.000 C 
BRANCH  18  19
ATOM     19  C   UNL     1      43.426   4.107  12.999  0.00  0.00    +0.000 C 
BRANCH  19  20
ATOM     20  N   UNL     1      42.680   5.260  13.496  0.00  0.00    +0.000 NA
ATOM     21  H   UNL     1      43.084   5.561  14.383  0.00  0.00    +0.000 HD
ATOM     22  H   UNL     1      41.721   4.984  13.705  0.00  0.00    +0.000 HD
ENDBRANCH  19  20
ENDBRANCH  18  19
ENDBRANCH  17  18
ENDBRANCH  10  17
ENDBRANCH   8  10
ENDBRANCH   7   8
ENDBRANCH   1   7
BRANCH   4  23
ATOM     23  C   UNL     1      49.669   7.638  14.999  0.00  0.00    +0.000 C 
BRANCH  23  24
ATOM     24  N   UNL     1      50.897   7.692  14.242  0.00  0.00    +0.000 N 
ATOM     25  C   UNL     1      51.316   8.844  13.633  0.00  0.00    +0.000 C 
ATOM     26  O   UNL     1      50.721   9.910  13.771  0.00  0.00    +0.000 OA
ATOM     27  H   UNL     1      51.251   6.794  13.924  0.00  0.00    +0.000 HD
BRANCH  25  28
ATOM     28  C   UNL     1      52.564   8.761  12.869  0.00  0.00    +0.000 A 
ATOM     29  C   UNL     1      53.740   9.246  13.424  0.00  0.00    +0.000 A 
ATOM     30  S   UNL     1      55.107   9.017  12.431  0.00  0.00    +0.000 S 
ATOM     31  C   UNL     1      54.165   8.312  11.204  0.00  0.00    +0.000 A 
ATOM     32  N   UNL     1      54.734   7.898  10.040  0.00  0.00    +0.000 NA
ATOM     33  C   UNL     1      53.896   7.413   9.185  0.00  0.00    +0.000 A 
ATOM     34  N   UNL     1      52.549   7.298   9.388  0.00  0.00    +0.000 N 
ATOM     35  C   UNL     1      51.933   7.676  10.558  0.00  0.00    +0.000 A 
ATOM     36  O   UNL     1      50.728   7.522  10.726  0.00  0.00    +0.000 OA
ATOM     37  C   UNL     1      52.829   8.238  11.551  0.00  0.00    +0.000 A 
ATOM     38  H   UNL     1      51.947   6.903   8.679  0.00  0.00    +0.000 HD
ENDBRANCH  25  28
ENDBRANCH  23  24
ENDBRANCH   4  23
TORSDOF 11
ENDMDL
MODEL 6
REMARK VINA RESULT:    -6.321      2.900      8.599
REMARK INTER + INTRA:         -11.742
REMARK INTER:                 -10.044
REMARK INTRA:                  -1.698
REMARK UNBOUND:                -1.541
REMARK  Name = 
REMARK  11 active torsions:
REMARK  status: ('A' for Active; 'I' for Inactive)
REMARK    1  A    between atoms: N_1  and  C_2
REMARK    2  A    between atoms: C_2  and  C_3
REMARK    3  A    between atoms: C_3  and  C_4
REMARK    4  A    between atoms: C_4  and  C_5
REMARK    5  A    between atoms: C_5  and  N_6
REMARK    6  A    between atoms: C_5  and  C_28
REMARK    7  A    between atoms: N_6  and  C_7
REMARK    8  A    between atoms: C_7  and  C_8
REMARK    9  A    between atoms: C_11  and  C_12
REMARK   10  A    between atoms: C_12  and  N_13
REMARK   11  A    between atoms: C_14  and  C_16
REMARK                            x       y       z     vdW  Elec       q    Type
REMARK                         _______ _______ _______ _____ _____    ______ ____
ROOT
ATOM      1  C   UNL     1      49.888   7.969  15.286  0.00  0.00    +0.000 A 
ATOM      2  C   UNL     1      49.428   9.219  14.865  0.00  0.00    +0.000 A 
ATOM      3  C   UNL     1      48.517   9.301  13.817  0.00  0.00    +0.000 A 
ATOM      4  C   UNL     1      48.076   8.124  13.220  0.00  0.00    +0.000 A 
ATOM      5  N   UNL     1      48.550   6.903  13.575  0.00  0.00    +0.000 NA
ATOM      6  C   UNL     1      49.439   6.854  14.591  0.00  0.00    +0.000 A 
ENDROOT
BRANCH   1   7
ATOM      7  C   UNL     1      50.881   7.838  16.405  0.00  0.00    +0.000 C 
BRANCH   7   8
ATOM      8  N   UNL     1      50.305   7.151  17.565  0.00  0.00    +0.000 NA
ATOM      9  H   UNL     1      49.292   7.099  17.433  0.00  0.00    +0.000 HD
BRANCH   8  10
ATOM     10  C   UNL     1      50.794   5.752  17.689  0.00  0.00    +0.000 C 
BRANCH  10  11
ATOM     11  C   UNL     1      49.626   4.766  17.547  0.00  0.00    +0.000 A 
ATOM     12  C   UNL     1      48.305   5.172  17.761  0.00  0.00    +0.000 A 
ATOM     13  C   UNL     1      47.274   4.244  17.622  0.00  0.00    +0.000 A 
ATOM     14  C   UNL     1      47.576   2.940  17.256  0.00  0.00    +0.000 A 
ATOM     15  C   UNL     1      48.906   2.617  17.046  0.00  0.00    +0.000 A 
ATOM     16  N   UNL     1      49.930   3.491  17.187  0.00  0.00    +0.000 NA
ENDBRANCH  10  11
BRANCH  10  17
ATOM     17  C   UNL     1      51.566   5.538  19.013  0.00  0.00    +0.000 C 
BRANCH  17  18
ATOM     18  C   UNL     1      52.969   4.936  18.882  0.00  0.00    +0.000 C 
BRANCH  18  19
ATOM     19  C   UNL     1      53.132   3.550  19.509  0.00  0.00    +0.000 C 
BRANCH  19  20
ATOM     20  N   UNL     1      52.534   2.502  18.686  0.00  0.00    +0.000 NA
ATOM     21  H   UNL     1      53.260   1.843  18.405  0.00  0.00    +0.000 HD
ATOM     22  H   UNL     1      52.175   2.908  17.822  0.00  0.00    +0.000 HD
ENDBRANCH  19  20
ENDBRANCH  18  19
ENDBRANCH  17  18
ENDBRANCH  10  17
ENDBRANCH   8  10
ENDBRANCH   7   8
ENDBRANCH   1   7
BRANCH   4  23
ATOM     23  C   UNL     1      47.052   8.173  12.113  0.00  0.00    +0.000 C 
BRANCH  23  24
ATOM     24  N   UNL     1      46.479   6.871  11.868  0.00  0.00    +0.000 N 
ATOM     25  C   UNL     1      45.148   6.713  11.590  0.00  0.00    +0.000 C 
ATOM     26  O   UNL     1      44.391   7.670  11.446  0.00  0.00    +0.000 OA
ATOM     27  H   UNL     1      47.018   6.085  12.219  0.00  0.00    +0.000 HD
BRANCH  25  28
ATOM     28  C   UNL     1      44.682   5.337  11.390  0.00  0.00    +0.000 A 
ATOM     29  C   UNL     1      43.936   4.716  12.383  0.00  0.00    +0.000 A 
ATOM     30  S   UNL     1      43.423   3.144  11.968  0.00  0.00    +0.000 S 
ATOM     31  C   UNL     1      44.226   3.220  10.470  0.00  0.00    +0.000 A 
ATOM     32  N   UNL     1      44.201   2.165   9.613  0.00  0.00    +0.000 NA
ATOM     33  C   UNL     1      44.880   2.348   8.530  0.00  0.00    +0.000 A 
ATOM     34  N   UNL     1      45.573   3.486   8.223  0.00  0.00    +0.000 N 
ATOM     35  C   UNL     1      45.604   4.588   9.045  0.00  0.00    +0.000 A 
ATOM     36  O   UNL     1      46.201   5.610   8.724  0.00  0.00    +0.000 OA
ATOM     37  C   UNL     1      44.864   4.431  10.283  0.00  0.00    +0.000 A 
ATOM     38  H   UNL     1      46.081   3.568   7.353  0.00  0.00    +0.000 HD
ENDBRANCH  25  28
ENDBRANCH  23  24
ENDBRANCH   4  23
TORSDOF 11
ENDMDL
MODEL 7
REMARK VINA RESULT:    -6.238      3.121      8.611
REMARK INTER + INTRA:         -11.608
REMARK INTER:                 -10.183
REMARK INTRA:                  -1.426
REMARK UNBOUND:                -1.541
REMARK  Name = 
REMARK  11 active torsions:
REMARK  status: ('A' for Active; 'I' for Inactive)
REMARK    1  A    between atoms: N_1  and  C_2
REMARK    2  A    between atoms: C_2  and  C_3
REMARK    3  A    between atoms: C_3  and  C_4
REMARK    4  A    between atoms: C_4  and  C_5
REMARK    5  A    between atoms: C_5  and  N_6
REMARK    6  A    between atoms: C_5  and  C_28
REMARK    7  A    between atoms: N_6  and  C_7
REMARK    8  A    between atoms: C_7  and  C_8
REMARK    9  A    between atoms: C_11  and  C_12
REMARK   10  A    between atoms: C_12  and  N_13
REMARK   11  A    between atoms: C_14  and  C_16
REMARK                            x       y       z     vdW  Elec       q    Type
REMARK                         _______ _______ _______ _____ _____    ______ ____
ROOT
ATOM      1  C   UNL     1      50.187   6.788  15.926  0.00  0.00    +0.000 A 
ATOM      2  C   UNL     1      50.853   7.576  14.985  0.00  0.00    +0.000 A 
ATOM      3  C   UNL     1      50.192   7.974  13.827  0.00  0.00    +0.000 A 
ATOM      4  C   UNL     1      48.869   7.580  13.644  0.00  0.00    +0.000 A 
ATOM      5  N   UNL     1      48.220   6.770  14.517  0.00  0.00    +0.000 NA
ATOM      6  C   UNL     1      48.890   6.394  15.629  0.00  0.00    +0.000 A 
ENDROOT
BRANCH   1   7
ATOM      7  C   UNL     1      50.870   6.328  17.182  0.00  0.00    +0.000 C 
BRANCH   7   8
ATOM      8  N   UNL     1      49.908   5.846  18.178  0.00  0.00    +0.000 NA
ATOM      9  H   UNL     1      48.978   5.855  17.752  0.00  0.00    +0.000 HD
BRANCH   8  10
ATOM     10  C   UNL     1      50.179   4.442  18.587  0.00  0.00    +0.000 C 
BRANCH  10  11
ATOM     11  C   UNL     1      51.680   4.240  18.831  0.00  0.00    +0.000 A 
ATOM     12  C   UNL     1      52.446   3.422  17.995  0.00  0.00    +0.000 A 
ATOM     13  C   UNL     1      53.807   3.265  18.253  0.00  0.00    +0.000 A 
ATOM     14  C   UNL     1      54.379   3.937  19.323  0.00  0.00    +0.000 A 
ATOM     15  C   UNL     1      53.560   4.742  20.096  0.00  0.00    +0.000 A 
ATOM     16  N   UNL     1      52.233   4.903  19.881  0.00  0.00    +0.000 NA
ENDBRANCH  10  11
BRANCH  10  17
ATOM     17  C   UNL     1      49.626   3.436  17.549  0.00  0.00    +0.000 C 
BRANCH  17  18
ATOM     18  C   UNL     1      48.205   2.921  17.805  0.00  0.00    +0.000 C 
BRANCH  18  19
ATOM     19  C   UNL     1      47.092   3.811  17.248  0.00  0.00    +0.000 C 
BRANCH  19  20
ATOM     20  N   UNL     1      46.732   4.883  18.173  0.00  0.00    +0.000 NA
ATOM     21  H   UNL     1      46.132   5.552  17.690  0.00  0.00    +0.000 HD
ATOM     22  H   UNL     1      47.569   5.400  18.441  0.00  0.00    +0.000 HD
ENDBRANCH  19  20
ENDBRANCH  18  19
ENDBRANCH  17  18
ENDBRANCH  10  17
ENDBRANCH   8  10
ENDBRANCH   7   8
ENDBRANCH   1   7
BRANCH   4  23
ATOM     23  C   UNL     1      48.106   8.033  12.424  0.00  0.00    +0.000 C 
BRANCH  23  24
ATOM     24  N   UNL     1      47.446   6.926  11.774  0.00  0.00    +0.000 N 
ATOM     25  C   UNL     1      46.120   6.977  11.438  0.00  0.00    +0.000 C 
ATOM     26  O   UNL     1      45.445   7.992  11.588  0.00  0.00    +0.000 OA
ATOM     27  H   UNL     1      47.910   6.027  11.869  0.00  0.00    +0.000 HD
BRANCH  25  28
ATOM     28  C   UNL     1      45.561   5.776  10.809  0.00  0.00    +0.000 A 
ATOM     29  C   UNL     1      45.759   5.558   9.453  0.00  0.00    +0.000 A 
ATOM     30  S   UNL     1      45.098   4.089   8.894  0.00  0.00    +0.000 S 
ATOM     31  C   UNL     1      44.477   3.721  10.434  0.00  0.00    +0.000 A 
ATOM     32  N   UNL     1      43.768   2.580  10.645  0.00  0.00    +0.000 NA
ATOM     33  C   UNL     1      43.328   2.445  11.852  0.00  0.00    +0.000 A 
ATOM     34  N   UNL     1      43.538   3.339  12.866  0.00  0.00    +0.000 N 
ATOM     35  C   UNL     1      44.273   4.491  12.708  0.00  0.00    +0.000 A 
ATOM     36  O   UNL     1      44.479   5.253  13.646  0.00  0.00    +0.000 OA
ATOM     37  C   UNL     1      44.782   4.696  11.365  0.00  0.00    +0.000 A 
ATOM     38  H   UNL     1      43.172   3.172  13.793  0.00  0.00    +0.000 HD
ENDBRANCH  25  28
ENDBRANCH  23  24
ENDBRANCH   4  23
TORSDOF 11
ENDMDL
MODEL 8
REMARK VINA RESULT:    -6.175      3.365      9.060
REMARK INTER + INTRA:         -11.506
REMARK INTER:                 -10.198
REMARK INTRA:                  -1.308
REMARK UNBOUND:                -1.541
REMARK  Name = 
REMARK  11 active torsions:
REMARK  status: ('A' for Active; 'I' for Inactive)
REMARK    1  A    between atoms: N_1  and  C_2
REMARK    2  A    between atoms: C_2  and  C_3
REMARK    3  A    between atoms: C_3  and  C_4
REMARK    4  A    between atoms: C_4  and  C_5
REMARK    5  A    between atoms: C_5  and  N_6
REMARK    6  A    between atoms: C_5  and  C_28
REMARK    7  A    between atoms: N_6  and  C_7
REMARK    8  A    between atoms: C_7  and  C_8
REMARK    9  A    between atoms: C_11  and  C_12
REMARK   10  A    between atoms: C_12  and  N_13
REMARK   11  A    between atoms: C_14  and  C_16
REMARK                            x       y       z     vdW  Elec       q    Type
REMARK                         _______ _______ _______ _____ _____    ______ ____
ROOT
ATOM      1  C   UNL     1      49.495   8.021  15.496  0.00  0.00    +0.000 A 
ATOM      2  C   UNL     1      49.307   6.830  14.791  0.00  0.00    +0.000 A 
ATOM      3  C   UNL     1      48.479   6.813  13.674  0.00  0.00    +0.000 A 
ATOM      4  C   UNL     1      47.864   7.998  13.279  0.00  0.00    +0.000 A 
ATOM      5  N   UNL     1      47.988   9.154  13.979  0.00  0.00    +0.000 NA
ATOM      6  C   UNL     1      48.794   9.138  15.064  0.00  0.00    +0.000 A 
ENDROOT
BRANCH   1   7
ATOM      7  C   UNL     1      50.371   8.078  16.714  0.00  0.00    +0.000 C 
BRANCH   7   8
ATOM      8  N   UNL     1      49.885   7.192  17.776  0.00  0.00    +0.000 NA
ATOM      9  H   UNL     1      50.202   7.567  18.673  0.00  0.00    +0.000 HD
BRANCH   8  10
ATOM     10  C   UNL     1      48.399   7.146  17.832  0.00  0.00    +0.000 C 
BRANCH  10  11
ATOM     11  C   UNL     1      47.880   8.083  18.931  0.00  0.00    +0.000 A 
ATOM     12  C   UNL     1      47.599   9.427  18.665  0.00  0.00    +0.000 A 
ATOM     13  C   UNL     1      47.129  10.243  19.693  0.00  0.00    +0.000 A 
ATOM     14  C   UNL     1      46.933   9.703  20.955  0.00  0.00    +0.000 A 
ATOM     15  C   UNL     1      47.217   8.360  21.138  0.00  0.00    +0.000 A 
ATOM     16  N   UNL     1      47.688   7.545  20.165  0.00  0.00    +0.000 NA
ENDBRANCH  10  11
BRANCH  10  17
ATOM     17  C   UNL     1      47.886   5.698  18.024  0.00  0.00    +0.000 C 
BRANCH  17  18
ATOM     18  C   UNL     1      48.794   4.587  17.485  0.00  0.00    +0.000 C 
BRANCH  18  19
ATOM     19  C   UNL     1      48.304   3.166  17.768  0.00  0.00    +0.000 C 
BRANCH  19  20
ATOM     20  N   UNL     1      46.847   3.070  17.726  0.00  0.00    +0.000 NA
ATOM     21  H   UNL     1      46.478   3.842  17.170  0.00  0.00    +0.000 HD
ATOM     22  H   UNL     1      46.468   3.195  18.665  0.00  0.00    +0.000 HD
ENDBRANCH  19  20
ENDBRANCH  18  19
ENDBRANCH  17  18
ENDBRANCH  10  17
ENDBRANCH   8  10
ENDBRANCH   7   8
ENDBRANCH   1   7
BRANCH   4  23
ATOM     23  C   UNL     1      46.998   8.027  12.044  0.00  0.00    +0.000 C 
BRANCH  23  24
ATOM     24  N   UNL     1      46.433   6.729  11.766  0.00  0.00    +0.000 N 
ATOM     25  C   UNL     1      45.097   6.565  11.518  0.00  0.00    +0.000 C 
ATOM     26  O   UNL     1      44.326   7.518  11.431  0.00  0.00    +0.000 OA
ATOM     27  H   UNL     1      46.991   5.937  12.072  0.00  0.00    +0.000 HD
BRANCH  25  28
ATOM     28  C   UNL     1      44.641   5.192  11.280  0.00  0.00    +0.000 A 
ATOM     29  C   UNL     1      43.875   4.548  12.243  0.00  0.00    +0.000 A 
ATOM     30  S   UNL     1      43.378   2.984  11.784  0.00  0.00    +0.000 S 
ATOM     31  C   UNL     1      44.214   3.092  10.308  0.00  0.00    +0.000 A 
ATOM     32  N   UNL     1      44.212   2.055   9.428  0.00  0.00    +0.000 NA
ATOM     33  C   UNL     1      44.915   2.262   8.365  0.00  0.00    +0.000 A 
ATOM     34  N   UNL     1      45.611   3.409   8.097  0.00  0.00    +0.000 N 
ATOM     35  C   UNL     1      45.618   4.494   8.942  0.00  0.00    +0.000 A 
ATOM     36  O   UNL     1      46.219   5.524   8.655  0.00  0.00    +0.000 OA
ATOM     37  C   UNL     1      44.851   4.310  10.159  0.00  0.00    +0.000 A 
ATOM     38  H   UNL     1      46.137   3.511   7.241  0.00  0.00    +0.000 HD
ENDBRANCH  25  28
ENDBRANCH  23  24
ENDBRANCH   4  23
TORSDOF 11
ENDMDL
MODEL 9
REMARK VINA RESULT:    -6.138      5.182      8.177
REMARK INTER + INTRA:         -11.446
REMARK INTER:                  -9.675
REMARK INTRA:                  -1.771
REMARK UNBOUND:                -1.541
REMARK  Name = 
REMARK  11 active torsions:
REMARK  status: ('A' for Active; 'I' for Inactive)
REMARK    1  A    between atoms: N_1  and  C_2
REMARK    2  A    between atoms: C_2  and  C_3
REMARK    3  A    between atoms: C_3  and  C_4
REMARK    4  A    between atoms: C_4  and  C_5
REMARK    5  A    between atoms: C_5  and  N_6
REMARK    6  A    between atoms: C_5  and  C_28
REMARK    7  A    between atoms: N_6  and  C_7
REMARK    8  A    between atoms: C_7  and  C_8
REMARK    9  A    between atoms: C_11  and  C_12
REMARK   10  A    between atoms: C_12  and  N_13
REMARK   11  A    between atoms: C_14  and  C_16
REMARK                            x       y       z     vdW  Elec       q    Type
REMARK                         _______ _______ _______ _____ _____    ______ ____
ROOT
ATOM      1  C   UNL     1      50.674   8.510  12.558  0.00  0.00    +0.000 A 
ATOM      2  C   UNL     1      49.931   7.892  11.549  0.00  0.00    +0.000 A 
ATOM      3  C   UNL     1      48.562   7.714  11.712  0.00  0.00    +0.000 A 
ATOM      4  C   UNL     1      47.962   8.171  12.882  0.00  0.00    +0.000 A 
ATOM      5  N   UNL     1      48.671   8.724  13.899  0.00  0.00    +0.000 NA
ATOM      6  C   UNL     1      50.001   8.878  13.714  0.00  0.00    +0.000 A 
ENDROOT
BRANCH   1   7
ATOM      7  C   UNL     1      52.156   8.710  12.426  0.00  0.00    +0.000 C 
BRANCH   7   8
ATOM      8  N   UNL     1      52.761   7.719  11.532  0.00  0.00    +0.000 NA
ATOM      9  H   UNL     1      52.032   7.369  10.906  0.00  0.00    +0.000 HD
BRANCH   8  10
ATOM     10  C   UNL     1      53.818   8.311  10.670  0.00  0.00    +0.000 C 
BRANCH  10  11
ATOM     11  C   UNL     1      53.431   8.184   9.190  0.00  0.00    +0.000 A 
ATOM     12  C   UNL     1      53.171   9.314   8.409  0.00  0.00    +0.000 A 
ATOM     13  C   UNL     1      52.822   9.153   7.069  0.00  0.00    +0.000 A 
ATOM     14  C   UNL     1      52.756   7.875   6.532  0.00  0.00    +0.000 A 
ATOM     15  C   UNL     1      53.043   6.806   7.363  0.00  0.00    +0.000 A 
ATOM     16  N   UNL     1      53.370   6.929   8.671  0.00  0.00    +0.000 NA
ENDBRANCH  10  11
BRANCH  10  17
ATOM     17  C   UNL     1      55.201   7.678  10.956  0.00  0.00    +0.000 C 
BRANCH  17  18
ATOM     18  C   UNL     1      55.214   6.517  11.957  0.00  0.00    +0.000 C 
BRANCH  18  19
ATOM     19  C   UNL     1      55.259   5.126  11.322  0.00  0.00    +0.000 C 
BRANCH  19  20
ATOM     20  N   UNL     1      53.982   4.758  10.716  0.00  0.00    +0.000 NA
ATOM     21  H   UNL     1      53.223   5.163  11.265  0.00  0.00    +0.000 HD
ATOM     22  H   UNL     1      53.856   3.747  10.768  0.00  0.00    +0.000 HD
ENDBRANCH  19  20
ENDBRANCH  18  19
ENDBRANCH  17  18
ENDBRANCH  10  17
ENDBRANCH   8  10
ENDBRANCH   7   8
ENDBRANCH   1   7
BRANCH   4  23
ATOM     23  C   UNL     1      46.471   8.038  13.072  0.00  0.00    +0.000 C 
BRANCH  23  24
ATOM     24  N   UNL     1      46.005   6.729  12.681  0.00  0.00    +0.000 N 
ATOM     25  C   UNL     1      45.009   6.567  11.757  0.00  0.00    +0.000 C 
ATOM     26  O   UNL     1      44.522   7.516  11.147  0.00  0.00    +0.000 OA
ATOM     27  H   UNL     1      46.214   5.980  13.335  0.00  0.00    +0.000 HD
BRANCH  25  28
ATOM     28  C   UNL     1      44.604   5.188  11.469  0.00  0.00    +0.000 A 
ATOM     29  C   UNL     1      43.862   4.482  12.406  0.00  0.00    +0.000 A 
ATOM     30  S   UNL     1      43.423   2.918  11.891  0.00  0.00    +0.000 S 
ATOM     31  C   UNL     1      44.256   3.110  10.420  0.00  0.00    +0.000 A 
ATOM     32  N   UNL     1      44.292   2.106   9.504  0.00  0.00    +0.000 NA
ATOM     33  C   UNL     1      44.988   2.376   8.450  0.00  0.00    +0.000 A 
ATOM     34  N   UNL     1      45.641   3.557   8.225  0.00  0.00    +0.000 N 
ATOM     35  C   UNL     1      45.608   4.610   9.108  0.00  0.00    +0.000 A 
ATOM     36  O   UNL     1      46.170   5.672   8.860  0.00  0.00    +0.000 OA
ATOM     37  C   UNL     1      44.847   4.355  10.317  0.00  0.00    +0.000 A 
ATOM     38  H   UNL     1      46.164   3.709   7.374  0.00  0.00    +0.000 HD
ENDBRANCH  25  28
ENDBRANCH  23  24
ENDBRANCH   4  23
TORSDOF 11
ENDMDL
