MODEL 1
REMARK VINA RESULT:    -7.905      0.000      0.000
REMARK INTER + INTRA:         -12.889
REMARK INTER:                 -11.602
REMARK INTRA:                  -1.287
REMARK UNBOUND:                -1.287
REMARK  Name = 
REMARK  9 active torsions:
REMARK  status: ('A' for Active; 'I' for Inactive)
REMARK    1  A    between atoms: C_1  and  O_2
REMARK    2  A    between atoms: O_2  and  C_3
REMARK    3  A    between atoms: C_10  and  C_11
REMARK    4  A    between atoms: N_13  and  C_14
REMARK    5  A    between atoms: C_14  and  C_15
REMARK    6  A    between atoms: C_18  and  N_19
REMARK    7  A    between atoms: N_19  and  C_20
REMARK    8  A    between atoms: C_20  and  C_21
REMARK    9  A    between atoms: C_21  and  N_22
REMARK                            x       y       z     vdW  Elec       q    Type
REMARK                         _______ _______ _______ _____ _____    ______ ____
ROOT
ATOM      1  C   UNL     1      46.875   8.098  12.936  0.00  0.00    +0.000 C 
ENDROOT
BRANCH   1   2
ATOM      2  C   UNL     1      46.035   7.062  12.239  0.00  0.00    +0.000 A 
ATOM      3  C   UNL     1      46.405   6.576  10.982  0.00  0.00    +0.000 A 
ATOM      4  C   UNL     1      45.641   5.590  10.343  0.00  0.00    +0.000 A 
ATOM      5  C   UNL     1      44.502   5.050  10.946  0.00  0.00    +0.000 A 
ATOM      6  C   UNL     1      44.088   5.604  12.164  0.00  0.00    +0.000 A 
ATOM      7  C   UNL     1      44.850   6.587  12.813  0.00  0.00    +0.000 A 
BRANCH   5   8
ATOM      8  N   UNL     1      43.698   4.062  10.356  0.00  0.00    +0.000 N 
ATOM      9  H   UNL     1      43.497   4.283   9.378  0.00  0.00    +0.000 HD
BRANCH   8  10
ATOM     10  C   UNL     1      44.149   2.672  10.484  0.00  0.00    +0.000 C 
BRANCH  10  11
ATOM     11  C   UNL     1      44.370   2.015   9.101  0.00  0.00    +0.000 C 
BRANCH  11  12
ATOM     12  N   UNL     1      45.675   2.300   8.453  0.00  0.00    +0.000 NA
ATOM     13  C   UNL     1      46.284   1.087   7.884  0.00  0.00    +0.000 C 
ATOM     14  C   UNL     1      47.633   1.390   7.230  0.00  0.00    +0.000 C 
ATOM     15  C   UNL     1      47.506   2.464   6.160  0.00  0.00    +0.000 C 
ATOM     16  C   UNL     1      46.805   3.692   6.726  0.00  0.00    +0.000 C 
ATOM     17  C   UNL     1      45.481   3.315   7.397  0.00  0.00    +0.000 C 
ENDBRANCH  11  12
ENDBRANCH  10  11
ENDBRANCH   8  10
ENDBRANCH   5   8
ENDBRANCH   1   2
BRANCH   1  20
ATOM     18  C   UNL     1      48.554   6.862  14.223  0.00  0.00    +0.000 C 
ATOM     19  O   UNL     1      49.178   6.598  13.200  0.00  0.00    +0.000 OA
ATOM     20  N   UNL     1      47.406   7.600  14.180  0.00  0.00    +0.000 N 
ATOM     21  H   UNL     1      46.869   7.766  15.022  0.00  0.00    +0.000 HD
BRANCH  18  29
ATOM     22  C   UNL     1      47.484   4.383  16.363  0.00  0.00    +0.000 A 
ATOM     23  N   UNL     1      47.289   3.502  17.365  0.00  0.00    +0.000 NA
ATOM     24  C   UNL     1      48.107   3.557  18.419  0.00  0.00    +0.000 A 
ATOM     25  N   UNL     1      49.116   4.402  18.605  0.00  0.00    +0.000 NA
ATOM     26  C   UNL     1      49.282   5.256  17.581  0.00  0.00    +0.000 A 
ATOM     27  S   UNL     1      50.525   6.411  17.651  0.00  0.00    +0.000 S 
ATOM     28  C   UNL     1      50.095   7.035  16.131  0.00  0.00    +0.000 A 
ATOM     29  C   UNL     1      49.015   6.389  15.541  0.00  0.00    +0.000 A 
ATOM     30  C   UNL     1      48.526   5.325  16.414  0.00  0.00    +0.000 A 
BRANCH  22  32
ATOM     31  C   UNL     1      47.197   3.460  14.235  0.00  0.00    +0.000 C 
ATOM     32  O   UNL     1      46.661   4.299  15.259  0.00  0.00    +0.000 OA
ENDBRANCH  22  32
ENDBRANCH  18  29
ENDBRANCH   1  20
TORSDOF 8
ENDMDL
MODEL 2
REMARK VINA RESULT:    -7.417      1.467      1.836
REMARK INTER + INTRA:         -12.172
REMARK INTER:                 -11.093
REMARK INTRA:                  -1.079
REMARK UNBOUND:                -1.287
REMARK  Name = 
REMARK  9 active torsions:
REMARK  status: ('A' for Active; 'I' for Inactive)
REMARK    1  A    between atoms: C_1  and  O_2
REMARK    2  A    between atoms: O_2  and  C_3
REMARK    3  A    between atoms: C_10  and  C_11
REMARK    4  A    between atoms: N_13  and  C_14
REMARK    5  A    between atoms: C_14  and  C_15
REMARK    6  A    between atoms: C_18  and  N_19
REMARK    7  A    between atoms: N_19  and  C_20
REMARK    8  A    between atoms: C_20  and  C_21
REMARK    9  A    between atoms: C_21  and  N_22
REMARK                            x       y       z     vdW  Elec       q    Type
REMARK                         _______ _______ _______ _____ _____    ______ ____
ROOT
ATOM      1  C   UNL     1      48.289   7.009  13.461  0.00  0.00    +0.000 C 
ENDROOT
BRANCH   1   2
ATOM      2  C   UNL     1      47.139   6.243  12.865  0.00  0.00    +0.000 A 
ATOM      3  C   UNL     1      46.537   5.199  13.572  0.00  0.00    +0.000 A 
ATOM      4  C   UNL     1      45.448   4.504  13.032  0.00  0.00    +0.000 A 
ATOM      5  C   UNL     1      44.918   4.840  11.783  0.00  0.00    +0.000 A 
ATOM      6  C   UNL     1      45.582   5.826  11.043  0.00  0.00    +0.000 A 
ATOM      7  C   UNL     1      46.669   6.532  11.578  0.00  0.00    +0.000 A 
BRANCH   5   8
ATOM      8  N   UNL     1      43.830   4.180  11.191  0.00  0.00    +0.000 N 
ATOM      9  H   UNL     1      42.960   4.697  11.336  0.00  0.00    +0.000 HD
BRANCH   8  10
ATOM     10  C   UNL     1      43.970   3.796   9.782  0.00  0.00    +0.000 C 
BRANCH  10  11
ATOM     11  C   UNL     1      44.763   2.477   9.627  0.00  0.00    +0.000 C 
BRANCH  11  12
ATOM     12  N   UNL     1      45.900   2.518   8.672  0.00  0.00    +0.000 NA
ATOM     13  C   UNL     1      46.186   1.192   8.100  0.00  0.00    +0.000 C 
ATOM     14  C   UNL     1      47.366   1.244   7.128  0.00  0.00    +0.000 C 
ATOM     15  C   UNL     1      47.129   2.255   6.015  0.00  0.00    +0.000 C 
ATOM     16  C   UNL     1      46.755   3.609   6.605  0.00  0.00    +0.000 C 
ATOM     17  C   UNL     1      45.594   3.482   7.595  0.00  0.00    +0.000 C 
ENDBRANCH  11  12
ENDBRANCH  10  11
ENDBRANCH   8  10
ENDBRANCH   5   8
ENDBRANCH   1   2
BRANCH   1  20
ATOM     18  C   UNL     1      49.375   7.231  15.647  0.00  0.00    +0.000 C 
ATOM     19  O   UNL     1      50.444   7.514  15.113  0.00  0.00    +0.000 OA
ATOM     20  N   UNL     1      48.261   6.968  14.902  0.00  0.00    +0.000 N 
ATOM     21  H   UNL     1      47.399   6.682  15.349  0.00  0.00    +0.000 HD
BRANCH  18  29
ATOM     22  C   UNL     1      48.898   4.635  17.862  0.00  0.00    +0.000 A 
ATOM     23  N   UNL     1      48.725   3.831  18.930  0.00  0.00    +0.000 NA
ATOM     24  C   UNL     1      48.688   4.392  20.141  0.00  0.00    +0.000 A 
ATOM     25  N   UNL     1      48.802   5.685  20.427  0.00  0.00    +0.000 NA
ATOM     26  C   UNL     1      48.981   6.451  19.337  0.00  0.00    +0.000 A 
ATOM     27  S   UNL     1      49.143   8.132  19.516  0.00  0.00    +0.000 S 
ATOM     28  C   UNL     1      49.309   8.341  17.839  0.00  0.00    +0.000 A 
ATOM     29  C   UNL     1      49.252   7.157  17.114  0.00  0.00    +0.000 A 
ATOM     30  C   UNL     1      49.051   6.025  18.014  0.00  0.00    +0.000 A 
BRANCH  22  32
ATOM     31  C   UNL     1      47.832   3.246  16.315  0.00  0.00    +0.000 C 
ATOM     32  O   UNL     1      48.973   4.049  16.616  0.00  0.00    +0.000 OA
ENDBRANCH  22  32
ENDBRANCH  18  29
ENDBRANCH   1  20
TORSDOF 8
ENDMDL
MODEL 3
REMARK VINA RESULT:    -7.293      2.580      3.412
REMARK INTER + INTRA:         -11.991
REMARK INTER:                 -10.862
REMARK INTRA:                  -1.129
REMARK UNBOUND:                -1.287
REMARK  Name = 
REMARK  9 active torsions:
REMARK  status: ('A' for Active; 'I' for Inactive)
REMARK    1  A    between atoms: C_1  and  O_2
REMARK    2  A    between atoms: O_2  and  C_3
REMARK    3  A    between atoms: C_10  and  C_11
REMARK    4  A    between atoms: N_13  and  C_14
REMARK    5  A    between atoms: C_14  and  C_15
REMARK    6  A    between atoms: C_18  and  N_19
REMARK    7  A    between atoms: N_19  and  C_20
REMARK    8  A    between atoms: C_20  and  C_21
REMARK    9  A    between atoms: C_21  and  N_22
REMARK                            x       y       z     vdW  Elec       q    Type
REMARK                         _______ _______ _______ _____ _____    ______ ____
ROOT
ATOM      1  C   UNL     1      48.535   6.788  14.059  0.00  0.00    +0.000 C 
ENDROOT
BRANCH   1   2
ATOM      2  C   UNL     1      47.418   6.181  13.253  0.00  0.00    +0.000 A 
ATOM      3  C   UNL     1      46.779   5.017  13.688  0.00  0.00    +0.000 A 
ATOM      4  C   UNL     1      45.720   4.466  12.955  0.00  0.00    +0.000 A 
ATOM      5  C   UNL     1      45.258   5.068  11.781  0.00  0.00    +0.000 A 
ATOM      6  C   UNL     1      45.961   6.181  11.305  0.00  0.00    +0.000 A 
ATOM      7  C   UNL     1      47.018   6.744  12.036  0.00  0.00    +0.000 A 
BRANCH   5   8
ATOM      8  N   UNL     1      44.203   4.562  11.006  0.00  0.00    +0.000 N 
ATOM      9  H   UNL     1      43.743   5.306  10.476  0.00  0.00    +0.000 HD
BRANCH   8  10
ATOM     10  C   UNL     1      44.504   3.422  10.133  0.00  0.00    +0.000 C 
BRANCH  10  11
ATOM     11  C   UNL     1      44.566   3.845   8.646  0.00  0.00    +0.000 C 
BRANCH  11  12
ATOM     12  N   UNL     1      45.355   2.956   7.755  0.00  0.00    +0.000 NA
ATOM     13  C   UNL     1      46.472   3.669   7.115  0.00  0.00    +0.000 C 
ATOM     14  C   UNL     1      47.269   2.747   6.191  0.00  0.00    +0.000 C 
ATOM     15  C   UNL     1      47.785   1.522   6.933  0.00  0.00    +0.000 C 
ATOM     16  C   UNL     1      46.642   0.828   7.662  0.00  0.00    +0.000 C 
ATOM     17  C   UNL     1      45.863   1.812   8.539  0.00  0.00    +0.000 C 
ENDBRANCH  11  12
ENDBRANCH  10  11
ENDBRANCH   8  10
ENDBRANCH   5   8
ENDBRANCH   1   2
BRANCH   1  20
ATOM     18  C   UNL     1      49.159   6.465  16.406  0.00  0.00    +0.000 C 
ATOM     19  O   UNL     1      50.300   6.146  16.084  0.00  0.00    +0.000 OA
ATOM     20  N   UNL     1      48.226   6.799  15.467  0.00  0.00    +0.000 N 
ATOM     21  H   UNL     1      47.273   7.007  15.739  0.00  0.00    +0.000 HD
BRANCH  18  29
ATOM     22  C   UNL     1      47.795   8.899  18.430  0.00  0.00    +0.000 A 
ATOM     23  N   UNL     1      47.268   9.640  19.423  0.00  0.00    +0.000 NA
ATOM     24  C   UNL     1      47.121   9.073  20.623  0.00  0.00    +0.000 A 
ATOM     25  N   UNL     1      47.446   7.829  20.964  0.00  0.00    +0.000 NA
ATOM     26  C   UNL     1      47.960   7.122  19.944  0.00  0.00    +0.000 A 
ATOM     27  S   UNL     1      48.434   5.512  20.201  0.00  0.00    +0.000 S 
ATOM     28  C   UNL     1      48.931   5.350  18.585  0.00  0.00    +0.000 A 
ATOM     29  C   UNL     1      48.748   6.497  17.822  0.00  0.00    +0.000 A 
ATOM     30  C   UNL     1      48.169   7.560  18.639  0.00  0.00    +0.000 A 
BRANCH  22  32
ATOM     31  C   UNL     1      49.065  10.307  17.064  0.00  0.00    +0.000 C 
ATOM     32  O   UNL     1      47.910   9.477  17.182  0.00  0.00    +0.000 OA
ENDBRANCH  22  32
ENDBRANCH  18  29
ENDBRANCH   1  20
TORSDOF 8
ENDMDL
MODEL 4
REMARK VINA RESULT:    -7.022      1.438      1.905
REMARK INTER + INTRA:         -11.593
REMARK INTER:                 -10.691
REMARK INTRA:                  -0.902
REMARK UNBOUND:                -1.287
REMARK  Name = 
REMARK  9 active torsions:
REMARK  status: ('A' for Active; 'I' for Inactive)
REMARK    1  A    between atoms: C_1  and  O_2
REMARK    2  A    between atoms: O_2  and  C_3
REMARK    3  A    between atoms: C_10  and  C_11
REMARK    4  A    between atoms: N_13  and  C_14
REMARK    5  A    between atoms: C_14  and  C_15
REMARK    6  A    between atoms: C_18  and  N_19
REMARK    7  A    between atoms: N_19  and  C_20
REMARK    8  A    between atoms: C_20  and  C_21
REMARK    9  A    between atoms: C_21  and  N_22
REMARK                            x       y       z     vdW  Elec       q    Type
REMARK                         _______ _______ _______ _____ _____    ______ ____
ROOT
ATOM      1  C   UNL     1      45.938   8.645  12.670  0.00  0.00    +0.000 C 
ENDROOT
BRANCH   1   2
ATOM      2  C   UNL     1      45.311   7.348  12.233  0.00  0.00    +0.000 A 
ATOM      3  C   UNL     1      46.027   6.151  12.309  0.00  0.00    +0.000 A 
ATOM      4  C   UNL     1      45.437   4.938  11.931  0.00  0.00    +0.000 A 
ATOM      5  C   UNL     1      44.113   4.883  11.486  0.00  0.00    +0.000 A 
ATOM      6  C   UNL     1      43.431   6.096  11.328  0.00  0.00    +0.000 A 
ATOM      7  C   UNL     1      44.013   7.314  11.710  0.00  0.00    +0.000 A 
BRANCH   5   8
ATOM      8  N   UNL     1      43.468   3.699  11.094  0.00  0.00    +0.000 N 
ATOM      9  H   UNL     1      42.520   3.886  10.762  0.00  0.00    +0.000 HD
BRANCH   8  10
ATOM     10  C   UNL     1      44.181   2.835  10.146  0.00  0.00    +0.000 C 
BRANCH  10  11
ATOM     11  C   UNL     1      44.551   3.594   8.850  0.00  0.00    +0.000 C 
BRANCH  11  12
ATOM     12  N   UNL     1      45.352   2.828   7.862  0.00  0.00    +0.000 NA
ATOM     13  C   UNL     1      46.389   3.660   7.231  0.00  0.00    +0.000 C 
ATOM     14  C   UNL     1      47.199   2.865   6.206  0.00  0.00    +0.000 C 
ATOM     15  C   UNL     1      47.828   1.628   6.830  0.00  0.00    +0.000 C 
ATOM     16  C   UNL     1      46.768   0.805   7.551  0.00  0.00    +0.000 C 
ATOM     17  C   UNL     1      45.970   1.667   8.533  0.00  0.00    +0.000 C 
ENDBRANCH  11  12
ENDBRANCH  10  11
ENDBRANCH   8  10
ENDBRANCH   5   8
ENDBRANCH   1   2
BRANCH   1  20
ATOM     18  C   UNL     1      48.079   8.678  13.861  0.00  0.00    +0.000 C 
ATOM     19  O   UNL     1      48.669   9.016  12.839  0.00  0.00    +0.000 OA
ATOM     20  N   UNL     1      46.729   8.474  13.863  0.00  0.00    +0.000 N 
ATOM     21  H   UNL     1      46.260   8.142  14.696  0.00  0.00    +0.000 HD
BRANCH  18  29
ATOM     22  C   UNL     1      48.622   5.928  15.865  0.00  0.00    +0.000 A 
ATOM     23  N   UNL     1      48.988   5.041  16.811  0.00  0.00    +0.000 NA
ATOM     24  C   UNL     1      49.720   5.480  17.838  0.00  0.00    +0.000 A 
ATOM     25  N   UNL     1      50.140   6.725  18.045  0.00  0.00    +0.000 NA
ATOM     26  C   UNL     1      49.762   7.575  17.076  0.00  0.00    +0.000 A 
ATOM     27  S   UNL     1      50.209   9.210  17.180  0.00  0.00    +0.000 S 
ATOM     28  C   UNL     1      49.417   9.568  15.721  0.00  0.00    +0.000 A 
ATOM     29  C   UNL     1      48.805   8.471  15.127  0.00  0.00    +0.000 A 
ATOM     30  C   UNL     1      49.011   7.277  15.943  0.00  0.00    +0.000 A 
BRANCH  22  32
ATOM     31  C   UNL     1      47.167   4.274  15.085  0.00  0.00    +0.000 C 
ATOM     32  O   UNL     1      47.899   5.462  14.787  0.00  0.00    +0.000 OA
ENDBRANCH  22  32
ENDBRANCH  18  29
ENDBRANCH   1  20
TORSDOF 8
ENDMDL
MODEL 5
REMARK VINA RESULT:    -7.010      2.388      3.689
REMARK INTER + INTRA:         -11.575
REMARK INTER:                 -10.597
REMARK INTRA:                  -0.978
REMARK UNBOUND:                -1.287
REMARK  Name = 
REMARK  9 active torsions:
REMARK  status: ('A' for Active; 'I' for Inactive)
REMARK    1  A    between atoms: C_1  and  O_2
REMARK    2  A    between atoms: O_2  and  C_3
REMARK    3  A    between atoms: C_10  and  C_11
REMARK    4  A    between atoms: N_13  and  C_14
REMARK    5  A    between atoms: C_14  and  C_15
REMARK    6  A    between atoms: C_18  and  N_19
REMARK    7  A    between atoms: N_19  and  C_20
REMARK    8  A    between atoms: C_20  and  C_21
REMARK    9  A    between atoms: C_21  and  N_22
REMARK                            x       y       z     vdW  Elec       q    Type
REMARK                         _______ _______ _______ _____ _____    ______ ____
ROOT
ATOM      1  C   UNL     1      47.395   3.939  15.332  0.00  0.00    +0.000 C 
ENDROOT
BRANCH   1   2
ATOM      2  C   UNL     1      46.797   4.397  14.029  0.00  0.00    +0.000 A 
ATOM      3  C   UNL     1      46.021   3.526  13.259  0.00  0.00    +0.000 A 
ATOM      4  C   UNL     1      45.439   3.957  12.060  0.00  0.00    +0.000 A 
ATOM      5  C   UNL     1      45.598   5.269  11.606  0.00  0.00    +0.000 A 
ATOM      6  C   UNL     1      46.449   6.109  12.336  0.00  0.00    +0.000 A 
ATOM      7  C   UNL     1      47.031   5.687  13.541  0.00  0.00    +0.000 A 
BRANCH   5   8
ATOM      8  N   UNL     1      45.039   5.758  10.414  0.00  0.00    +0.000 N 
ATOM      9  H   UNL     1      45.066   6.779  10.384  0.00  0.00    +0.000 HD
BRANCH   8  10
ATOM     10  C   UNL     1      45.550   5.195   9.159  0.00  0.00    +0.000 C 
BRANCH  10  11
ATOM     11  C   UNL     1      44.684   4.009   8.673  0.00  0.00    +0.000 C 
BRANCH  11  12
ATOM     12  N   UNL     1      45.366   3.037   7.781  0.00  0.00    +0.000 NA
ATOM     13  C   UNL     1      46.471   3.657   7.032  0.00  0.00    +0.000 C 
ATOM     14  C   UNL     1      47.157   2.650   6.108  0.00  0.00    +0.000 C 
ATOM     15  C   UNL     1      47.660   1.438   6.878  0.00  0.00    +0.000 C 
ATOM     16  C   UNL     1      46.536   0.841   7.716  0.00  0.00    +0.000 C 
ATOM     17  C   UNL     1      45.869   1.907   8.589  0.00  0.00    +0.000 C 
ENDBRANCH  11  12
ENDBRANCH  10  11
ENDBRANCH   8  10
ENDBRANCH   5   8
ENDBRANCH   1   2
BRANCH   1  20
ATOM     18  C   UNL     1      48.488   5.438  16.933  0.00  0.00    +0.000 C 
ATOM     19  O   UNL     1      49.590   4.980  16.645  0.00  0.00    +0.000 OA
ATOM     20  N   UNL     1      47.352   4.980  16.329  0.00  0.00    +0.000 N 
ATOM     21  H   UNL     1      46.443   5.325  16.611  0.00  0.00    +0.000 HD
BRANCH  18  29
ATOM     22  C   UNL     1      48.413   8.880  16.776  0.00  0.00    +0.000 A 
ATOM     23  N   UNL     1      48.346  10.206  17.003  0.00  0.00    +0.000 NA
ATOM     24  C   UNL     1      48.200  10.623  18.263  0.00  0.00    +0.000 A 
ATOM     25  N   UNL     1      48.112   9.863  19.351  0.00  0.00    +0.000 NA
ATOM     26  C   UNL     1      48.174   8.548  19.080  0.00  0.00    +0.000 A 
ATOM     27  S   UNL     1      48.081   7.430  20.354  0.00  0.00    +0.000 S 
ATOM     28  C   UNL     1      48.227   6.123  19.279  0.00  0.00    +0.000 A 
ATOM     29  C   UNL     1      48.344   6.499  17.947  0.00  0.00    +0.000 A 
ATOM     30  C   UNL     1      48.316   7.954  17.830  0.00  0.00    +0.000 A 
BRANCH  22  32
ATOM     31  C   UNL     1      49.881   8.383  15.027  0.00  0.00    +0.000 C 
ATOM     32  O   UNL     1      48.526   8.452  15.469  0.00  0.00    +0.000 OA
ENDBRANCH  22  32
ENDBRANCH  18  29
ENDBRANCH   1  20
TORSDOF 8
ENDMDL
MODEL 6
REMARK VINA RESULT:    -6.928      2.462      3.305
REMARK INTER + INTRA:         -11.455
REMARK INTER:                 -10.491
REMARK INTRA:                  -0.964
REMARK UNBOUND:                -1.287
REMARK  Name = 
REMARK  9 active torsions:
REMARK  status: ('A' for Active; 'I' for Inactive)
REMARK    1  A    between atoms: C_1  and  O_2
REMARK    2  A    between atoms: O_2  and  C_3
REMARK    3  A    between atoms: C_10  and  C_11
REMARK    4  A    between atoms: N_13  and  C_14
REMARK    5  A    between atoms: C_14  and  C_15
REMARK    6  A    between atoms: C_18  and  N_19
REMARK    7  A    between atoms: N_19  and  C_20
REMARK    8  A    between atoms: C_20  and  C_21
REMARK    9  A    between atoms: C_21  and  N_22
REMARK                            x       y       z     vdW  Elec       q    Type
REMARK                         _______ _______ _______ _____ _____    ______ ____
ROOT
ATOM      1  C   UNL     1      47.468   4.319  15.362  0.00  0.00    +0.000 C 
ENDROOT
BRANCH   1   2
ATOM      2  C   UNL     1      46.808   4.619  14.043  0.00  0.00    +0.000 A 
ATOM      3  C   UNL     1      46.094   3.628  13.364  0.00  0.00    +0.000 A 
ATOM      4  C   UNL     1      45.455   3.912  12.151  0.00  0.00    +0.000 A 
ATOM      5  C   UNL     1      45.493   5.192  11.591  0.00  0.00    +0.000 A 
ATOM      6  C   UNL     1      46.283   6.155  12.231  0.00  0.00    +0.000 A 
ATOM      7  C   UNL     1      46.922   5.881  13.449  0.00  0.00    +0.000 A 
BRANCH   5   8
ATOM      8  N   UNL     1      44.872   5.535  10.380  0.00  0.00    +0.000 N 
ATOM      9  H   UNL     1      44.726   6.545  10.312  0.00  0.00    +0.000 HD
BRANCH   8  10
ATOM     10  C   UNL     1      45.483   5.021   9.149  0.00  0.00    +0.000 C 
BRANCH  10  11
ATOM     11  C   UNL     1      44.647   3.873   8.536  0.00  0.00    +0.000 C 
BRANCH  11  12
ATOM     12  N   UNL     1      45.380   2.958   7.625  0.00  0.00    +0.000 NA
ATOM     13  C   UNL     1      46.415   3.662   6.852  0.00  0.00    +0.000 C 
ATOM     14  C   UNL     1      47.155   2.713   5.908  0.00  0.00    +0.000 C 
ATOM     15  C   UNL     1      47.770   1.543   6.663  0.00  0.00    +0.000 C 
ATOM     16  C   UNL     1      46.716   0.860   7.525  0.00  0.00    +0.000 C 
ATOM     17  C   UNL     1      45.989   1.870   8.417  0.00  0.00    +0.000 C 
ENDBRANCH  11  12
ENDBRANCH  10  11
ENDBRANCH   8  10
ENDBRANCH   5   8
ENDBRANCH   1   2
BRANCH   1  20
ATOM     18  C   UNL     1      48.697   6.187  16.363  0.00  0.00    +0.000 C 
ATOM     19  O   UNL     1      49.730   5.841  15.798  0.00  0.00    +0.000 OA
ATOM     20  N   UNL     1      47.534   5.490  16.200  0.00  0.00    +0.000 N 
ATOM     21  H   UNL     1      46.701   5.750  16.712  0.00  0.00    +0.000 HD
BRANCH  18  29
ATOM     22  C   UNL     1      47.824   6.665  19.662  0.00  0.00    +0.000 A 
ATOM     23  N   UNL     1      47.557   7.128  20.899  0.00  0.00    +0.000 NA
ATOM     24  C   UNL     1      47.736   8.431  21.136  0.00  0.00    +0.000 A 
ATOM     25  N   UNL     1      48.154   9.350  20.271  0.00  0.00    +0.000 NA
ATOM     26  C   UNL     1      48.416   8.846  19.053  0.00  0.00    +0.000 A 
ATOM     27  S   UNL     1      48.958   9.881  17.821  0.00  0.00    +0.000 S 
ATOM     28  C   UNL     1      49.042   8.596  16.714  0.00  0.00    +0.000 A 
ATOM     29  C   UNL     1      48.670   7.367  17.247  0.00  0.00    +0.000 A 
ATOM     30  C   UNL     1      48.291   7.520  18.649  0.00  0.00    +0.000 A 
BRANCH  22  32
ATOM     31  C   UNL     1      48.900   4.593  19.562  0.00  0.00    +0.000 C 
ATOM     32  O   UNL     1      47.674   5.313  19.432  0.00  0.00    +0.000 OA
ENDBRANCH  22  32
ENDBRANCH  18  29
ENDBRANCH   1  20
TORSDOF 8
ENDMDL
MODEL 7
REMARK VINA RESULT:    -6.583      2.006      3.670
REMARK INTER + INTRA:         -10.949
REMARK INTER:                  -9.759
REMARK INTRA:                  -1.190
REMARK UNBOUND:                -1.287
REMARK  Name = 
REMARK  9 active torsions:
REMARK  status: ('A' for Active; 'I' for Inactive)
REMARK    1  A    between atoms: C_1  and  O_2
REMARK    2  A    between atoms: O_2  and  C_3
REMARK    3  A    between atoms: C_10  and  C_11
REMARK    4  A    between atoms: N_13  and  C_14
REMARK    5  A    between atoms: C_14  and  C_15
REMARK    6  A    between atoms: C_18  and  N_19
REMARK    7  A    between atoms: N_19  and  C_20
REMARK    8  A    between atoms: C_20  and  C_21
REMARK    9  A    between atoms: C_21  and  N_22
REMARK                            x       y       z     vdW  Elec       q    Type
REMARK                         _______ _______ _______ _____ _____    ______ ____
ROOT
ATOM      1  C   UNL     1      47.279   4.461  15.160  0.00  0.00    +0.000 C 
ENDROOT
BRANCH   1   2
ATOM      2  C   UNL     1      46.431   4.580  13.923  0.00  0.00    +0.000 A 
ATOM      3  C   UNL     1      45.979   5.829  13.489  0.00  0.00    +0.000 A 
ATOM      4  C   UNL     1      45.213   5.947  12.322  0.00  0.00    +0.000 A 
ATOM      5  C   UNL     1      44.892   4.828  11.548  0.00  0.00    +0.000 A 
ATOM      6  C   UNL     1      45.271   3.572  12.037  0.00  0.00    +0.000 A 
ATOM      7  C   UNL     1      46.044   3.445  13.201  0.00  0.00    +0.000 A 
BRANCH   5   8
ATOM      8  N   UNL     1      44.129   4.884  10.371  0.00  0.00    +0.000 N 
ATOM      9  H   UNL     1      44.347   5.722   9.828  0.00  0.00    +0.000 HD
BRANCH   8  10
ATOM     10  C   UNL     1      44.146   3.696   9.509  0.00  0.00    +0.000 C 
BRANCH  10  11
ATOM     11  C   UNL     1      44.605   4.042   8.073  0.00  0.00    +0.000 C 
BRANCH  11  12
ATOM     12  N   UNL     1      45.414   3.002   7.388  0.00  0.00    +0.000 NA
ATOM     13  C   UNL     1      46.583   3.577   6.701  0.00  0.00    +0.000 C 
ATOM     14  C   UNL     1      47.401   2.499   5.989  0.00  0.00    +0.000 C 
ATOM     15  C   UNL     1      47.844   1.407   6.952  0.00  0.00    +0.000 C 
ATOM     16  C   UNL     1      46.646   0.865   7.721  0.00  0.00    +0.000 C 
ATOM     17  C   UNL     1      45.850   1.996   8.378  0.00  0.00    +0.000 C 
ENDBRANCH  11  12
ENDBRANCH  10  11
ENDBRANCH   8  10
ENDBRANCH   5   8
ENDBRANCH   1   2
BRANCH   1  20
ATOM     18  C   UNL     1      48.606   5.874  16.659  0.00  0.00    +0.000 C 
ATOM     19  O   UNL     1      48.767   4.938  17.437  0.00  0.00    +0.000 OA
ATOM     20  N   UNL     1      47.885   5.722  15.510  0.00  0.00    +0.000 N 
ATOM     21  H   UNL     1      47.711   6.512  14.902  0.00  0.00    +0.000 HD
BRANCH  18  29
ATOM     22  C   UNL     1      50.298   8.179  14.736  0.00  0.00    +0.000 A 
ATOM     23  N   UNL     1      50.960   9.238  14.230  0.00  0.00    +0.000 NA
ATOM     24  C   UNL     1      51.235  10.258  15.046  0.00  0.00    +0.000 A 
ATOM     25  N   UNL     1      50.928  10.354  16.336  0.00  0.00    +0.000 NA
ATOM     26  C   UNL     1      50.261   9.283  16.799  0.00  0.00    +0.000 A 
ATOM     27  S   UNL     1      49.790   9.235  18.430  0.00  0.00    +0.000 S 
ATOM     28  C   UNL     1      49.082   7.705  18.229  0.00  0.00    +0.000 A 
ATOM     29  C   UNL     1      49.180   7.203  16.937  0.00  0.00    +0.000 A 
ATOM     30  C   UNL     1      49.891   8.149  16.082  0.00  0.00    +0.000 A 
BRANCH  22  32
ATOM     31  C   UNL     1      49.178   7.564  12.779  0.00  0.00    +0.000 C 
ATOM     32  O   UNL     1      49.982   7.144  13.880  0.00  0.00    +0.000 OA
ENDBRANCH  22  32
ENDBRANCH  18  29
ENDBRANCH   1  20
TORSDOF 8
ENDMDL
MODEL 8
REMARK VINA RESULT:    -6.460      4.682      9.172
REMARK INTER + INTRA:         -10.767
REMARK INTER:                  -9.933
REMARK INTRA:                  -0.834
REMARK UNBOUND:                -1.287
REMARK  Name = 
REMARK  9 active torsions:
REMARK  status: ('A' for Active; 'I' for Inactive)
REMARK    1  A    between atoms: C_1  and  O_2
REMARK    2  A    between atoms: O_2  and  C_3
REMARK    3  A    between atoms: C_10  and  C_11
REMARK    4  A    between atoms: N_13  and  C_14
REMARK    5  A    between atoms: C_14  and  C_15
REMARK    6  A    between atoms: C_18  and  N_19
REMARK    7  A    between atoms: N_19  and  C_20
REMARK    8  A    between atoms: C_20  and  C_21
REMARK    9  A    between atoms: C_21  and  N_22
REMARK                            x       y       z     vdW  Elec       q    Type
REMARK                         _______ _______ _______ _____ _____    ______ ____
ROOT
ATOM      1  C   UNL     1      47.288   3.328  16.938  0.00  0.00    +0.000 C 
ENDROOT
BRANCH   1   2
ATOM      2  C   UNL     1      48.771   3.293  17.192  0.00  0.00    +0.000 A 
ATOM      3  C   UNL     1      49.453   4.450  17.579  0.00  0.00    +0.000 A 
ATOM      4  C   UNL     1      50.828   4.415  17.844  0.00  0.00    +0.000 A 
ATOM      5  C   UNL     1      51.556   3.226  17.749  0.00  0.00    +0.000 A 
ATOM      6  C   UNL     1      50.885   2.092  17.276  0.00  0.00    +0.000 A 
ATOM      7  C   UNL     1      49.507   2.116  17.014  0.00  0.00    +0.000 A 
BRANCH   5   8
ATOM      8  N   UNL     1      52.933   3.130  18.003  0.00  0.00    +0.000 N 
ATOM      9  H   UNL     1      53.216   3.757  18.758  0.00  0.00    +0.000 HD
BRANCH   8  10
ATOM     10  C   UNL     1      53.478   1.785  18.223  0.00  0.00    +0.000 C 
BRANCH  10  11
ATOM     11  C   UNL     1      54.749   1.540  17.377  0.00  0.00    +0.000 C 
BRANCH  11  12
ATOM     12  N   UNL     1      55.258   0.145  17.367  0.00  0.00    +0.000 NA
ATOM     13  C   UNL     1      54.981  -0.551  18.634  0.00  0.00    +0.000 C 
ATOM     14  C   UNL     1      55.520  -1.982  18.618  0.00  0.00    +0.000 C 
ATOM     15  C   UNL     1      54.957  -2.778  17.449  0.00  0.00    +0.000 C 
ATOM     16  C   UNL     1      55.172  -2.022  16.144  0.00  0.00    +0.000 C 
ATOM     17  C   UNL     1      54.645  -0.587  16.240  0.00  0.00    +0.000 C 
ENDBRANCH  11  12
ENDBRANCH  10  11
ENDBRANCH   8  10
ENDBRANCH   5   8
ENDBRANCH   1   2
BRANCH   1  20
ATOM     18  C   UNL     1      46.987   4.195  14.667  0.00  0.00    +0.000 C 
ATOM     19  O   UNL     1      47.338   3.122  14.186  0.00  0.00    +0.000 OA
ATOM     20  N   UNL     1      46.933   4.380  16.018  0.00  0.00    +0.000 N 
ATOM     21  H   UNL     1      46.695   5.284  16.405  0.00  0.00    +0.000 HD
BRANCH  18  29
ATOM     22  C   UNL     1      44.290   4.838  12.620  0.00  0.00    +0.000 A 
ATOM     23  N   UNL     1      43.373   5.343  11.772  0.00  0.00    +0.000 NA
ATOM     24  C   UNL     1      43.602   6.546  11.240  0.00  0.00    +0.000 A 
ATOM     25  N   UNL     1      44.658   7.326  11.450  0.00  0.00    +0.000 NA
ATOM     26  C   UNL     1      45.544   6.790  12.308  0.00  0.00    +0.000 A 
ATOM     27  S   UNL     1      46.957   7.649  12.691  0.00  0.00    +0.000 S 
ATOM     28  C   UNL     1      47.487   6.409  13.723  0.00  0.00    +0.000 A 
ATOM     29  C   UNL     1      46.614   5.331  13.804  0.00  0.00    +0.000 A 
ATOM     30  C   UNL     1      45.451   5.560  12.952  0.00  0.00    +0.000 A 
BRANCH  22  32
ATOM     31  C   UNL     1      43.515   2.662  12.266  0.00  0.00    +0.000 C 
ATOM     32  O   UNL     1      44.033   3.612  13.197  0.00  0.00    +0.000 OA
ENDBRANCH  22  32
ENDBRANCH  18  29
ENDBRANCH   1  20
TORSDOF 8
ENDMDL
MODEL 9
REMARK VINA RESULT:    -6.125      5.406      7.456
REMARK INTER + INTRA:         -10.276
REMARK INTER:                  -9.092
REMARK INTRA:                  -1.184
REMARK UNBOUND:                -1.287
REMARK  Name = 
REMARK  9 active torsions:
REMARK  status: ('A' for Active; 'I' for Inactive)
REMARK    1  A    between atoms: C_1  and  O_2
REMARK    2  A    between atoms: O_2  and  C_3
REMARK    3  A    between atoms: C_10  and  C_11
REMARK    4  A    between atoms: N_13  and  C_14
REMARK    5  A    between atoms: C_14  and  C_15
REMARK    6  A    between atoms: C_18  and  N_19
REMARK    7  A    between atoms: N_19  and  C_20
REMARK    8  A    between atoms: C_20  and  C_21
REMARK    9  A    between atoms: C_21  and  N_22
REMARK                            x       y       z     vdW  Elec       q    Type
REMARK                         _______ _______ _______ _____ _____    ______ ____
ROOT
ATOM      1  C   UNL     1      51.344   8.445  12.006  0.00  0.00    +0.000 C 
ENDROOT
BRANCH   1   2
ATOM      2  C   UNL     1      49.998   7.894  12.393  0.00  0.00    +0.000 A 
ATOM      3  C   UNL     1      49.751   7.480  13.705  0.00  0.00    +0.000 A 
ATOM      4  C   UNL     1      48.491   6.993  14.076  0.00  0.00    +0.000 A 
ATOM      5  C   UNL     1      47.440   6.923  13.157  0.00  0.00    +0.000 A 
ATOM      6  C   UNL     1      47.720   7.255  11.826  0.00  0.00    +0.000 A 
ATOM      7  C   UNL     1      48.977   7.749  11.447  0.00  0.00    +0.000 A 
BRANCH   5   8
ATOM      8  N   UNL     1      46.158   6.446  13.470  0.00  0.00    +0.000 N 
ATOM      9  H   UNL     1      45.438   6.940  12.939  0.00  0.00    +0.000 HD
BRANCH   8  10
ATOM     10  C   UNL     1      45.948   4.996  13.388  0.00  0.00    +0.000 C 
BRANCH  10  11
ATOM     11  C   UNL     1      44.767   4.643  12.454  0.00  0.00    +0.000 C 
BRANCH  11  12
ATOM     12  N   UNL     1      45.137   4.075  11.133  0.00  0.00    +0.000 NA
ATOM     13  C   UNL     1      44.166   3.068  10.674  0.00  0.00    +0.000 C 
ATOM     14  C   UNL     1      44.565   2.481   9.319  0.00  0.00    +0.000 C 
ATOM     15  C   UNL     1      44.730   3.568   8.267  0.00  0.00    +0.000 C 
ATOM     16  C   UNL     1      45.675   4.651   8.772  0.00  0.00    +0.000 C 
ATOM     17  C   UNL     1      45.241   5.169  10.146  0.00  0.00    +0.000 C 
ENDBRANCH  11  12
ENDBRANCH  10  11
ENDBRANCH   8  10
ENDBRANCH   5   8
ENDBRANCH   1   2
BRANCH   1  20
ATOM     18  C   UNL     1      52.684   8.750   9.978  0.00  0.00    +0.000 C 
ATOM     19  O   UNL     1      53.334   9.643  10.514  0.00  0.00    +0.000 OA
ATOM     20  N   UNL     1      51.684   8.105  10.646  0.00  0.00    +0.000 N 
ATOM     21  H   UNL     1      51.118   7.409  10.179  0.00  0.00    +0.000 HD
BRANCH  18  29
ATOM     22  C   UNL     1      53.586   5.764   8.514  0.00  0.00    +0.000 A 
ATOM     23  N   UNL     1      53.927   4.750   7.694  0.00  0.00    +0.000 NA
ATOM     24  C   UNL     1      54.034   5.005   6.387  0.00  0.00    +0.000 A 
ATOM     25  N   UNL     1      53.841   6.174   5.783  0.00  0.00    +0.000 NA
ATOM     26  C   UNL     1      53.495   7.155   6.634  0.00  0.00    +0.000 A 
ATOM     27  S   UNL     1      53.213   8.718   6.033  0.00  0.00    +0.000 S 
ATOM     28  C   UNL     1      52.868   9.304   7.590  0.00  0.00    +0.000 A 
ATOM     29  C   UNL     1      52.954   8.341   8.588  0.00  0.00    +0.000 A 
ATOM     30  C   UNL     1      53.334   7.053   8.013  0.00  0.00    +0.000 A 
BRANCH  22  32
ATOM     31  C   UNL     1      54.663   5.614  10.582  0.00  0.00    +0.000 C 
ATOM     32  O   UNL     1      53.441   5.488   9.858  0.00  0.00    +0.000 OA
ENDBRANCH  22  32
ENDBRANCH  18  29
ENDBRANCH   1  20
TORSDOF 8
ENDMDL
