MODEL 1
REMARK VINA RESULT:    -7.449      0.000      0.000
REMARK INTER + INTRA:         -10.022
REMARK INTER:                  -9.408
REMARK INTRA:                  -0.614
REMARK UNBOUND:                -0.614
REMARK  Name = 
REMARK  5 active torsions:
REMARK  status: ('A' for Active; 'I' for Inactive)
REMARK    1  A    between atoms: N_1  and  C_2
REMARK    2  A    between atoms: C_2  and  C_3
REMARK    3  A    between atoms: C_6  and  O_7
REMARK    4  A    between atoms: O_7  and  C_8
REMARK    5  A    between atoms: C_8  and  C_9
REMARK                            x       y       z     vdW  Elec       q    Type
REMARK                         _______ _______ _______ _____ _____    ______ ____
ROOT
ATOM      1  C   UNL     1      46.564   2.330   7.638  0.00  0.00    +0.000 A 
ATOM      2  C   UNL     1      46.470   3.729   7.574  0.00  0.00    +0.000 A 
ATOM      3  C   UNL     1      45.491   4.411   8.303  0.00  0.00    +0.000 A 
ATOM      4  C   UNL     1      44.588   3.704   9.095  0.00  0.00    +0.000 A 
ATOM      5  C   UNL     1      44.724   2.319   9.221  0.00  0.00    +0.000 A 
ATOM      6  C   UNL     1      45.693   1.636   8.486  0.00  0.00    +0.000 A 
ENDROOT
BRANCH   1   7
ATOM      7  C   UNL     1      47.558   1.577   6.793  0.00  0.00    +0.000 C 
BRANCH   7   8
ATOM      8  N   UNL     1      48.647   2.432   6.347  0.00  0.00    +0.000 NA
ATOM      9  H   UNL     1      49.479   1.864   6.213  0.00  0.00    +0.000 HD
ATOM     10  H   UNL     1      48.866   3.095   7.090  0.00  0.00    +0.000 HD
ENDBRANCH   7   8
ENDBRANCH   1   7
BRANCH   4  11
ATOM     11  O   UNL     1      43.597   4.444   9.691  0.00  0.00    +0.000 OA
BRANCH  11  12
ATOM     12  C   UNL     1      43.441   4.191  11.090  0.00  0.00    +0.000 C 
BRANCH  12  13
ATOM     13  C   UNL     1      44.662   4.589  11.882  0.00  0.00    +0.000 A 
ATOM     14  C   UNL     1      45.008   5.950  11.961  0.00  0.00    +0.000 A 
ATOM     15  C   UNL     1      46.096   6.366  12.727  0.00  0.00    +0.000 A 
ATOM     16  C   UNL     1      46.847   5.429  13.432  0.00  0.00    +0.000 A 
ATOM     17  C   UNL     1      46.499   4.085  13.364  0.00  0.00    +0.000 A 
ATOM     18  F   UNL     1      47.216   3.187  14.052  0.00  0.00    +0.000 F 
ATOM     19  C   UNL     1      45.415   3.656  12.602  0.00  0.00    +0.000 A 
ENDBRANCH  12  13
ENDBRANCH  11  12
ENDBRANCH   4  11
TORSDOF 5
ENDMDL
MODEL 2
REMARK VINA RESULT:    -7.374      2.957      5.676
REMARK INTER + INTRA:          -9.927
REMARK INTER:                  -9.356
REMARK INTRA:                  -0.571
REMARK UNBOUND:                -0.614
REMARK  Name = 
REMARK  5 active torsions:
REMARK  status: ('A' for Active; 'I' for Inactive)
REMARK    1  A    between atoms: N_1  and  C_2
REMARK    2  A    between atoms: C_2  and  C_3
REMARK    3  A    between atoms: C_6  and  O_7
REMARK    4  A    between atoms: O_7  and  C_8
REMARK    5  A    between atoms: C_8  and  C_9
REMARK                            x       y       z     vdW  Elec       q    Type
REMARK                         _______ _______ _______ _____ _____    ______ ____
ROOT
ATOM      1  C   UNL     1      46.584   5.485  12.975  0.00  0.00    +0.000 A 
ATOM      2  C   UNL     1      46.122   6.127  11.817  0.00  0.00    +0.000 A 
ATOM      3  C   UNL     1      45.303   5.453  10.905  0.00  0.00    +0.000 A 
ATOM      4  C   UNL     1      44.947   4.124  11.135  0.00  0.00    +0.000 A 
ATOM      5  C   UNL     1      45.343   3.503  12.323  0.00  0.00    +0.000 A 
ATOM      6  C   UNL     1      46.168   4.172  13.227  0.00  0.00    +0.000 A 
ENDROOT
BRANCH   1   7
ATOM      7  C   UNL     1      47.534   6.172  13.921  0.00  0.00    +0.000 C 
BRANCH   7   8
ATOM      8  N   UNL     1      47.746   5.395  15.133  0.00  0.00    +0.000 NA
ATOM      9  H   UNL     1      47.348   4.468  15.005  0.00  0.00    +0.000 HD
ATOM     10  H   UNL     1      47.227   5.830  15.895  0.00  0.00    +0.000 HD
ENDBRANCH   7   8
ENDBRANCH   1   7
BRANCH   4  11
ATOM     11  O   UNL     1      44.231   3.509  10.138  0.00  0.00    +0.000 OA
BRANCH  11  12
ATOM     12  C   UNL     1      44.545   3.974   8.823  0.00  0.00    +0.000 C 
BRANCH  12  13
ATOM     13  C   UNL     1      45.573   3.105   8.140  0.00  0.00    +0.000 A 
ATOM     14  C   UNL     1      46.526   3.709   7.300  0.00  0.00    +0.000 A 
ATOM     15  C   UNL     1      47.526   2.948   6.695  0.00  0.00    +0.000 A 
ATOM     16  C   UNL     1      47.593   1.578   6.928  0.00  0.00    +0.000 A 
ATOM     17  C   UNL     1      46.659   0.982   7.767  0.00  0.00    +0.000 A 
ATOM     18  F   UNL     1      46.732  -0.336   7.998  0.00  0.00    +0.000 F 
ATOM     19  C   UNL     1      45.655   1.729   8.378  0.00  0.00    +0.000 A 
ENDBRANCH  12  13
ENDBRANCH  11  12
ENDBRANCH   4  11
TORSDOF 5
ENDMDL
MODEL 3
REMARK VINA RESULT:    -7.325      1.367      2.086
REMARK INTER + INTRA:          -9.867
REMARK INTER:                  -9.359
REMARK INTRA:                  -0.508
REMARK UNBOUND:                -0.614
REMARK  Name = 
REMARK  5 active torsions:
REMARK  status: ('A' for Active; 'I' for Inactive)
REMARK    1  A    between atoms: N_1  and  C_2
REMARK    2  A    between atoms: C_2  and  C_3
REMARK    3  A    between atoms: C_6  and  O_7
REMARK    4  A    between atoms: O_7  and  C_8
REMARK    5  A    between atoms: C_8  and  C_9
REMARK                            x       y       z     vdW  Elec       q    Type
REMARK                         _______ _______ _______ _____ _____    ______ ____
ROOT
ATOM      1  C   UNL     1      46.937   2.378   7.280  0.00  0.00    +0.000 A 
ATOM      2  C   UNL     1      46.352   1.390   8.087  0.00  0.00    +0.000 A 
ATOM      3  C   UNL     1      45.279   1.700   8.929  0.00  0.00    +0.000 A 
ATOM      4  C   UNL     1      44.786   3.002   8.984  0.00  0.00    +0.000 A 
ATOM      5  C   UNL     1      45.315   3.973   8.128  0.00  0.00    +0.000 A 
ATOM      6  C   UNL     1      46.392   3.667   7.296  0.00  0.00    +0.000 A 
ENDROOT
BRANCH   1   7
ATOM      7  C   UNL     1      48.146   2.078   6.433  0.00  0.00    +0.000 C 
BRANCH   7   8
ATOM      8  N   UNL     1      48.074   2.735   5.137  0.00  0.00    +0.000 NA
ATOM      9  H   UNL     1      48.800   3.445   5.086  0.00  0.00    +0.000 HD
ATOM     10  H   UNL     1      47.183   3.226   5.069  0.00  0.00    +0.000 HD
ENDBRANCH   7   8
ENDBRANCH   1   7
BRANCH   4  11
ATOM     11  O   UNL     1      43.804   3.239   9.913  0.00  0.00    +0.000 OA
BRANCH  11  12
ATOM     12  C   UNL     1      43.740   4.595  10.362  0.00  0.00    +0.000 C 
BRANCH  12  13
ATOM     13  C   UNL     1      44.839   4.924  11.343  0.00  0.00    +0.000 A 
ATOM     14  C   UNL     1      45.037   4.081  12.452  0.00  0.00    +0.000 A 
ATOM     15  C   UNL     1      46.076   4.319  13.351  0.00  0.00    +0.000 A 
ATOM     16  C   UNL     1      46.935   5.395  13.149  0.00  0.00    +0.000 A 
ATOM     17  C   UNL     1      46.749   6.221  12.048  0.00  0.00    +0.000 A 
ATOM     18  F   UNL     1      47.584   7.249  11.850  0.00  0.00    +0.000 F 
ATOM     19  C   UNL     1      45.715   5.996  11.142  0.00  0.00    +0.000 A 
ENDBRANCH  12  13
ENDBRANCH  11  12
ENDBRANCH   4  11
TORSDOF 5
ENDMDL
MODEL 4
REMARK VINA RESULT:    -6.315      2.986      5.821
REMARK INTER + INTRA:          -8.590
REMARK INTER:                  -7.997
REMARK INTRA:                  -0.593
REMARK UNBOUND:                -0.614
REMARK  Name = 
REMARK  5 active torsions:
REMARK  status: ('A' for Active; 'I' for Inactive)
REMARK    1  A    between atoms: N_1  and  C_2
REMARK    2  A    between atoms: C_2  and  C_3
REMARK    3  A    between atoms: C_6  and  O_7
REMARK    4  A    between atoms: O_7  and  C_8
REMARK    5  A    between atoms: C_8  and  C_9
REMARK                            x       y       z     vdW  Elec       q    Type
REMARK                         _______ _______ _______ _____ _____    ______ ____
ROOT
ATOM      1  C   UNL     1      47.364   6.786  13.036  0.00  0.00    +0.000 A 
ATOM      2  C   UNL     1      47.106   5.492  13.514  0.00  0.00    +0.000 A 
ATOM      3  C   UNL     1      46.050   4.737  12.994  0.00  0.00    +0.000 A 
ATOM      4  C   UNL     1      45.231   5.271  12.000  0.00  0.00    +0.000 A 
ATOM      5  C   UNL     1      45.528   6.529  11.469  0.00  0.00    +0.000 A 
ATOM      6  C   UNL     1      46.575   7.287  11.994  0.00  0.00    +0.000 A 
ENDROOT
BRANCH   1   7
ATOM      7  C   UNL     1      48.444   7.641  13.646  0.00  0.00    +0.000 C 
BRANCH   7   8
ATOM      8  N   UNL     1      49.747   6.997  13.575  0.00  0.00    +0.000 NA
ATOM      9  H   UNL     1      50.444   7.692  13.318  0.00  0.00    +0.000 HD
ATOM     10  H   UNL     1      49.731   6.311  12.822  0.00  0.00    +0.000 HD
ENDBRANCH   7   8
ENDBRANCH   1   7
BRANCH   4  11
ATOM     11  O   UNL     1      44.157   4.503  11.625  0.00  0.00    +0.000 OA
BRANCH  11  12
ATOM     12  C   UNL     1      43.810   4.622  10.242  0.00  0.00    +0.000 C 
BRANCH  12  13
ATOM     13  C   UNL     1      44.704   3.790   9.356  0.00  0.00    +0.000 A 
ATOM     14  C   UNL     1      44.750   2.398   9.551  0.00  0.00    +0.000 A 
ATOM     15  C   UNL     1      45.521   1.586   8.718  0.00  0.00    +0.000 A 
ATOM     16  C   UNL     1      46.247   2.154   7.675  0.00  0.00    +0.000 A 
ATOM     17  C   UNL     1      46.193   3.528   7.474  0.00  0.00    +0.000 A 
ATOM     18  F   UNL     1      46.884   4.071   6.463  0.00  0.00    +0.000 F 
ATOM     19  C   UNL     1      45.428   4.350   8.298  0.00  0.00    +0.000 A 
ENDBRANCH  12  13
ENDBRANCH  11  12
ENDBRANCH   4  11
TORSDOF 5
ENDMDL
MODEL 5
REMARK VINA RESULT:    -5.691      4.971      7.654
REMARK INTER + INTRA:          -7.802
REMARK INTER:                  -7.397
REMARK INTRA:                  -0.405
REMARK UNBOUND:                -0.614
REMARK  Name = 
REMARK  5 active torsions:
REMARK  status: ('A' for Active; 'I' for Inactive)
REMARK    1  A    between atoms: N_1  and  C_2
REMARK    2  A    between atoms: C_2  and  C_3
REMARK    3  A    between atoms: C_6  and  O_7
REMARK    4  A    between atoms: O_7  and  C_8
REMARK    5  A    between atoms: C_8  and  C_9
REMARK                            x       y       z     vdW  Elec       q    Type
REMARK                         _______ _______ _______ _____ _____    ______ ____
ROOT
ATOM      1  C   UNL     1      48.574   3.978  18.211  0.00  0.00    +0.000 A 
ATOM      2  C   UNL     1      47.721   4.861  17.531  0.00  0.00    +0.000 A 
ATOM      3  C   UNL     1      47.263   4.561  16.244  0.00  0.00    +0.000 A 
ATOM      4  C   UNL     1      47.661   3.381  15.617  0.00  0.00    +0.000 A 
ATOM      5  C   UNL     1      48.450   2.464  16.318  0.00  0.00    +0.000 A 
ATOM      6  C   UNL     1      48.915   2.768  17.597  0.00  0.00    +0.000 A 
ENDROOT
BRANCH   1   7
ATOM      7  C   UNL     1      49.142   4.329  19.561  0.00  0.00    +0.000 C 
BRANCH   7   8
ATOM      8  N   UNL     1      48.460   3.621  20.634  0.00  0.00    +0.000 NA
ATOM      9  H   UNL     1      47.590   4.101  20.847  0.00  0.00    +0.000 HD
ATOM     10  H   UNL     1      49.033   3.675  21.476  0.00  0.00    +0.000 HD
ENDBRANCH   7   8
ENDBRANCH   1   7
BRANCH   4  11
ATOM     11  O   UNL     1      47.250   3.218  14.317  0.00  0.00    +0.000 OA
BRANCH  11  12
ATOM     12  C   UNL     1      46.911   4.440  13.656  0.00  0.00    +0.000 C 
BRANCH  12  13
ATOM     13  C   UNL     1      45.530   4.396  13.049  0.00  0.00    +0.000 A 
ATOM     14  C   UNL     1      44.754   5.569  13.036  0.00  0.00    +0.000 A 
ATOM     15  C   UNL     1      43.495   5.585  12.436  0.00  0.00    +0.000 A 
ATOM     16  C   UNL     1      43.000   4.432  11.834  0.00  0.00    +0.000 A 
ATOM     17  C   UNL     1      43.769   3.276  11.835  0.00  0.00    +0.000 A 
ATOM     18  F   UNL     1      43.295   2.171  11.245  0.00  0.00    +0.000 F 
ATOM     19  C   UNL     1      45.028   3.245  12.431  0.00  0.00    +0.000 A 
ENDBRANCH  12  13
ENDBRANCH  11  12
ENDBRANCH   4  11
TORSDOF 5
ENDMDL
MODEL 6
REMARK VINA RESULT:    -5.447      2.095      3.159
REMARK INTER + INTRA:          -7.494
REMARK INTER:                  -7.034
REMARK INTRA:                  -0.460
REMARK UNBOUND:                -0.614
REMARK  Name = 
REMARK  5 active torsions:
REMARK  status: ('A' for Active; 'I' for Inactive)
REMARK    1  A    between atoms: N_1  and  C_2
REMARK    2  A    between atoms: C_2  and  C_3
REMARK    3  A    between atoms: C_6  and  O_7
REMARK    4  A    between atoms: O_7  and  C_8
REMARK    5  A    between atoms: C_8  and  C_9
REMARK                            x       y       z     vdW  Elec       q    Type
REMARK                         _______ _______ _______ _____ _____    ______ ____
ROOT
ATOM      1  C   UNL     1      45.517   3.646   8.356  0.00  0.00    +0.000 A 
ATOM      2  C   UNL     1      45.053   2.672   9.253  0.00  0.00    +0.000 A 
ATOM      3  C   UNL     1      44.847   2.984  10.600  0.00  0.00    +0.000 A 
ATOM      4  C   UNL     1      45.113   4.269  11.070  0.00  0.00    +0.000 A 
ATOM      5  C   UNL     1      45.504   5.262  10.167  0.00  0.00    +0.000 A 
ATOM      6  C   UNL     1      45.720   4.949   8.825  0.00  0.00    +0.000 A 
ENDROOT
BRANCH   1   7
ATOM      7  C   UNL     1      45.824   3.302   6.922  0.00  0.00    +0.000 C 
BRANCH   7   8
ATOM      8  N   UNL     1      46.928   4.094   6.401  0.00  0.00    +0.000 NA
ATOM      9  H   UNL     1      46.764   4.281   5.415  0.00  0.00    +0.000 HD
ATOM     10  H   UNL     1      47.781   3.538   6.451  0.00  0.00    +0.000 HD
ENDBRANCH   7   8
ENDBRANCH   1   7
BRANCH   4  11
ATOM     11  O   UNL     1      44.984   4.457  12.424  0.00  0.00    +0.000 OA
BRANCH  11  12
ATOM     12  C   UNL     1      45.953   3.754  13.205  0.00  0.00    +0.000 C 
BRANCH  12  13
ATOM     13  C   UNL     1      46.837   4.688  13.994  0.00  0.00    +0.000 A 
ATOM     14  C   UNL     1      47.153   4.364  15.326  0.00  0.00    +0.000 A 
ATOM     15  C   UNL     1      48.011   5.171  16.072  0.00  0.00    +0.000 A 
ATOM     16  C   UNL     1      48.571   6.307  15.495  0.00  0.00    +0.000 A 
ATOM     17  C   UNL     1      48.270   6.623  14.176  0.00  0.00    +0.000 A 
ATOM     18  F   UNL     1      48.819   7.711  13.619  0.00  0.00    +0.000 F 
ATOM     19  C   UNL     1      47.414   5.825  13.419  0.00  0.00    +0.000 A 
ENDBRANCH  12  13
ENDBRANCH  11  12
ENDBRANCH   4  11
TORSDOF 5
ENDMDL
MODEL 7
REMARK VINA RESULT:    -5.100      3.547      6.111
REMARK INTER + INTRA:          -7.055
REMARK INTER:                  -6.539
REMARK INTRA:                  -0.517
REMARK UNBOUND:                -0.614
REMARK  Name = 
REMARK  5 active torsions:
REMARK  status: ('A' for Active; 'I' for Inactive)
REMARK    1  A    between atoms: N_1  and  C_2
REMARK    2  A    between atoms: C_2  and  C_3
REMARK    3  A    between atoms: C_6  and  O_7
REMARK    4  A    between atoms: O_7  and  C_8
REMARK    5  A    between atoms: C_8  and  C_9
REMARK                            x       y       z     vdW  Elec       q    Type
REMARK                         _______ _______ _______ _____ _____    ______ ____
ROOT
ATOM      1  C   UNL     1      48.176   8.994  12.021  0.00  0.00    +0.000 A 
ATOM      2  C   UNL     1      48.477   7.650  11.753  0.00  0.00    +0.000 A 
ATOM      3  C   UNL     1      47.480   6.670  11.814  0.00  0.00    +0.000 A 
ATOM      4  C   UNL     1      46.175   7.020  12.155  0.00  0.00    +0.000 A 
ATOM      5  C   UNL     1      45.854   8.367  12.350  0.00  0.00    +0.000 A 
ATOM      6  C   UNL     1      46.849   9.343  12.300  0.00  0.00    +0.000 A 
ENDROOT
BRANCH   1   7
ATOM      7  C   UNL     1      49.254  10.045  12.043  0.00  0.00    +0.000 C 
BRANCH   7   8
ATOM      8  N   UNL     1      50.581   9.460  11.927  0.00  0.00    +0.000 NA
ATOM      9  H   UNL     1      50.526   8.469  12.153  0.00  0.00    +0.000 HD
ATOM     10  H   UNL     1      51.187   9.883  12.628  0.00  0.00    +0.000 HD
ENDBRANCH   7   8
ENDBRANCH   1   7
BRANCH   4  11
ATOM     11  O   UNL     1      45.287   5.982  12.294  0.00  0.00    +0.000 OA
BRANCH  11  12
ATOM     12  C   UNL     1      44.376   5.845  11.200  0.00  0.00    +0.000 C 
BRANCH  12  13
ATOM     13  C   UNL     1      44.761   4.716  10.275  0.00  0.00    +0.000 A 
ATOM     14  C   UNL     1      44.278   3.422  10.542  0.00  0.00    +0.000 A 
ATOM     15  C   UNL     1      44.565   2.363   9.681  0.00  0.00    +0.000 A 
ATOM     16  C   UNL     1      45.330   2.585   8.539  0.00  0.00    +0.000 A 
ATOM     17  C   UNL     1      45.797   3.864   8.268  0.00  0.00    +0.000 A 
ATOM     18  F   UNL     1      46.524   4.077   7.163  0.00  0.00    +0.000 F 
ATOM     19  C   UNL     1      45.519   4.932   9.119  0.00  0.00    +0.000 A 
ENDBRANCH  12  13
ENDBRANCH  11  12
ENDBRANCH   4  11
TORSDOF 5
ENDMDL
MODEL 8
REMARK VINA RESULT:    -5.082      4.316      6.968
REMARK INTER + INTRA:          -7.033
REMARK INTER:                  -6.645
REMARK INTRA:                  -0.388
REMARK UNBOUND:                -0.614
REMARK  Name = 
REMARK  5 active torsions:
REMARK  status: ('A' for Active; 'I' for Inactive)
REMARK    1  A    between atoms: N_1  and  C_2
REMARK    2  A    between atoms: C_2  and  C_3
REMARK    3  A    between atoms: C_6  and  O_7
REMARK    4  A    between atoms: O_7  and  C_8
REMARK    5  A    between atoms: C_8  and  C_9
REMARK                            x       y       z     vdW  Elec       q    Type
REMARK                         _______ _______ _______ _____ _____    ______ ____
ROOT
ATOM      1  C   UNL     1      48.643   4.318  17.007  0.00  0.00    +0.000 A 
ATOM      2  C   UNL     1      48.871   5.628  16.559  0.00  0.00    +0.000 A 
ATOM      3  C   UNL     1      48.238   6.108  15.408  0.00  0.00    +0.000 A 
ATOM      4  C   UNL     1      47.379   5.281  14.685  0.00  0.00    +0.000 A 
ATOM      5  C   UNL     1      47.090   4.002  15.168  0.00  0.00    +0.000 A 
ATOM      6  C   UNL     1      47.729   3.518  16.310  0.00  0.00    +0.000 A 
ENDROOT
BRANCH   1   7
ATOM      7  C   UNL     1      49.382   3.761  18.195  0.00  0.00    +0.000 C 
BRANCH   7   8
ATOM      8  N   UNL     1      48.473   3.347  19.253  0.00  0.00    +0.000 NA
ATOM      9  H   UNL     1      48.241   4.156  19.824  0.00  0.00    +0.000 HD
ATOM     10  H   UNL     1      48.959   2.692  19.864  0.00  0.00    +0.000 HD
ENDBRANCH   7   8
ENDBRANCH   1   7
BRANCH   4  11
ATOM     11  O   UNL     1      46.885   5.799  13.513  0.00  0.00    +0.000 OA
BRANCH  11  12
ATOM     12  C   UNL     1      45.530   5.432  13.240  0.00  0.00    +0.000 C 
BRANCH  12  13
ATOM     13  C   UNL     1      45.344   4.956  11.820  0.00  0.00    +0.000 A 
ATOM     14  C   UNL     1      45.809   5.762  10.765  0.00  0.00    +0.000 A 
ATOM     15  C   UNL     1      45.706   5.333   9.441  0.00  0.00    +0.000 A 
ATOM     16  C   UNL     1      45.145   4.092   9.156  0.00  0.00    +0.000 A 
ATOM     17  C   UNL     1      44.695   3.290  10.198  0.00  0.00    +0.000 A 
ATOM     18  F   UNL     1      44.166   2.091   9.922  0.00  0.00    +0.000 F 
ATOM     19  C   UNL     1      44.792   3.705  11.524  0.00  0.00    +0.000 A 
ENDBRANCH  12  13
ENDBRANCH  11  12
ENDBRANCH   4  11
TORSDOF 5
ENDMDL
MODEL 9
REMARK VINA RESULT:    -4.749      3.784      5.968
REMARK INTER + INTRA:          -6.612
REMARK INTER:                  -6.201
REMARK INTRA:                  -0.411
REMARK UNBOUND:                -0.614
REMARK  Name = 
REMARK  5 active torsions:
REMARK  status: ('A' for Active; 'I' for Inactive)
REMARK    1  A    between atoms: N_1  and  C_2
REMARK    2  A    between atoms: C_2  and  C_3
REMARK    3  A    between atoms: C_6  and  O_7
REMARK    4  A    between atoms: O_7  and  C_8
REMARK    5  A    between atoms: C_8  and  C_9
REMARK                            x       y       z     vdW  Elec       q    Type
REMARK                         _______ _______ _______ _____ _____    ______ ____
ROOT
ATOM      1  C   UNL     1      49.321   8.712  11.954  0.00  0.00    +0.000 A 
ATOM      2  C   UNL     1      48.872   7.398  11.754  0.00  0.00    +0.000 A 
ATOM      3  C   UNL     1      47.527   7.066  11.948  0.00  0.00    +0.000 A 
ATOM      4  C   UNL     1      46.618   8.041  12.356  0.00  0.00    +0.000 A 
ATOM      5  C   UNL     1      47.044   9.366  12.485  0.00  0.00    +0.000 A 
ATOM      6  C   UNL     1      48.387   9.696  12.301  0.00  0.00    +0.000 A 
ENDROOT
BRANCH   1   7
ATOM      7  C   UNL     1      50.780   9.065  11.831  0.00  0.00    +0.000 C 
BRANCH   7   8
ATOM      8  N   UNL     1      51.628   8.102  12.518  0.00  0.00    +0.000 NA
ATOM      9  H   UNL     1      51.576   7.211  12.032  0.00  0.00    +0.000 HD
ATOM     10  H   UNL     1      51.252   7.944  13.452  0.00  0.00    +0.000 HD
ENDBRANCH   7   8
ENDBRANCH   1   7
BRANCH   4  11
ATOM     11  O   UNL     1      45.344   7.605  12.624  0.00  0.00    +0.000 OA
BRANCH  11  12
ATOM     12  C   UNL     1      44.641   7.119  11.478  0.00  0.00    +0.000 C 
BRANCH  12  13
ATOM     13  C   UNL     1      44.278   5.659  11.606  0.00  0.00    +0.000 A 
ATOM     14  C   UNL     1      43.782   5.187  12.835  0.00  0.00    +0.000 A 
ATOM     15  C   UNL     1      43.383   3.858  12.979  0.00  0.00    +0.000 A 
ATOM     16  C   UNL     1      43.468   2.988  11.896  0.00  0.00    +0.000 A 
ATOM     17  C   UNL     1      43.947   3.455  10.679  0.00  0.00    +0.000 A 
ATOM     18  F   UNL     1      44.017   2.618   9.636  0.00  0.00    +0.000 F 
ATOM     19  C   UNL     1      44.349   4.780  10.521  0.00  0.00    +0.000 A 
ENDBRANCH  12  13
ENDBRANCH  11  12
ENDBRANCH   4  11
TORSDOF 5
ENDMDL
