MODEL 1
REMARK VINA RESULT:    -9.721      0.000      0.000
REMARK INTER + INTRA:         -14.330
REMARK INTER:                 -13.700
REMARK INTRA:                  -0.631
REMARK UNBOUND:                -0.631
REMARK  Name = 
REMARK  9 active torsions:
REMARK  status: ('A' for Active; 'I' for Inactive)
REMARK    1  A    between atoms: C_1  and  C_2
REMARK    2  A    between atoms: C_2  and  C_3
REMARK    3  A    between atoms: C_5  and  O_6
REMARK    4  A    between atoms: O_6  and  C_7
REMARK    5  A    between atoms: C_9  and  C_10
REMARK    6  A    between atoms: C_10  and  C_13
REMARK    7  A    between atoms: C_13  and  N_14
REMARK    8  A    between atoms: N_14  and  C_15
REMARK    9  A    between atoms: C_18  and  C_19
REMARK                            x       y       z     vdW  Elec       q    Type
REMARK                         _______ _______ _______ _____ _____    ______ ____
ROOT
ATOM      1  C   UNL     1      43.598   5.133  12.435  0.00  0.00    +0.000 C 
ATOM      2  F   UNL     1      42.858   4.638  13.471  0.00  0.00    +0.000 F 
ATOM      3  F   UNL     1      43.068   6.367  12.171  0.00  0.00    +0.000 F 
ENDROOT
BRANCH   1   6
ATOM      4  C   UNL     1      47.015   4.297  13.877  0.00  0.00    +0.000 A 
ATOM      5  C   UNL     1      45.662   4.209  13.576  0.00  0.00    +0.000 A 
ATOM      6  C   UNL     1      45.072   5.230  12.816  0.00  0.00    +0.000 A 
ATOM      7  C   UNL     1      45.896   6.298  12.427  0.00  0.00    +0.000 A 
ATOM      8  C   UNL     1      47.230   6.303  12.796  0.00  0.00    +0.000 A 
ATOM      9  N   UNL     1      47.808   5.322  13.507  0.00  0.00    +0.000 NA
BRANCH   4  10
ATOM     10  O   UNL     1      47.578   3.256  14.585  0.00  0.00    +0.000 OA
BRANCH  10  15
ATOM     11  C   UNL     1      48.442   3.794  18.977  0.00  0.00    +0.000 C 
ATOM     12  C   UNL     1      49.106   3.698  17.604  0.00  0.00    +0.000 C 
ATOM     13  C   UNL     1      50.624   3.815  17.707  0.00  0.00    +0.000 C 
ATOM     14  C   UNL     1      48.483   4.631  16.532  0.00  0.00    +0.000 C 
ATOM     15  C   UNL     1      47.632   3.438  16.020  0.00  0.00    +0.000 C 
ATOM     16  C   UNL     1      48.627   2.498  16.746  0.00  0.00    +0.000 C 
ENDBRANCH  10  15
ENDBRANCH   4  10
ENDBRANCH   1   6
BRANCH   1  17
ATOM     17  C   UNL     1      43.358   4.238  11.190  0.00  0.00    +0.000 C 
BRANCH  17  18
ATOM     18  N   UNL     1      43.701   4.837   9.884  0.00  0.00    +0.000 N 
ATOM     19  H   UNL     1      43.942   5.825   9.968  0.00  0.00    +0.000 HD
BRANCH  18  20
ATOM     20  C   UNL     1      44.607   4.114   9.087  0.00  0.00    +0.000 A 
ATOM     21  C   UNL     1      45.608   4.726   8.315  0.00  0.00    +0.000 A 
ATOM     22  C   UNL     1      46.545   3.976   7.592  0.00  0.00    +0.000 A 
ATOM     23  C   UNL     1      46.519   2.580   7.649  0.00  0.00    +0.000 A 
ATOM     24  C   UNL     1      45.549   1.968   8.441  0.00  0.00    +0.000 A 
ATOM     25  F   UNL     1      45.477   0.631   8.538  0.00  0.00    +0.000 F 
ATOM     26  C   UNL     1      44.618   2.722   9.158  0.00  0.00    +0.000 A 
BRANCH  23  27
ATOM     27  C   UNL     1      47.537   1.817   6.883  0.00  0.00    +0.000 C 
ATOM     28  N   UNL     1      48.631   2.491   6.423  0.00  0.00    +0.000 N 
ATOM     29  O   UNL     1      47.409   0.616   6.671  0.00  0.00    +0.000 OA
ATOM     30  H   UNL     1      48.767   3.484   6.569  0.00  0.00    +0.000 HD
ATOM     31  H   UNL     1      49.317   1.981   5.884  0.00  0.00    +0.000 HD
ENDBRANCH  23  27
ENDBRANCH  18  20
ENDBRANCH  17  18
ENDBRANCH   1  17
TORSDOF 7
ENDMDL
MODEL 2
REMARK VINA RESULT:    -9.135      1.334      1.835
REMARK INTER + INTRA:         -13.503
REMARK INTER:                 -13.145
REMARK INTRA:                  -0.359
REMARK UNBOUND:                -0.631
REMARK  Name = 
REMARK  9 active torsions:
REMARK  status: ('A' for Active; 'I' for Inactive)
REMARK    1  A    between atoms: C_1  and  C_2
REMARK    2  A    between atoms: C_2  and  C_3
REMARK    3  A    between atoms: C_5  and  O_6
REMARK    4  A    between atoms: O_6  and  C_7
REMARK    5  A    between atoms: C_9  and  C_10
REMARK    6  A    between atoms: C_10  and  C_13
REMARK    7  A    between atoms: C_13  and  N_14
REMARK    8  A    between atoms: N_14  and  C_15
REMARK    9  A    between atoms: C_18  and  C_19
REMARK                            x       y       z     vdW  Elec       q    Type
REMARK                         _______ _______ _______ _____ _____    ______ ____
ROOT
ATOM      1  C   UNL     1      43.819   5.859  12.194  0.00  0.00    +0.000 C 
ATOM      2  F   UNL     1      42.950   5.908  13.248  0.00  0.00    +0.000 F 
ATOM      3  F   UNL     1      43.693   7.068  11.566  0.00  0.00    +0.000 F 
ENDROOT
BRANCH   1   6
ATOM      4  C   UNL     1      46.825   4.390  13.998  0.00  0.00    +0.000 A 
ATOM      5  C   UNL     1      45.511   4.610  13.604  0.00  0.00    +0.000 A 
ATOM      6  C   UNL     1      45.247   5.628  12.677  0.00  0.00    +0.000 A 
ATOM      7  C   UNL     1      46.341   6.382  12.222  0.00  0.00    +0.000 A 
ATOM      8  C   UNL     1      47.611   6.098  12.694  0.00  0.00    +0.000 A 
ATOM      9  N   UNL     1      47.877   5.114  13.567  0.00  0.00    +0.000 NA
BRANCH   4  10
ATOM     10  O   UNL     1      47.060   3.351  14.875  0.00  0.00    +0.000 OA
BRANCH  10  15
ATOM     11  C   UNL     1      49.225   4.698  18.594  0.00  0.00    +0.000 C 
ATOM     12  C   UNL     1      47.865   4.716  17.899  0.00  0.00    +0.000 C 
ATOM     13  C   UNL     1      46.822   5.461  18.727  0.00  0.00    +0.000 C 
ATOM     14  C   UNL     1      47.387   3.325  17.404  0.00  0.00    +0.000 C 
ATOM     15  C   UNL     1      47.929   3.665  15.991  0.00  0.00    +0.000 C 
ATOM     16  C   UNL     1      47.915   5.155  16.412  0.00  0.00    +0.000 C 
ENDBRANCH  10  15
ENDBRANCH   4  10
ENDBRANCH   1   6
BRANCH   1  17
ATOM     17  C   UNL     1      43.333   4.760  11.210  0.00  0.00    +0.000 C 
BRANCH  17  18
ATOM     18  N   UNL     1      43.724   4.936   9.797  0.00  0.00    +0.000 N 
ATOM     19  H   UNL     1      44.036   5.888   9.602  0.00  0.00    +0.000 HD
BRANCH  18  20
ATOM     20  C   UNL     1      44.578   3.956   9.261  0.00  0.00    +0.000 A 
ATOM     21  C   UNL     1      44.469   2.590   9.568  0.00  0.00    +0.000 A 
ATOM     22  C   UNL     1      45.285   1.628   8.958  0.00  0.00    +0.000 A 
ATOM     23  C   UNL     1      46.221   2.013   7.995  0.00  0.00    +0.000 A 
ATOM     24  C   UNL     1      46.311   3.363   7.661  0.00  0.00    +0.000 A 
ATOM     25  F   UNL     1      47.188   3.792   6.740  0.00  0.00    +0.000 F 
ATOM     26  C   UNL     1      45.494   4.317   8.273  0.00  0.00    +0.000 A 
BRANCH  23  27
ATOM     27  C   UNL     1      47.059   0.965   7.357  0.00  0.00    +0.000 C 
ATOM     28  N   UNL     1      46.752  -0.340   7.608  0.00  0.00    +0.000 N 
ATOM     29  O   UNL     1      47.996   1.257   6.622  0.00  0.00    +0.000 OA
ATOM     30  H   UNL     1      45.992  -0.621   8.217  0.00  0.00    +0.000 HD
ATOM     31  H   UNL     1      47.331  -1.058   7.193  0.00  0.00    +0.000 HD
ENDBRANCH  23  27
ENDBRANCH  18  20
ENDBRANCH  17  18
ENDBRANCH   1  17
TORSDOF 7
ENDMDL
MODEL 3
REMARK VINA RESULT:    -8.720      2.446      4.077
REMARK INTER + INTRA:         -12.919
REMARK INTER:                 -11.834
REMARK INTRA:                  -1.085
REMARK UNBOUND:                -0.631
REMARK  Name = 
REMARK  9 active torsions:
REMARK  status: ('A' for Active; 'I' for Inactive)
REMARK    1  A    between atoms: C_1  and  C_2
REMARK    2  A    between atoms: C_2  and  C_3
REMARK    3  A    between atoms: C_5  and  O_6
REMARK    4  A    between atoms: O_6  and  C_7
REMARK    5  A    between atoms: C_9  and  C_10
REMARK    6  A    between atoms: C_10  and  C_13
REMARK    7  A    between atoms: C_13  and  N_14
REMARK    8  A    between atoms: N_14  and  C_15
REMARK    9  A    between atoms: C_18  and  C_19
REMARK                            x       y       z     vdW  Elec       q    Type
REMARK                         _______ _______ _______ _____ _____    ______ ____
ROOT
ATOM      1  C   UNL     1      43.715   6.043  11.812  0.00  0.00    +0.000 C 
ATOM      2  F   UNL     1      42.849   5.716  12.817  0.00  0.00    +0.000 F 
ATOM      3  F   UNL     1      43.406   7.333  11.475  0.00  0.00    +0.000 F 
ENDROOT
BRANCH   1   6
ATOM      4  C   UNL     1      47.474   6.539  12.083  0.00  0.00    +0.000 A 
ATOM      5  C   UNL     1      46.170   6.633  11.615  0.00  0.00    +0.000 A 
ATOM      6  C   UNL     1      45.162   5.920  12.279  0.00  0.00    +0.000 A 
ATOM      7  C   UNL     1      45.549   5.130  13.374  0.00  0.00    +0.000 A 
ATOM      8  C   UNL     1      46.881   5.087  13.749  0.00  0.00    +0.000 A 
ATOM      9  N   UNL     1      47.851   5.779  13.131  0.00  0.00    +0.000 NA
BRANCH   4  10
ATOM     10  O   UNL     1      48.437   7.288  11.439  0.00  0.00    +0.000 OA
BRANCH  10  15
ATOM     11  C   UNL     1      49.826  10.974  13.633  0.00  0.00    +0.000 C 
ATOM     12  C   UNL     1      48.724  10.439  12.720  0.00  0.00    +0.000 C 
ATOM     13  C   UNL     1      47.693  11.516  12.395  0.00  0.00    +0.000 C 
ATOM     14  C   UNL     1      48.097   9.103  13.198  0.00  0.00    +0.000 C 
ATOM     15  C   UNL     1      49.041   8.338  12.232  0.00  0.00    +0.000 C 
ATOM     16  C   UNL     1      49.244   9.674  11.474  0.00  0.00    +0.000 C 
ENDBRANCH  10  15
ENDBRANCH   4  10
ENDBRANCH   1   6
BRANCH   1  17
ATOM     17  C   UNL     1      43.403   5.144  10.585  0.00  0.00    +0.000 C 
BRANCH  17  18
ATOM     18  N   UNL     1      43.987   3.787  10.610  0.00  0.00    +0.000 N 
ATOM     19  H   UNL     1      43.289   3.075  10.829  0.00  0.00    +0.000 HD
BRANCH  18  20
ATOM     20  C   UNL     1      44.804   3.442   9.519  0.00  0.00    +0.000 A 
ATOM     21  C   UNL     1      45.465   4.392   8.723  0.00  0.00    +0.000 A 
ATOM     22  C   UNL     1      46.333   4.013   7.690  0.00  0.00    +0.000 A 
ATOM     23  C   UNL     1      46.585   2.661   7.447  0.00  0.00    +0.000 A 
ATOM     24  C   UNL     1      45.958   1.714   8.255  0.00  0.00    +0.000 A 
ATOM     25  F   UNL     1      46.165   0.401   8.072  0.00  0.00    +0.000 F 
ATOM     26  C   UNL     1      45.093   2.098   9.283  0.00  0.00    +0.000 A 
BRANCH  23  27
ATOM     27  C   UNL     1      47.523   2.296   6.355  0.00  0.00    +0.000 C 
ATOM     28  N   UNL     1      47.424   2.972   5.173  0.00  0.00    +0.000 N 
ATOM     29  O   UNL     1      48.369   1.421   6.505  0.00  0.00    +0.000 OA
ATOM     30  H   UNL     1      46.734   3.694   5.008  0.00  0.00    +0.000 HD
ATOM     31  H   UNL     1      48.047   2.715   4.420  0.00  0.00    +0.000 HD
ENDBRANCH  23  27
ENDBRANCH  18  20
ENDBRANCH  17  18
ENDBRANCH   1  17
TORSDOF 7
ENDMDL
MODEL 4
REMARK VINA RESULT:    -8.304      2.750      3.250
REMARK INTER + INTRA:         -12.332
REMARK INTER:                 -11.484
REMARK INTRA:                  -0.848
REMARK UNBOUND:                -0.631
REMARK  Name = 
REMARK  9 active torsions:
REMARK  status: ('A' for Active; 'I' for Inactive)
REMARK    1  A    between atoms: C_1  and  C_2
REMARK    2  A    between atoms: C_2  and  C_3
REMARK    3  A    between atoms: C_5  and  O_6
REMARK    4  A    between atoms: O_6  and  C_7
REMARK    5  A    between atoms: C_9  and  C_10
REMARK    6  A    between atoms: C_10  and  C_13
REMARK    7  A    between atoms: C_13  and  N_14
REMARK    8  A    between atoms: N_14  and  C_15
REMARK    9  A    between atoms: C_18  and  C_19
REMARK                            x       y       z     vdW  Elec       q    Type
REMARK                         _______ _______ _______ _____ _____    ______ ____
ROOT
ATOM      1  C   UNL     1      44.682   4.381  12.302  0.00  0.00    +0.000 C 
ATOM      2  F   UNL     1      45.633   3.432  12.052  0.00  0.00    +0.000 F 
ATOM      3  F   UNL     1      44.181   4.074  13.537  0.00  0.00    +0.000 F 
ENDROOT
BRANCH   1   6
ATOM      4  C   UNL     1      47.168   7.229  11.902  0.00  0.00    +0.000 A 
ATOM      5  C   UNL     1      46.645   5.943  11.957  0.00  0.00    +0.000 A 
ATOM      6  C   UNL     1      45.290   5.780  12.279  0.00  0.00    +0.000 A 
ATOM      7  C   UNL     1      44.550   6.942  12.552  0.00  0.00    +0.000 A 
ATOM      8  C   UNL     1      45.171   8.178  12.491  0.00  0.00    +0.000 A 
ATOM      9  N   UNL     1      46.463   8.346  12.166  0.00  0.00    +0.000 NA
BRANCH   4  10
ATOM     10  O   UNL     1      48.491   7.362  11.536  0.00  0.00    +0.000 OA
BRANCH  10  15
ATOM     11  C   UNL     1      51.216   7.572  15.123  0.00  0.00    +0.000 C 
ATOM     12  C   UNL     1      50.028   8.258  14.449  0.00  0.00    +0.000 C 
ATOM     13  C   UNL     1      49.560   9.474  15.242  0.00  0.00    +0.000 C 
ATOM     14  C   UNL     1      48.879   7.293  14.056  0.00  0.00    +0.000 C 
ATOM     15  C   UNL     1      49.450   7.234  12.614  0.00  0.00    +0.000 C 
ATOM     16  C   UNL     1      50.226   8.535  12.936  0.00  0.00    +0.000 C 
ENDBRANCH  10  15
ENDBRANCH   4  10
ENDBRANCH   1   6
BRANCH   1  17
ATOM     17  C   UNL     1      43.536   4.209  11.269  0.00  0.00    +0.000 C 
BRANCH  17  18
ATOM     18  N   UNL     1      43.781   4.776   9.927  0.00  0.00    +0.000 N 
ATOM     19  H   UNL     1      43.967   5.779   9.963  0.00  0.00    +0.000 HD
BRANCH  18  20
ATOM     20  C   UNL     1      44.691   4.076   9.114  0.00  0.00    +0.000 A 
ATOM     21  C   UNL     1      45.703   4.709   8.373  0.00  0.00    +0.000 A 
ATOM     22  C   UNL     1      46.642   3.978   7.633  0.00  0.00    +0.000 A 
ATOM     23  C   UNL     1      46.607   2.582   7.641  0.00  0.00    +0.000 A 
ATOM     24  C   UNL     1      45.627   1.948   8.401  0.00  0.00    +0.000 A 
ATOM     25  F   UNL     1      45.547   0.609   8.451  0.00  0.00    +0.000 F 
ATOM     26  C   UNL     1      44.693   2.682   9.136  0.00  0.00    +0.000 A 
BRANCH  23  27
ATOM     27  C   UNL     1      47.628   1.840   6.858  0.00  0.00    +0.000 C 
ATOM     28  N   UNL     1      48.286   2.508   5.867  0.00  0.00    +0.000 N 
ATOM     29  O   UNL     1      47.883   0.664   7.093  0.00  0.00    +0.000 OA
ATOM     30  H   UNL     1      48.097   3.476   5.636  0.00  0.00    +0.000 HD
ATOM     31  H   UNL     1      48.968   2.003   5.317  0.00  0.00    +0.000 HD
ENDBRANCH  23  27
ENDBRANCH  18  20
ENDBRANCH  17  18
ENDBRANCH   1  17
TORSDOF 7
ENDMDL
MODEL 5
REMARK VINA RESULT:    -7.608      2.996      8.793
REMARK INTER + INTRA:         -11.352
REMARK INTER:                 -10.500
REMARK INTRA:                  -0.852
REMARK UNBOUND:                -0.631
REMARK  Name = 
REMARK  9 active torsions:
REMARK  status: ('A' for Active; 'I' for Inactive)
REMARK    1  A    between atoms: C_1  and  C_2
REMARK    2  A    between atoms: C_2  and  C_3
REMARK    3  A    between atoms: C_5  and  O_6
REMARK    4  A    between atoms: O_6  and  C_7
REMARK    5  A    between atoms: C_9  and  C_10
REMARK    6  A    between atoms: C_10  and  C_13
REMARK    7  A    between atoms: C_13  and  N_14
REMARK    8  A    between atoms: N_14  and  C_15
REMARK    9  A    between atoms: C_18  and  C_19
REMARK                            x       y       z     vdW  Elec       q    Type
REMARK                         _______ _______ _______ _____ _____    ______ ____
ROOT
ATOM      1  C   UNL     1      46.573   6.131  12.777  0.00  0.00    +0.000 C 
ATOM      2  F   UNL     1      47.488   6.669  11.915  0.00  0.00    +0.000 F 
ATOM      3  F   UNL     1      46.275   7.135  13.658  0.00  0.00    +0.000 F 
ENDROOT
BRANCH   1   6
ATOM      4  C   UNL     1      44.294   4.834  10.024  0.00  0.00    +0.000 A 
ATOM      5  C   UNL     1      45.429   5.299  10.676  0.00  0.00    +0.000 A 
ATOM      6  C   UNL     1      45.331   5.661  12.027  0.00  0.00    +0.000 A 
ATOM      7  C   UNL     1      44.068   5.549  12.631  0.00  0.00    +0.000 A 
ATOM      8  C   UNL     1      42.992   5.095  11.888  0.00  0.00    +0.000 A 
ATOM      9  N   UNL     1      43.080   4.729  10.599  0.00  0.00    +0.000 NA
BRANCH   4  10
ATOM     10  O   UNL     1      44.432   4.441   8.709  0.00  0.00    +0.000 OA
BRANCH  10  15
ATOM     11  C   UNL     1      47.716   1.740   7.209  0.00  0.00    +0.000 C 
ATOM     12  C   UNL     1      46.676   2.765   6.758  0.00  0.00    +0.000 C 
ATOM     13  C   UNL     1      46.721   2.983   5.249  0.00  0.00    +0.000 C 
ATOM     14  C   UNL     1      46.689   4.083   7.577  0.00  0.00    +0.000 C 
ATOM     15  C   UNL     1      45.527   3.531   8.445  0.00  0.00    +0.000 C 
ATOM     16  C   UNL     1      45.249   2.511   7.312  0.00  0.00    +0.000 C 
ENDBRANCH  10  15
ENDBRANCH   4  10
ENDBRANCH   1   6
BRANCH   1  17
ATOM     17  C   UNL     1      47.262   4.990  13.571  0.00  0.00    +0.000 C 
BRANCH  17  18
ATOM     18  N   UNL     1      46.566   4.538  14.793  0.00  0.00    +0.000 N 
ATOM     19  H   UNL     1      46.073   3.657  14.649  0.00  0.00    +0.000 HD
BRANCH  18  20
ATOM     20  C   UNL     1      47.319   4.560  15.982  0.00  0.00    +0.000 A 
ATOM     21  C   UNL     1      47.262   3.541  16.946  0.00  0.00    +0.000 A 
ATOM     22  C   UNL     1      48.081   3.554  18.083  0.00  0.00    +0.000 A 
ATOM     23  C   UNL     1      49.006   4.584  18.267  0.00  0.00    +0.000 A 
ATOM     24  C   UNL     1      49.090   5.581  17.298  0.00  0.00    +0.000 A 
ATOM     25  F   UNL     1      49.963   6.593  17.419  0.00  0.00    +0.000 F 
ATOM     26  C   UNL     1      48.271   5.562  16.167  0.00  0.00    +0.000 A 
BRANCH  23  27
ATOM     27  C   UNL     1      49.869   4.557  19.476  0.00  0.00    +0.000 C 
ATOM     28  N   UNL     1      51.178   4.205  19.321  0.00  0.00    +0.000 N 
ATOM     29  O   UNL     1      49.428   4.849  20.583  0.00  0.00    +0.000 OA
ATOM     30  H   UNL     1      51.577   3.948  18.426  0.00  0.00    +0.000 HD
ATOM     31  H   UNL     1      51.765   4.165  20.143  0.00  0.00    +0.000 HD
ENDBRANCH  23  27
ENDBRANCH  18  20
ENDBRANCH  17  18
ENDBRANCH   1  17
TORSDOF 7
ENDMDL
MODEL 6
REMARK VINA RESULT:    -7.355      2.608      8.060
REMARK INTER + INTRA:         -10.996
REMARK INTER:                 -10.107
REMARK INTRA:                  -0.889
REMARK UNBOUND:                -0.631
REMARK  Name = 
REMARK  9 active torsions:
REMARK  status: ('A' for Active; 'I' for Inactive)
REMARK    1  A    between atoms: C_1  and  C_2
REMARK    2  A    between atoms: C_2  and  C_3
REMARK    3  A    between atoms: C_5  and  O_6
REMARK    4  A    between atoms: O_6  and  C_7
REMARK    5  A    between atoms: C_9  and  C_10
REMARK    6  A    between atoms: C_10  and  C_13
REMARK    7  A    between atoms: C_13  and  N_14
REMARK    8  A    between atoms: N_14  and  C_15
REMARK    9  A    between atoms: C_18  and  C_19
REMARK                            x       y       z     vdW  Elec       q    Type
REMARK                         _______ _______ _______ _____ _____    ______ ____
ROOT
ATOM      1  C   UNL     1      45.195   6.649  11.592  0.00  0.00    +0.000 C 
ATOM      2  F   UNL     1      46.163   6.849  10.648  0.00  0.00    +0.000 F 
ATOM      3  F   UNL     1      44.265   7.627  11.366  0.00  0.00    +0.000 F 
ENDROOT
BRANCH   1   6
ATOM      4  C   UNL     1      44.225   3.253  10.186  0.00  0.00    +0.000 A 
ATOM      5  C   UNL     1      44.754   4.534  10.270  0.00  0.00    +0.000 A 
ATOM      6  C   UNL     1      44.584   5.258  11.459  0.00  0.00    +0.000 A 
ATOM      7  C   UNL     1      43.858   4.638  12.489  0.00  0.00    +0.000 A 
ATOM      8  C   UNL     1      43.351   3.364  12.298  0.00  0.00    +0.000 A 
ATOM      9  N   UNL     1      43.525   2.656  11.170  0.00  0.00    +0.000 NA
BRANCH   4  10
ATOM     10  O   UNL     1      44.450   2.548   9.022  0.00  0.00    +0.000 OA
BRANCH  10  15
ATOM     11  C   UNL     1      48.385   2.579   6.821  0.00  0.00    +0.000 C 
ATOM     12  C   UNL     1      46.873   2.498   6.618  0.00  0.00    +0.000 C 
ATOM     13  C   UNL     1      46.512   2.373   5.141  0.00  0.00    +0.000 C 
ATOM     14  C   UNL     1      46.074   3.601   7.361  0.00  0.00    +0.000 C 
ATOM     15  C   UNL     1      45.806   2.599   8.516  0.00  0.00    +0.000 C 
ATOM     16  C   UNL     1      46.162   1.461   7.527  0.00  0.00    +0.000 C 
ENDBRANCH  10  15
ENDBRANCH   4  10
ENDBRANCH   1   6
BRANCH   1  17
ATOM     17  C   UNL     1      45.817   6.899  12.991  0.00  0.00    +0.000 C 
BRANCH  17  18
ATOM     18  N   UNL     1      47.275   6.687  13.100  0.00  0.00    +0.000 N 
ATOM     19  H   UNL     1      47.803   7.521  12.840  0.00  0.00    +0.000 HD
BRANCH  18  20
ATOM     20  C   UNL     1      47.730   6.097  14.294  0.00  0.00    +0.000 A 
ATOM     21  C   UNL     1      48.642   6.721  15.160  0.00  0.00    +0.000 A 
ATOM     22  C   UNL     1      49.017   6.141  16.379  0.00  0.00    +0.000 A 
ATOM     23  C   UNL     1      48.459   4.923  16.776  0.00  0.00    +0.000 A 
ATOM     24  C   UNL     1      47.528   4.316  15.936  0.00  0.00    +0.000 A 
ATOM     25  F   UNL     1      46.956   3.148  16.267  0.00  0.00    +0.000 F 
ATOM     26  C   UNL     1      47.159   4.899  14.722  0.00  0.00    +0.000 A 
BRANCH  23  27
ATOM     27  C   UNL     1      48.868   4.345  18.082  0.00  0.00    +0.000 C 
ATOM     28  N   UNL     1      47.935   4.288  19.077  0.00  0.00    +0.000 N 
ATOM     29  O   UNL     1      50.004   3.925  18.267  0.00  0.00    +0.000 OA
ATOM     30  H   UNL     1      46.990   4.633  18.967  0.00  0.00    +0.000 HD
ATOM     31  H   UNL     1      48.213   3.914  19.974  0.00  0.00    +0.000 HD
ENDBRANCH  23  27
ENDBRANCH  18  20
ENDBRANCH  17  18
ENDBRANCH   1  17
TORSDOF 7
ENDMDL
MODEL 7
REMARK VINA RESULT:    -7.333      4.100      4.956
REMARK INTER + INTRA:         -10.965
REMARK INTER:                 -10.759
REMARK INTRA:                  -0.206
REMARK UNBOUND:                -0.631
REMARK  Name = 
REMARK  9 active torsions:
REMARK  status: ('A' for Active; 'I' for Inactive)
REMARK    1  A    between atoms: C_1  and  C_2
REMARK    2  A    between atoms: C_2  and  C_3
REMARK    3  A    between atoms: C_5  and  O_6
REMARK    4  A    between atoms: O_6  and  C_7
REMARK    5  A    between atoms: C_9  and  C_10
REMARK    6  A    between atoms: C_10  and  C_13
REMARK    7  A    between atoms: C_13  and  N_14
REMARK    8  A    between atoms: N_14  and  C_15
REMARK    9  A    between atoms: C_18  and  C_19
REMARK                            x       y       z     vdW  Elec       q    Type
REMARK                         _______ _______ _______ _____ _____    ______ ____
ROOT
ATOM      1  C   UNL     1      45.494   6.084  11.448  0.00  0.00    +0.000 C 
ATOM      2  F   UNL     1      46.374   5.732  10.463  0.00  0.00    +0.000 F 
ATOM      3  F   UNL     1      45.989   5.518  12.591  0.00  0.00    +0.000 F 
ENDROOT
BRANCH   1   6
ATOM      4  C   UNL     1      46.381   9.710  12.169  0.00  0.00    +0.000 A 
ATOM      5  C   UNL     1      46.475   8.326  12.102  0.00  0.00    +0.000 A 
ATOM      6  C   UNL     1      45.397   7.601  11.574  0.00  0.00    +0.000 A 
ATOM      7  C   UNL     1      44.270   8.333  11.166  0.00  0.00    +0.000 A 
ATOM      8  C   UNL     1      44.267   9.712  11.295  0.00  0.00    +0.000 A 
ATOM      9  N   UNL     1      45.301  10.416  11.782  0.00  0.00    +0.000 NA
BRANCH   4  10
ATOM     10  O   UNL     1      47.475  10.399  12.649  0.00  0.00    +0.000 OA
BRANCH  10  15
ATOM     11  C   UNL     1      51.650   8.703  12.469  0.00  0.00    +0.000 C 
ATOM     12  C   UNL     1      50.853  10.003  12.361  0.00  0.00    +0.000 C 
ATOM     13  C   UNL     1      51.763  11.195  12.080  0.00  0.00    +0.000 C 
ATOM     14  C   UNL     1      49.863  10.239  13.531  0.00  0.00    +0.000 C 
ATOM     15  C   UNL     1      48.721   9.660  12.654  0.00  0.00    +0.000 C 
ATOM     16  C   UNL     1      49.622   9.920  11.421  0.00  0.00    +0.000 C 
ENDBRANCH  10  15
ENDBRANCH   4  10
ENDBRANCH   1   6
BRANCH   1  17
ATOM     17  C   UNL     1      44.125   5.419  11.143  0.00  0.00    +0.000 C 
BRANCH  17  18
ATOM     18  N   UNL     1      43.877   5.064   9.731  0.00  0.00    +0.000 N 
ATOM     19  H   UNL     1      43.823   5.889   9.133  0.00  0.00    +0.000 HD
BRANCH  18  20
ATOM     20  C   UNL     1      44.687   4.046   9.193  0.00  0.00    +0.000 A 
ATOM     21  C   UNL     1      44.606   2.705   9.601  0.00  0.00    +0.000 A 
ATOM     22  C   UNL     1      45.372   1.701   8.992  0.00  0.00    +0.000 A 
ATOM     23  C   UNL     1      46.223   2.017   7.931  0.00  0.00    +0.000 A 
ATOM     24  C   UNL     1      46.282   3.341   7.500  0.00  0.00    +0.000 A 
ATOM     25  F   UNL     1      47.079   3.703   6.482  0.00  0.00    +0.000 F 
ATOM     26  C   UNL     1      45.517   4.337   8.111  0.00  0.00    +0.000 A 
BRANCH  23  27
ATOM     27  C   UNL     1      47.008   0.926   7.299  0.00  0.00    +0.000 C 
ATOM     28  N   UNL     1      46.722  -0.360   7.658  0.00  0.00    +0.000 N 
ATOM     29  O   UNL     1      47.884   1.163   6.474  0.00  0.00    +0.000 OA
ATOM     30  H   UNL     1      46.013  -0.596   8.342  0.00  0.00    +0.000 HD
ATOM     31  H   UNL     1      47.266  -1.105   7.246  0.00  0.00    +0.000 HD
ENDBRANCH  23  27
ENDBRANCH  18  20
ENDBRANCH  17  18
ENDBRANCH   1  17
TORSDOF 7
ENDMDL
MODEL 8
REMARK VINA RESULT:    -7.246      3.173      4.727
REMARK INTER + INTRA:         -10.842
REMARK INTER:                  -9.468
REMARK INTRA:                  -1.374
REMARK UNBOUND:                -0.631
REMARK  Name = 
REMARK  9 active torsions:
REMARK  status: ('A' for Active; 'I' for Inactive)
REMARK    1  A    between atoms: C_1  and  C_2
REMARK    2  A    between atoms: C_2  and  C_3
REMARK    3  A    between atoms: C_5  and  O_6
REMARK    4  A    between atoms: O_6  and  C_7
REMARK    5  A    between atoms: C_9  and  C_10
REMARK    6  A    between atoms: C_10  and  C_13
REMARK    7  A    between atoms: C_13  and  N_14
REMARK    8  A    between atoms: N_14  and  C_15
REMARK    9  A    between atoms: C_18  and  C_19
REMARK                            x       y       z     vdW  Elec       q    Type
REMARK                         _______ _______ _______ _____ _____    ______ ____
ROOT
ATOM      1  C   UNL     1      48.183   8.493  12.245  0.00  0.00    +0.000 C 
ATOM      2  F   UNL     1      48.642   9.534  11.487  0.00  0.00    +0.000 F 
ATOM      3  F   UNL     1      48.537   7.364  11.558  0.00  0.00    +0.000 F 
ENDROOT
BRANCH   1   6
ATOM      4  C   UNL     1      50.003   7.414  15.403  0.00  0.00    +0.000 A 
ATOM      5  C   UNL     1      49.405   7.358  14.151  0.00  0.00    +0.000 A 
ATOM      6  C   UNL     1      48.807   8.517  13.637  0.00  0.00    +0.000 A 
ATOM      7  C   UNL     1      48.833   9.665  14.445  0.00  0.00    +0.000 A 
ATOM      8  C   UNL     1      49.436   9.612  15.690  0.00  0.00    +0.000 A 
ATOM      9  N   UNL     1      50.028   8.513  16.183  0.00  0.00    +0.000 NA
BRANCH   4  10
ATOM     10  O   UNL     1      50.625   6.271  15.862  0.00  0.00    +0.000 OA
BRANCH  10  15
ATOM     11  C   UNL     1      48.650   4.016  19.231  0.00  0.00    +0.000 C 
ATOM     12  C   UNL     1      48.968   3.950  17.738  0.00  0.00    +0.000 C 
ATOM     13  C   UNL     1      48.432   2.668  17.107  0.00  0.00    +0.000 C 
ATOM     14  C   UNL     1      50.452   4.238  17.392  0.00  0.00    +0.000 C 
ATOM     15  C   UNL     1      50.072   5.709  17.077  0.00  0.00    +0.000 C 
ATOM     16  C   UNL     1      48.602   5.235  16.950  0.00  0.00    +0.000 C 
ENDBRANCH  10  15
ENDBRANCH   4  10
ENDBRANCH   1   6
BRANCH   1  17
ATOM     17  C   UNL     1      46.633   8.561  12.282  0.00  0.00    +0.000 C 
BRANCH  17  18
ATOM     18  N   UNL     1      45.967   7.670  13.253  0.00  0.00    +0.000 N 
ATOM     19  H   UNL     1      45.326   8.179  13.862  0.00  0.00    +0.000 HD
BRANCH  18  20
ATOM     20  C   UNL     1      45.412   6.487  12.733  0.00  0.00    +0.000 A 
ATOM     21  C   UNL     1      44.390   6.477  11.769  0.00  0.00    +0.000 A 
ATOM     22  C   UNL     1      43.911   5.283  11.214  0.00  0.00    +0.000 A 
ATOM     23  C   UNL     1      44.470   4.060  11.594  0.00  0.00    +0.000 A 
ATOM     24  C   UNL     1      45.506   4.066  12.525  0.00  0.00    +0.000 A 
ATOM     25  F   UNL     1      46.085   2.923  12.925  0.00  0.00    +0.000 F 
ATOM     26  C   UNL     1      45.979   5.260  13.075  0.00  0.00    +0.000 A 
BRANCH  23  27
ATOM     27  C   UNL     1      43.948   2.816  10.973  0.00  0.00    +0.000 C 
ATOM     28  N   UNL     1      44.533   2.382   9.819  0.00  0.00    +0.000 N 
ATOM     29  O   UNL     1      43.025   2.188  11.479  0.00  0.00    +0.000 OA
ATOM     30  H   UNL     1      45.290   2.878   9.365  0.00  0.00    +0.000 HD
ATOM     31  H   UNL     1      44.169   1.547   9.381  0.00  0.00    +0.000 HD
ENDBRANCH  23  27
ENDBRANCH  18  20
ENDBRANCH  17  18
ENDBRANCH   1  17
TORSDOF 7
ENDMDL
MODEL 9
REMARK VINA RESULT:    -7.214      4.362      7.708
REMARK INTER + INTRA:         -10.796
REMARK INTER:                  -8.640
REMARK INTRA:                  -2.156
REMARK UNBOUND:                -0.631
REMARK  Name = 
REMARK  9 active torsions:
REMARK  status: ('A' for Active; 'I' for Inactive)
REMARK    1  A    between atoms: C_1  and  C_2
REMARK    2  A    between atoms: C_2  and  C_3
REMARK    3  A    between atoms: C_5  and  O_6
REMARK    4  A    between atoms: O_6  and  C_7
REMARK    5  A    between atoms: C_9  and  C_10
REMARK    6  A    between atoms: C_10  and  C_13
REMARK    7  A    between atoms: C_13  and  N_14
REMARK    8  A    between atoms: N_14  and  C_15
REMARK    9  A    between atoms: C_18  and  C_19
REMARK                            x       y       z     vdW  Elec       q    Type
REMARK                         _______ _______ _______ _____ _____    ______ ____
ROOT
ATOM      1  C   UNL     1      47.729   5.470  18.926  0.00  0.00    +0.000 C 
ATOM      2  F   UNL     1      46.407   5.814  18.872  0.00  0.00    +0.000 F 
ATOM      3  F   UNL     1      47.927   4.998  20.195  0.00  0.00    +0.000 F 
ENDROOT
BRANCH   1   6
ATOM      4  C   UNL     1      47.759   3.489  15.681  0.00  0.00    +0.000 A 
ATOM      5  C   UNL     1      47.415   4.439  16.633  0.00  0.00    +0.000 A 
ATOM      6  C   UNL     1      48.057   4.409  17.879  0.00  0.00    +0.000 A 
ATOM      7  C   UNL     1      49.001   3.391  18.091  0.00  0.00    +0.000 A 
ATOM      8  C   UNL     1      49.258   2.477  17.083  0.00  0.00    +0.000 A 
ATOM      9  N   UNL     1      48.662   2.508  15.881  0.00  0.00    +0.000 NA
BRANCH   4  10
ATOM     10  O   UNL     1      47.145   3.572  14.449  0.00  0.00    +0.000 OA
BRANCH  10  15
ATOM     11  C   UNL     1      45.415   7.402  12.814  0.00  0.00    +0.000 C 
ATOM     12  C   UNL     1      45.994   6.049  12.401  0.00  0.00    +0.000 C 
ATOM     13  C   UNL     1      46.026   5.893  10.884  0.00  0.00    +0.000 C 
ATOM     14  C   UNL     1      45.361   4.838  13.137  0.00  0.00    +0.000 C 
ATOM     15  C   UNL     1      46.547   4.854  14.138  0.00  0.00    +0.000 C 
ATOM     16  C   UNL     1      47.333   5.690  13.097  0.00  0.00    +0.000 C 
ENDBRANCH  10  15
ENDBRANCH   4  10
ENDBRANCH   1   6
BRANCH   1  17
ATOM     17  C   UNL     1      48.578   6.759  18.759  0.00  0.00    +0.000 C 
BRANCH  17  18
ATOM     18  N   UNL     1      48.041   7.773  17.830  0.00  0.00    +0.000 N 
ATOM     19  H   UNL     1      47.842   8.657  18.301  0.00  0.00    +0.000 HD
BRANCH  18  20
ATOM     20  C   UNL     1      48.740   7.940  16.620  0.00  0.00    +0.000 A 
ATOM     21  C   UNL     1      49.928   7.255  16.319  0.00  0.00    +0.000 A 
ATOM     22  C   UNL     1      50.558   7.383  15.074  0.00  0.00    +0.000 A 
ATOM     23  C   UNL     1      49.992   8.187  14.082  0.00  0.00    +0.000 A 
ATOM     24  C   UNL     1      48.795   8.842  14.363  0.00  0.00    +0.000 A 
ATOM     25  F   UNL     1      48.201   9.624  13.448  0.00  0.00    +0.000 F 
ATOM     26  C   UNL     1      48.172   8.710  15.606  0.00  0.00    +0.000 A 
BRANCH  23  27
ATOM     27  C   UNL     1      50.679   8.287  12.768  0.00  0.00    +0.000 C 
ATOM     28  N   UNL     1      50.381   7.356  11.817  0.00  0.00    +0.000 N 
ATOM     29  O   UNL     1      51.486   9.181  12.537  0.00  0.00    +0.000 OA
ATOM     30  H   UNL     1      49.728   6.597  11.973  0.00  0.00    +0.000 HD
ATOM     31  H   UNL     1      50.860   7.407  10.928  0.00  0.00    +0.000 HD
ENDBRANCH  23  27
ENDBRANCH  18  20
ENDBRANCH  17  18
ENDBRANCH   1  17
TORSDOF 7
ENDMDL
