MODEL 1
REMARK VINA RESULT:    -7.366      0.000      0.000
REMARK INTER + INTRA:          -9.124
REMARK INTER:                  -8.658
REMARK INTRA:                  -0.467
REMARK UNBOUND:                -0.467
REMARK  Name = 
REMARK  4 active torsions:
REMARK  status: ('A' for Active; 'I' for Inactive)
REMARK    1  A    between atoms: C_1  and  C_2
REMARK    2  A    between atoms: C_2  and  N_3
REMARK    3  A    between atoms: C_2  and  C_13
REMARK    4  A    between atoms: C_8  and  C_9
REMARK                            x       y       z     vdW  Elec       q    Type
REMARK                         _______ _______ _______ _____ _____    ______ ____
ROOT
ATOM      1  N   UNL     1      45.455   4.364  11.598  0.00  0.00    +0.000 N 
ATOM      2  C   UNL     1      45.518   5.728  11.919  0.00  0.00    +0.000 A 
ATOM      3  C   UNL     1      46.448   6.159  12.877  0.00  0.00    +0.000 A 
ATOM      4  N   UNL     1      46.598   7.449  13.270  0.00  0.00    +0.000 NA
ATOM      5  C   UNL     1      45.765   8.325  12.664  0.00  0.00    +0.000 A 
ATOM      6  C   UNL     1      44.840   7.917  11.719  0.00  0.00    +0.000 A 
ATOM      7  N   UNL     1      44.689   6.615  11.332  0.00  0.00    +0.000 NA
ATOM      8  H   UNL     1      46.390   4.049  11.340  0.00  0.00    +0.000 HD
ENDROOT
BRANCH   6   9
ATOM      9  C   UNL     1      43.984   8.927  11.039  0.00  0.00    +0.000 C 
ATOM     10  N   UNL     1      42.692   8.547  10.802  0.00  0.00    +0.000 N 
ATOM     11  O   UNL     1      44.408  10.024  10.697  0.00  0.00    +0.000 OA
ATOM     12  H   UNL     1      42.372   7.630  11.090  0.00  0.00    +0.000 HD
ATOM     13  H   UNL     1      42.067   9.179  10.320  0.00  0.00    +0.000 HD
ENDBRANCH   6   9
BRANCH   1  15
ATOM     14  C   UNL     1      43.568   2.849  11.172  0.00  0.00    +0.000 C 
ATOM     15  C   UNL     1      44.459   3.956  10.604  0.00  0.00    +0.000 C 
BRANCH  15  16
ATOM     16  C   UNL     1      45.197   3.487   9.357  0.00  0.00    +0.000 A 
ATOM     17  C   UNL     1      45.645   4.429   8.417  0.00  0.00    +0.000 A 
ATOM     18  C   UNL     1      46.370   4.027   7.294  0.00  0.00    +0.000 A 
ATOM     19  C   UNL     1      46.662   2.677   7.101  0.00  0.00    +0.000 A 
ATOM     20  C   UNL     1      46.217   1.734   8.023  0.00  0.00    +0.000 A 
ATOM     21 CL   UNL     1      46.585   0.070   7.787  0.00  0.00    +0.000 Cl
ATOM     22  C   UNL     1      45.487   2.128   9.143  0.00  0.00    +0.000 A 
ENDBRANCH  15  16
ENDBRANCH   1  15
TORSDOF 3
ENDMDL
MODEL 2
REMARK VINA RESULT:    -7.051      2.195      3.118
REMARK INTER + INTRA:          -8.754
REMARK INTER:                 -10.032
REMARK INTRA:                   1.278
REMARK UNBOUND:                -0.467
REMARK  Name = 
REMARK  4 active torsions:
REMARK  status: ('A' for Active; 'I' for Inactive)
REMARK    1  A    between atoms: C_1  and  C_2
REMARK    2  A    between atoms: C_2  and  N_3
REMARK    3  A    between atoms: C_2  and  C_13
REMARK    4  A    between atoms: C_8  and  C_9
REMARK                            x       y       z     vdW  Elec       q    Type
REMARK                         _______ _______ _______ _____ _____    ______ ____
ROOT
ATOM      1  N   UNL     1      43.965   5.097  10.159  0.00  0.00    +0.000 N 
ATOM      2  C   UNL     1      44.740   5.585  11.222  0.00  0.00    +0.000 A 
ATOM      3  C   UNL     1      44.845   6.971  11.407  0.00  0.00    +0.000 A 
ATOM      4  N   UNL     1      45.566   7.558  12.395  0.00  0.00    +0.000 NA
ATOM      5  C   UNL     1      46.204   6.695  13.219  0.00  0.00    +0.000 A 
ATOM      6  C   UNL     1      46.114   5.324  13.050  0.00  0.00    +0.000 A 
ATOM      7  N   UNL     1      45.391   4.740  12.047  0.00  0.00    +0.000 NA
ATOM      8  H   UNL     1      43.036   5.510  10.221  0.00  0.00    +0.000 HD
ENDROOT
BRANCH   6   9
ATOM      9  C   UNL     1      46.788   4.415  14.015  0.00  0.00    +0.000 C 
ATOM     10  N   UNL     1      47.229   4.997  15.171  0.00  0.00    +0.000 N 
ATOM     11  O   UNL     1      46.955   3.223  13.787  0.00  0.00    +0.000 OA
ATOM     12  H   UNL     1      47.083   5.987  15.328  0.00  0.00    +0.000 HD
ATOM     13  H   UNL     1      47.718   4.437  15.856  0.00  0.00    +0.000 HD
ENDBRANCH   6   9
BRANCH   1  15
ATOM     14  C   UNL     1      44.105   2.946  11.340  0.00  0.00    +0.000 C 
ATOM     15  C   UNL     1      43.897   3.643   9.994  0.00  0.00    +0.000 C 
BRANCH  15  16
ATOM     16  C   UNL     1      44.961   3.230   8.986  0.00  0.00    +0.000 A 
ATOM     17  C   UNL     1      45.646   4.213   8.253  0.00  0.00    +0.000 A 
ATOM     18  C   UNL     1      46.663   3.861   7.364  0.00  0.00    +0.000 A 
ATOM     19  C   UNL     1      47.012   2.521   7.201  0.00  0.00    +0.000 A 
ATOM     20  C   UNL     1      46.335   1.538   7.918  0.00  0.00    +0.000 A 
ATOM     21 CL   UNL     1      46.773  -0.115   7.722  0.00  0.00    +0.000 Cl
ATOM     22  C   UNL     1      45.315   1.882   8.803  0.00  0.00    +0.000 A 
ENDBRANCH  15  16
ENDBRANCH   1  15
TORSDOF 3
ENDMDL
MODEL 3
REMARK VINA RESULT:    -6.559      2.338      3.280
REMARK INTER + INTRA:          -8.176
REMARK INTER:                  -7.664
REMARK INTRA:                  -0.511
REMARK UNBOUND:                -0.467
REMARK  Name = 
REMARK  4 active torsions:
REMARK  status: ('A' for Active; 'I' for Inactive)
REMARK    1  A    between atoms: C_1  and  C_2
REMARK    2  A    between atoms: C_2  and  N_3
REMARK    3  A    between atoms: C_2  and  C_13
REMARK    4  A    between atoms: C_8  and  C_9
REMARK                            x       y       z     vdW  Elec       q    Type
REMARK                         _______ _______ _______ _____ _____    ______ ____
ROOT
ATOM      1  N   UNL     1      44.947   4.701  12.346  0.00  0.00    +0.000 N 
ATOM      2  C   UNL     1      46.122   5.238  12.891  0.00  0.00    +0.000 A 
ATOM      3  C   UNL     1      46.546   4.803  14.156  0.00  0.00    +0.000 A 
ATOM      4  N   UNL     1      47.662   5.251  14.783  0.00  0.00    +0.000 NA
ATOM      5  C   UNL     1      48.364   6.179  14.094  0.00  0.00    +0.000 A 
ATOM      6  C   UNL     1      47.960   6.623  12.848  0.00  0.00    +0.000 A 
ATOM      7  N   UNL     1      46.830   6.171  12.224  0.00  0.00    +0.000 NA
ATOM      8  H   UNL     1      45.021   3.685  12.357  0.00  0.00    +0.000 HD
ENDROOT
BRANCH   6   9
ATOM      9  C   UNL     1      48.795   7.603  12.105  0.00  0.00    +0.000 C 
ATOM     10  N   UNL     1      50.119   7.283  11.981  0.00  0.00    +0.000 N 
ATOM     11  O   UNL     1      48.336   8.642  11.645  0.00  0.00    +0.000 OA
ATOM     12  H   UNL     1      50.471   6.420  12.378  0.00  0.00    +0.000 HD
ATOM     13  H   UNL     1      50.744   7.922  11.508  0.00  0.00    +0.000 HD
ENDBRANCH   6   9
BRANCH   1  15
ATOM     14  C   UNL     1      43.034   5.507  11.031  0.00  0.00    +0.000 C 
ATOM     15  C   UNL     1      44.532   5.196  11.031  0.00  0.00    +0.000 C 
BRANCH  15  16
ATOM     16  C   UNL     1      44.878   4.135   9.995  0.00  0.00    +0.000 A 
ATOM     17  C   UNL     1      44.413   2.821  10.161  0.00  0.00    +0.000 A 
ATOM     18  C   UNL     1      44.671   1.845   9.197  0.00  0.00    +0.000 A 
ATOM     19  C   UNL     1      45.395   2.173   8.051  0.00  0.00    +0.000 A 
ATOM     20  C   UNL     1      45.868   3.472   7.880  0.00  0.00    +0.000 A 
ATOM     21 CL   UNL     1      46.753   3.877   6.461  0.00  0.00    +0.000 Cl
ATOM     22  C   UNL     1      45.617   4.449   8.841  0.00  0.00    +0.000 A 
ENDBRANCH  15  16
ENDBRANCH   1  15
TORSDOF 3
ENDMDL
MODEL 4
REMARK VINA RESULT:    -6.285      3.630      6.305
REMARK INTER + INTRA:          -7.854
REMARK INTER:                  -7.384
REMARK INTRA:                  -0.470
REMARK UNBOUND:                -0.467
REMARK  Name = 
REMARK  4 active torsions:
REMARK  status: ('A' for Active; 'I' for Inactive)
REMARK    1  A    between atoms: C_1  and  C_2
REMARK    2  A    between atoms: C_2  and  N_3
REMARK    3  A    between atoms: C_2  and  C_13
REMARK    4  A    between atoms: C_8  and  C_9
REMARK                            x       y       z     vdW  Elec       q    Type
REMARK                         _______ _______ _______ _____ _____    ______ ____
ROOT
ATOM      1  N   UNL     1      45.785   6.010  13.037  0.00  0.00    +0.000 N 
ATOM      2  C   UNL     1      45.073   4.942  12.472  0.00  0.00    +0.000 A 
ATOM      3  C   UNL     1      44.171   4.226  13.274  0.00  0.00    +0.000 A 
ATOM      4  N   UNL     1      43.431   3.175  12.839  0.00  0.00    +0.000 NA
ATOM      5  C   UNL     1      43.624   2.845  11.542  0.00  0.00    +0.000 A 
ATOM      6  C   UNL     1      44.512   3.537  10.738  0.00  0.00    +0.000 A 
ATOM      7  N   UNL     1      45.260   4.591  11.184  0.00  0.00    +0.000 NA
ATOM      8  H   UNL     1      45.119   6.650  13.467  0.00  0.00    +0.000 HD
ENDROOT
BRANCH   6   9
ATOM      9  C   UNL     1      44.648   3.171   9.303  0.00  0.00    +0.000 C 
ATOM     10  N   UNL     1      44.208   4.106   8.407  0.00  0.00    +0.000 N 
ATOM     11  O   UNL     1      45.110   2.096   8.940  0.00  0.00    +0.000 OA
ATOM     12  H   UNL     1      43.825   4.984   8.737  0.00  0.00    +0.000 HD
ATOM     13  H   UNL     1      44.251   3.906   7.417  0.00  0.00    +0.000 HD
ENDBRANCH   6   9
BRANCH   1  15
ATOM     14  C   UNL     1      48.130   6.696  12.780  0.00  0.00    +0.000 C 
ATOM     15  C   UNL     1      46.728   6.719  12.169  0.00  0.00    +0.000 C 
BRANCH  15  16
ATOM     16  C   UNL     1      46.225   8.145  11.989  0.00  0.00    +0.000 A 
ATOM     17  C   UNL     1      47.104   9.224  12.180  0.00  0.00    +0.000 A 
ATOM     18  C   UNL     1      46.680  10.536  11.968  0.00  0.00    +0.000 A 
ATOM     19  C   UNL     1      45.371  10.787  11.556  0.00  0.00    +0.000 A 
ATOM     20  C   UNL     1      44.489   9.726  11.370  0.00  0.00    +0.000 A 
ATOM     21 CL   UNL     1      42.878  10.036  10.853  0.00  0.00    +0.000 Cl
ATOM     22  C   UNL     1      44.905   8.413  11.586  0.00  0.00    +0.000 A 
ENDBRANCH  15  16
ENDBRANCH   1  15
TORSDOF 3
ENDMDL
MODEL 5
REMARK VINA RESULT:    -6.253      1.594      2.033
REMARK INTER + INTRA:          -7.817
REMARK INTER:                  -7.397
REMARK INTRA:                  -0.420
REMARK UNBOUND:                -0.467
REMARK  Name = 
REMARK  4 active torsions:
REMARK  status: ('A' for Active; 'I' for Inactive)
REMARK    1  A    between atoms: C_1  and  C_2
REMARK    2  A    between atoms: C_2  and  N_3
REMARK    3  A    between atoms: C_2  and  C_13
REMARK    4  A    between atoms: C_8  and  C_9
REMARK                            x       y       z     vdW  Elec       q    Type
REMARK                         _______ _______ _______ _____ _____    ______ ____
ROOT
ATOM      1  N   UNL     1      45.545   5.362  12.033  0.00  0.00    +0.000 N 
ATOM      2  C   UNL     1      45.932   6.661  12.395  0.00  0.00    +0.000 A 
ATOM      3  C   UNL     1      47.012   6.828  13.274  0.00  0.00    +0.000 A 
ATOM      4  N   UNL     1      47.474   8.032  13.696  0.00  0.00    +0.000 NA
ATOM      5  C   UNL     1      46.803   9.099  13.205  0.00  0.00    +0.000 A 
ATOM      6  C   UNL     1      45.733   8.952  12.340  0.00  0.00    +0.000 A 
ATOM      7  N   UNL     1      45.268   7.736  11.924  0.00  0.00    +0.000 NA
ATOM      8  H   UNL     1      46.362   4.870  11.675  0.00  0.00    +0.000 HD
ENDROOT
BRANCH   6   9
ATOM      9  C   UNL     1      45.062  10.158  11.783  0.00  0.00    +0.000 C 
ATOM     10  N   UNL     1      43.764  10.347  12.168  0.00  0.00    +0.000 N 
ATOM     11  O   UNL     1      45.627  10.927  11.015  0.00  0.00    +0.000 OA
ATOM     12  H   UNL     1      43.321   9.690  12.800  0.00  0.00    +0.000 HD
ATOM     13  H   UNL     1      43.246  11.135  11.804  0.00  0.00    +0.000 HD
ENDBRANCH   6   9
BRANCH   1  15
ATOM     14  C   UNL     1      43.145   4.847  11.910  0.00  0.00    +0.000 C 
ATOM     15  C   UNL     1      44.401   5.233  11.126  0.00  0.00    +0.000 C 
BRANCH  15  16
ATOM     16  C   UNL     1      44.744   4.183  10.077  0.00  0.00    +0.000 A 
ATOM     17  C   UNL     1      44.235   2.881  10.202  0.00  0.00    +0.000 A 
ATOM     18  C   UNL     1      44.491   1.917   9.225  0.00  0.00    +0.000 A 
ATOM     19  C   UNL     1      45.257   2.247   8.107  0.00  0.00    +0.000 A 
ATOM     20  C   UNL     1      45.773   3.533   7.977  0.00  0.00    +0.000 A 
ATOM     21 CL   UNL     1      46.710   3.940   6.592  0.00  0.00    +0.000 Cl
ATOM     22  C   UNL     1      45.525   4.498   8.952  0.00  0.00    +0.000 A 
ENDBRANCH  15  16
ENDBRANCH   1  15
TORSDOF 3
ENDMDL
MODEL 6
REMARK VINA RESULT:    -6.176      5.179      7.489
REMARK INTER + INTRA:          -7.726
REMARK INTER:                  -7.198
REMARK INTRA:                  -0.528
REMARK UNBOUND:                -0.467
REMARK  Name = 
REMARK  4 active torsions:
REMARK  status: ('A' for Active; 'I' for Inactive)
REMARK    1  A    between atoms: C_1  and  C_2
REMARK    2  A    between atoms: C_2  and  N_3
REMARK    3  A    between atoms: C_2  and  C_13
REMARK    4  A    between atoms: C_8  and  C_9
REMARK                            x       y       z     vdW  Elec       q    Type
REMARK                         _______ _______ _______ _____ _____    ______ ____
ROOT
ATOM      1  N   UNL     1      48.291   6.783  15.957  0.00  0.00    +0.000 N 
ATOM      2  C   UNL     1      48.506   5.736  16.864  0.00  0.00    +0.000 A 
ATOM      3  C   UNL     1      48.114   5.902  18.201  0.00  0.00    +0.000 A 
ATOM      4  N   UNL     1      48.274   4.962  19.167  0.00  0.00    +0.000 NA
ATOM      5  C   UNL     1      48.857   3.816  18.749  0.00  0.00    +0.000 A 
ATOM      6  C   UNL     1      49.254   3.636  17.436  0.00  0.00    +0.000 A 
ATOM      7  N   UNL     1      49.097   4.589  16.469  0.00  0.00    +0.000 NA
ATOM      8  H   UNL     1      47.309   7.051  15.999  0.00  0.00    +0.000 HD
ENDROOT
BRANCH   6   9
ATOM      9  C   UNL     1      49.841   2.336  17.013  0.00  0.00    +0.000 C 
ATOM     10  N   UNL     1      50.835   1.844  17.814  0.00  0.00    +0.000 N 
ATOM     11  O   UNL     1      49.474   1.747  16.004  0.00  0.00    +0.000 OA
ATOM     12  H   UNL     1      51.122   2.358  18.638  0.00  0.00    +0.000 HD
ATOM     13  H   UNL     1      51.291   0.977  17.566  0.00  0.00    +0.000 HD
ENDBRANCH   6   9
BRANCH   1  15
ATOM     14  C   UNL     1      49.549   7.772  14.091  0.00  0.00    +0.000 C 
ATOM     15  C   UNL     1      48.731   6.573  14.575  0.00  0.00    +0.000 C 
BRANCH  15  16
ATOM     16  C   UNL     1      47.495   6.360  13.712  0.00  0.00    +0.000 A 
ATOM     17  C   UNL     1      46.871   7.461  13.105  0.00  0.00    +0.000 A 
ATOM     18  C   UNL     1      45.769   7.284  12.266  0.00  0.00    +0.000 A 
ATOM     19  C   UNL     1      45.281   6.002  12.019  0.00  0.00    +0.000 A 
ATOM     20  C   UNL     1      45.889   4.903  12.621  0.00  0.00    +0.000 A 
ATOM     21 CL   UNL     1      45.291   3.320  12.308  0.00  0.00    +0.000 Cl
ATOM     22  C   UNL     1      46.985   5.073  13.464  0.00  0.00    +0.000 A 
ENDBRANCH  15  16
ENDBRANCH   1  15
TORSDOF 3
ENDMDL
MODEL 7
REMARK VINA RESULT:    -6.031      3.518      6.238
REMARK INTER + INTRA:          -7.556
REMARK INTER:                  -7.434
REMARK INTRA:                  -0.122
REMARK UNBOUND:                -0.467
REMARK  Name = 
REMARK  4 active torsions:
REMARK  status: ('A' for Active; 'I' for Inactive)
REMARK    1  A    between atoms: C_1  and  C_2
REMARK    2  A    between atoms: C_2  and  N_3
REMARK    3  A    between atoms: C_2  and  C_13
REMARK    4  A    between atoms: C_8  and  C_9
REMARK                            x       y       z     vdW  Elec       q    Type
REMARK                         _______ _______ _______ _____ _____    ______ ____
ROOT
ATOM      1  N   UNL     1      46.015   5.861  13.534  0.00  0.00    +0.000 N 
ATOM      2  C   UNL     1      45.248   5.157  12.594  0.00  0.00    +0.000 A 
ATOM      3  C   UNL     1      44.094   4.485  13.023  0.00  0.00    +0.000 A 
ATOM      4  N   UNL     1      43.277   3.771  12.208  0.00  0.00    +0.000 NA
ATOM      5  C   UNL     1      43.658   3.742  10.911  0.00  0.00    +0.000 A 
ATOM      6  C   UNL     1      44.795   4.395  10.470  0.00  0.00    +0.000 A 
ATOM      7  N   UNL     1      45.618   5.107  11.298  0.00  0.00    +0.000 NA
ATOM      8  H   UNL     1      45.403   6.506  14.031  0.00  0.00    +0.000 HD
ENDROOT
BRANCH   6   9
ATOM      9  C   UNL     1      45.143   4.380   9.024  0.00  0.00    +0.000 C 
ATOM     10  N   UNL     1      44.423   3.512   8.249  0.00  0.00    +0.000 N 
ATOM     11  O   UNL     1      46.027   5.085   8.553  0.00  0.00    +0.000 OA
ATOM     12  H   UNL     1      43.703   2.936   8.668  0.00  0.00    +0.000 HD
ATOM     13  H   UNL     1      44.630   3.437   7.262  0.00  0.00    +0.000 HD
ENDBRANCH   6   9
BRANCH   1  15
ATOM     14  C   UNL     1      48.286   6.574  14.141  0.00  0.00    +0.000 C 
ATOM     15  C   UNL     1      47.221   6.533  13.044  0.00  0.00    +0.000 C 
BRANCH  15  16
ATOM     16  C   UNL     1      46.832   7.936  12.597  0.00  0.00    +0.000 A 
ATOM     17  C   UNL     1      45.516   8.388  12.783  0.00  0.00    +0.000 A 
ATOM     18  C   UNL     1      45.151   9.688  12.431  0.00  0.00    +0.000 A 
ATOM     19  C   UNL     1      46.101  10.555  11.891  0.00  0.00    +0.000 A 
ATOM     20  C   UNL     1      47.407  10.116  11.696  0.00  0.00    +0.000 A 
ATOM     21 CL   UNL     1      48.579  11.190  11.039  0.00  0.00    +0.000 Cl
ATOM     22  C   UNL     1      47.776   8.817  12.041  0.00  0.00    +0.000 A 
ENDBRANCH  15  16
ENDBRANCH   1  15
TORSDOF 3
ENDMDL
MODEL 8
REMARK VINA RESULT:    -5.984      3.932      6.408
REMARK INTER + INTRA:          -7.500
REMARK INTER:                  -7.116
REMARK INTRA:                  -0.384
REMARK UNBOUND:                -0.467
REMARK  Name = 
REMARK  4 active torsions:
REMARK  status: ('A' for Active; 'I' for Inactive)
REMARK    1  A    between atoms: C_1  and  C_2
REMARK    2  A    between atoms: C_2  and  N_3
REMARK    3  A    between atoms: C_2  and  C_13
REMARK    4  A    between atoms: C_8  and  C_9
REMARK                            x       y       z     vdW  Elec       q    Type
REMARK                         _______ _______ _______ _____ _____    ______ ____
ROOT
ATOM      1  N   UNL     1      46.451   6.582  10.896  0.00  0.00    +0.000 N 
ATOM      2  C   UNL     1      45.672   5.474  10.531  0.00  0.00    +0.000 A 
ATOM      3  C   UNL     1      45.615   5.097   9.181  0.00  0.00    +0.000 A 
ATOM      4  N   UNL     1      44.895   4.048   8.710  0.00  0.00    +0.000 NA
ATOM      5  C   UNL     1      44.208   3.365   9.653  0.00  0.00    +0.000 A 
ATOM      6  C   UNL     1      44.249   3.724  10.989  0.00  0.00    +0.000 A 
ATOM      7  N   UNL     1      44.971   4.786  11.456  0.00  0.00    +0.000 NA
ATOM      8  H   UNL     1      47.393   6.447  10.533  0.00  0.00    +0.000 HD
ENDROOT
BRANCH   6   9
ATOM      9  C   UNL     1      43.521   2.907  11.997  0.00  0.00    +0.000 C 
ATOM     10  N   UNL     1      43.576   3.364  13.284  0.00  0.00    +0.000 N 
ATOM     11  O   UNL     1      42.922   1.880  11.701  0.00  0.00    +0.000 OA
ATOM     12  H   UNL     1      44.086   4.213  13.500  0.00  0.00    +0.000 HD
ATOM     13  H   UNL     1      43.122   2.840  14.019  0.00  0.00    +0.000 HD
ENDBRANCH   6   9
BRANCH   1  15
ATOM     14  C   UNL     1      45.499   8.104  12.573  0.00  0.00    +0.000 C 
ATOM     15  C   UNL     1      46.468   6.949  12.314  0.00  0.00    +0.000 C 
BRANCH  15  16
ATOM     16  C   UNL     1      47.895   7.329  12.687  0.00  0.00    +0.000 A 
ATOM     17  C   UNL     1      48.675   8.077  11.791  0.00  0.00    +0.000 A 
ATOM     18  C   UNL     1      49.965   8.483  12.134  0.00  0.00    +0.000 A 
ATOM     19  C   UNL     1      50.491   8.149  13.382  0.00  0.00    +0.000 A 
ATOM     20  C   UNL     1      49.729   7.401  14.276  0.00  0.00    +0.000 A 
ATOM     21 CL   UNL     1      50.376   6.998  15.818  0.00  0.00    +0.000 Cl
ATOM     22  C   UNL     1      48.442   6.988  13.937  0.00  0.00    +0.000 A 
ENDBRANCH  15  16
ENDBRANCH   1  15
TORSDOF 3
ENDMDL
MODEL 9
REMARK VINA RESULT:    -5.753      4.636      6.516
REMARK INTER + INTRA:          -7.228
REMARK INTER:                  -6.836
REMARK INTRA:                  -0.393
REMARK UNBOUND:                -0.467
REMARK  Name = 
REMARK  4 active torsions:
REMARK  status: ('A' for Active; 'I' for Inactive)
REMARK    1  A    between atoms: C_1  and  C_2
REMARK    2  A    between atoms: C_2  and  N_3
REMARK    3  A    between atoms: C_2  and  C_13
REMARK    4  A    between atoms: C_8  and  C_9
REMARK                            x       y       z     vdW  Elec       q    Type
REMARK                         _______ _______ _______ _____ _____    ______ ____
ROOT
ATOM      1  N   UNL     1      48.748   7.436  14.305  0.00  0.00    +0.000 N 
ATOM      2  C   UNL     1      48.602   6.682  15.479  0.00  0.00    +0.000 A 
ATOM      3  C   UNL     1      48.709   7.328  16.720  0.00  0.00    +0.000 A 
ATOM      4  N   UNL     1      48.589   6.705  17.919  0.00  0.00    +0.000 NA
ATOM      5  C   UNL     1      48.354   5.375  17.844  0.00  0.00    +0.000 A 
ATOM      6  C   UNL     1      48.249   4.720  16.629  0.00  0.00    +0.000 A 
ATOM      7  N   UNL     1      48.378   5.353  15.424  0.00  0.00    +0.000 NA
ATOM      8  H   UNL     1      48.102   8.222  14.344  0.00  0.00    +0.000 HD
ENDROOT
BRANCH   6   9
ATOM      9  C   UNL     1      47.935   3.267  16.598  0.00  0.00    +0.000 C 
ATOM     10  N   UNL     1      46.963   2.850  17.464  0.00  0.00    +0.000 N 
ATOM     11  O   UNL     1      48.520   2.485  15.857  0.00  0.00    +0.000 OA
ATOM     12  H   UNL     1      46.502   3.519  18.069  0.00  0.00    +0.000 HD
ATOM     13  H   UNL     1      46.722   1.869  17.508  0.00  0.00    +0.000 HD
ENDBRANCH   6   9
BRANCH   1  15
ATOM     14  C   UNL     1      49.530   7.382  11.976  0.00  0.00    +0.000 C 
ATOM     15  C   UNL     1      48.645   6.717  13.032  0.00  0.00    +0.000 C 
BRANCH  15  16
ATOM     16  C   UNL     1      47.183   6.714  12.607  0.00  0.00    +0.000 A 
ATOM     17  C   UNL     1      46.566   7.915  12.222  0.00  0.00    +0.000 A 
ATOM     18  C   UNL     1      45.243   7.927  11.777  0.00  0.00    +0.000 A 
ATOM     19  C   UNL     1      44.521   6.736  11.708  0.00  0.00    +0.000 A 
ATOM     20  C   UNL     1      45.120   5.540  12.094  0.00  0.00    +0.000 A 
ATOM     21 CL   UNL     1      44.231   4.070  11.999  0.00  0.00    +0.000 Cl
ATOM     22  C   UNL     1      46.439   5.522  12.545  0.00  0.00    +0.000 A 
ENDBRANCH  15  16
ENDBRANCH   1  15
TORSDOF 3
ENDMDL
