MODEL 1
REMARK VINA RESULT:    -8.742      0.000      0.000
REMARK INTER + INTRA:         -12.319
REMARK INTER:                 -11.809
REMARK INTRA:                  -0.510
REMARK UNBOUND:                -0.510
REMARK  Name = 
REMARK  7 active torsions:
REMARK  status: ('A' for Active; 'I' for Inactive)
REMARK    1  A    between atoms: C_1  and  C_2
REMARK    2  A    between atoms: C_2  and  N_3
REMARK    3  A    between atoms: C_2  and  C_16
REMARK    4  A    between atoms: C_4  and  C_6
REMARK    5  A    between atoms: C_19  and  O_20
REMARK    6  A    between atoms: O_20  and  C_21
REMARK    7  A    between atoms: C_21  and  C_22
REMARK                            x       y       z     vdW  Elec       q    Type
REMARK                         _______ _______ _______ _____ _____    ______ ____
ROOT
ATOM      1  C   UNL     1      47.771   8.806  12.219  0.00  0.00    +0.000 C 
ATOM      2  C   UNL     1      46.693   8.093  13.044  0.00  0.00    +0.000 C 
ENDROOT
BRANCH   2   3
ATOM      3  C   UNL     1      46.032   6.940  12.313  0.00  0.00    +0.000 A 
ATOM      4  C   UNL     1      46.355   6.682  10.970  0.00  0.00    +0.000 A 
ATOM      5  C   UNL     1      45.784   5.599  10.294  0.00  0.00    +0.000 A 
ATOM      6  C   UNL     1      44.886   4.761  10.952  0.00  0.00    +0.000 A 
ATOM      7  C   UNL     1      44.483   5.070  12.249  0.00  0.00    +0.000 A 
ATOM      8  C   UNL     1      45.054   6.147  12.924  0.00  0.00    +0.000 A 
BRANCH   6   9
ATOM      9  O   UNL     1      44.461   3.662  10.254  0.00  0.00    +0.000 OA
BRANCH   9  10
ATOM     10  C   UNL     1      44.419   3.855   8.833  0.00  0.00    +0.000 C 
BRANCH  10  11
ATOM     11  C   UNL     1      45.457   3.005   8.144  0.00  0.00    +0.000 A 
ATOM     12  C   UNL     1      46.330   3.581   7.221  0.00  0.00    +0.000 A 
ATOM     13  C   UNL     1      47.329   2.794   6.664  0.00  0.00    +0.000 A 
ATOM     14  C   UNL     1      47.434   1.460   7.040  0.00  0.00    +0.000 A 
ATOM     15  C   UNL     1      46.533   0.967   7.967  0.00  0.00    +0.000 A 
ATOM     16  N   UNL     1      45.555   1.708   8.531  0.00  0.00    +0.000 NA
ENDBRANCH  10  11
ENDBRANCH   9  10
ENDBRANCH   6   9
ENDBRANCH   2   3
BRANCH   2  17
ATOM     17  N   UNL     1      47.251   7.596  14.283  0.00  0.00    +0.000 N 
ATOM     18  C   UNL     1      48.284   6.699  14.315  0.00  0.00    +0.000 C 
ATOM     19  O   UNL     1      48.861   6.323  13.300  0.00  0.00    +0.000 OA
ATOM     20  H   UNL     1      46.699   7.754  15.120  0.00  0.00    +0.000 HD
BRANCH  18  21
ATOM     21  C   UNL     1      48.706   6.255  15.647  0.00  0.00    +0.000 A 
ATOM     22  C   UNL     1      49.650   6.990  16.348  0.00  0.00    +0.000 A 
ATOM     23  S   UNL     1      50.014   6.343  17.882  0.00  0.00    +0.000 S 
ATOM     24  C   UNL     1      48.957   5.030  17.640  0.00  0.00    +0.000 A 
ATOM     25  N   UNL     1      48.825   4.058  18.583  0.00  0.00    +0.000 NA
ATOM     26  C   UNL     1      48.021   3.103  18.252  0.00  0.00    +0.000 A 
ATOM     27  N   UNL     1      47.326   3.040  17.073  0.00  0.00    +0.000 N 
ATOM     28  C   UNL     1      47.389   4.024  16.114  0.00  0.00    +0.000 A 
ATOM     29  O   UNL     1      46.688   3.978  15.106  0.00  0.00    +0.000 OA
ATOM     30  C   UNL     1      48.309   5.102  16.420  0.00  0.00    +0.000 A 
ATOM     31  H   UNL     1      46.695   2.273  16.887  0.00  0.00    +0.000 HD
ENDBRANCH  18  21
ENDBRANCH   2  17
TORSDOF 6
ENDMDL
MODEL 2
REMARK VINA RESULT:    -8.258      2.019      2.414
REMARK INTER + INTRA:         -11.665
REMARK INTER:                 -11.311
REMARK INTRA:                  -0.354
REMARK UNBOUND:                -0.510
REMARK  Name = 
REMARK  7 active torsions:
REMARK  status: ('A' for Active; 'I' for Inactive)
REMARK    1  A    between atoms: C_1  and  C_2
REMARK    2  A    between atoms: C_2  and  N_3
REMARK    3  A    between atoms: C_2  and  C_16
REMARK    4  A    between atoms: C_4  and  C_6
REMARK    5  A    between atoms: C_19  and  O_20
REMARK    6  A    between atoms: O_20  and  C_21
REMARK    7  A    between atoms: C_21  and  C_22
REMARK                            x       y       z     vdW  Elec       q    Type
REMARK                         _______ _______ _______ _____ _____    ______ ____
ROOT
ATOM      1  C   UNL     1      49.007   6.719  12.847  0.00  0.00    +0.000 C 
ATOM      2  C   UNL     1      47.597   6.617  13.441  0.00  0.00    +0.000 C 
ENDROOT
BRANCH   2   3
ATOM      3  C   UNL     1      46.628   5.838  12.574  0.00  0.00    +0.000 A 
ATOM      4  C   UNL     1      46.173   6.385  11.362  0.00  0.00    +0.000 A 
ATOM      5  C   UNL     1      45.310   5.661  10.532  0.00  0.00    +0.000 A 
ATOM      6  C   UNL     1      44.894   4.384  10.901  0.00  0.00    +0.000 A 
ATOM      7  C   UNL     1      45.258   3.877  12.147  0.00  0.00    +0.000 A 
ATOM      8  C   UNL     1      46.120   4.595  12.973  0.00  0.00    +0.000 A 
BRANCH   6   9
ATOM      9  O   UNL     1      44.142   3.702   9.981  0.00  0.00    +0.000 OA
BRANCH   9  10
ATOM     10  C   UNL     1      44.594   2.363   9.737  0.00  0.00    +0.000 C 
BRANCH  10  11
ATOM     11  C   UNL     1      45.484   2.309   8.521  0.00  0.00    +0.000 A 
ATOM     12  C   UNL     1      45.572   3.412   7.672  0.00  0.00    +0.000 A 
ATOM     13  C   UNL     1      46.462   3.367   6.606  0.00  0.00    +0.000 A 
ATOM     14  C   UNL     1      47.237   2.230   6.415  0.00  0.00    +0.000 A 
ATOM     15  C   UNL     1      47.095   1.181   7.307  0.00  0.00    +0.000 A 
ATOM     16  N   UNL     1      46.245   1.197   8.355  0.00  0.00    +0.000 NA
ENDBRANCH  10  11
ENDBRANCH   9  10
ENDBRANCH   6   9
ENDBRANCH   2   3
BRANCH   2  17
ATOM     17  N   UNL     1      47.643   6.003  14.750  0.00  0.00    +0.000 N 
ATOM     18  C   UNL     1      48.503   6.424  15.729  0.00  0.00    +0.000 C 
ATOM     19  O   UNL     1      49.229   7.402  15.590  0.00  0.00    +0.000 OA
ATOM     20  H   UNL     1      47.185   5.102  14.841  0.00  0.00    +0.000 HD
BRANCH  18  21
ATOM     21  C   UNL     1      48.464   5.669  16.984  0.00  0.00    +0.000 A 
ATOM     22  C   UNL     1      48.695   4.301  16.969  0.00  0.00    +0.000 A 
ATOM     23  S   UNL     1      48.628   3.583  18.513  0.00  0.00    +0.000 S 
ATOM     24  C   UNL     1      48.240   5.068  19.248  0.00  0.00    +0.000 A 
ATOM     25  N   UNL     1      48.007   5.145  20.587  0.00  0.00    +0.000 NA
ATOM     26  C   UNL     1      47.685   6.324  21.004  0.00  0.00    +0.000 A 
ATOM     27  N   UNL     1      47.589   7.436  20.207  0.00  0.00    +0.000 N 
ATOM     28  C   UNL     1      47.865   7.416  18.860  0.00  0.00    +0.000 A 
ATOM     29  O   UNL     1      47.853   8.447  18.191  0.00  0.00    +0.000 OA
ATOM     30  C   UNL     1      48.195   6.106  18.334  0.00  0.00    +0.000 A 
ATOM     31  H   UNL     1      47.353   8.334  20.603  0.00  0.00    +0.000 HD
ENDBRANCH  18  21
ENDBRANCH   2  17
TORSDOF 6
ENDMDL
MODEL 3
REMARK VINA RESULT:    -8.132      1.843      2.442
REMARK INTER + INTRA:         -11.494
REMARK INTER:                 -10.833
REMARK INTRA:                  -0.661
REMARK UNBOUND:                -0.510
REMARK  Name = 
REMARK  7 active torsions:
REMARK  status: ('A' for Active; 'I' for Inactive)
REMARK    1  A    between atoms: C_1  and  C_2
REMARK    2  A    between atoms: C_2  and  N_3
REMARK    3  A    between atoms: C_2  and  C_16
REMARK    4  A    between atoms: C_4  and  C_6
REMARK    5  A    between atoms: C_19  and  O_20
REMARK    6  A    between atoms: O_20  and  C_21
REMARK    7  A    between atoms: C_21  and  C_22
REMARK                            x       y       z     vdW  Elec       q    Type
REMARK                         _______ _______ _______ _____ _____    ______ ____
ROOT
ATOM      1  C   UNL     1      48.364   7.651  12.739  0.00  0.00    +0.000 C 
ATOM      2  C   UNL     1      47.230   6.911  13.458  0.00  0.00    +0.000 C 
ENDROOT
BRANCH   2   3
ATOM      3  C   UNL     1      46.358   6.087  12.531  0.00  0.00    +0.000 A 
ATOM      4  C   UNL     1      46.311   6.387  11.159  0.00  0.00    +0.000 A 
ATOM      5  C   UNL     1      45.543   5.612  10.285  0.00  0.00    +0.000 A 
ATOM      6  C   UNL     1      44.815   4.526  10.769  0.00  0.00    +0.000 A 
ATOM      7  C   UNL     1      44.776   4.285  12.141  0.00  0.00    +0.000 A 
ATOM      8  C   UNL     1      45.543   5.055  13.012  0.00  0.00    +0.000 A 
BRANCH   6   9
ATOM      9  O   UNL     1      44.182   3.754   9.832  0.00  0.00    +0.000 OA
BRANCH   9  10
ATOM     10  C   UNL     1      44.721   2.430   9.708  0.00  0.00    +0.000 C 
BRANCH  10  11
ATOM     11  C   UNL     1      45.565   2.308   8.464  0.00  0.00    +0.000 A 
ATOM     12  C   UNL     1      45.649   3.375   7.571  0.00  0.00    +0.000 A 
ATOM     13  C   UNL     1      46.499   3.267   6.477  0.00  0.00    +0.000 A 
ATOM     14  C   UNL     1      47.240   2.105   6.304  0.00  0.00    +0.000 A 
ATOM     15  C   UNL     1      47.105   1.094   7.240  0.00  0.00    +0.000 A 
ATOM     16  N   UNL     1      46.293   1.172   8.316  0.00  0.00    +0.000 NA
ENDBRANCH  10  11
ENDBRANCH   9  10
ENDBRANCH   6   9
ENDBRANCH   2   3
BRANCH   2  17
ATOM     17  N   UNL     1      47.764   6.043  14.485  0.00  0.00    +0.000 N 
ATOM     18  C   UNL     1      48.387   6.526  15.603  0.00  0.00    +0.000 C 
ATOM     19  O   UNL     1      48.460   7.725  15.851  0.00  0.00    +0.000 OA
ATOM     20  H   UNL     1      47.868   5.065  14.237  0.00  0.00    +0.000 HD
BRANCH  18  21
ATOM     21  C   UNL     1      48.918   5.519  16.527  0.00  0.00    +0.000 A 
ATOM     22  C   UNL     1      48.057   4.595  17.101  0.00  0.00    +0.000 A 
ATOM     23  S   UNL     1      48.839   3.488  18.135  0.00  0.00    +0.000 S 
ATOM     24  C   UNL     1      50.347   4.239  17.889  0.00  0.00    +0.000 A 
ATOM     25  N   UNL     1      51.461   3.795  18.532  0.00  0.00    +0.000 NA
ATOM     26  C   UNL     1      52.527   4.480  18.283  0.00  0.00    +0.000 A 
ATOM     27  N   UNL     1      52.583   5.559  17.439  0.00  0.00    +0.000 N 
ATOM     28  C   UNL     1      51.495   6.011  16.730  0.00  0.00    +0.000 A 
ATOM     29  O   UNL     1      51.600   6.927  15.917  0.00  0.00    +0.000 OA
ATOM     30  C   UNL     1      50.263   5.298  17.003  0.00  0.00    +0.000 A 
ATOM     31  H   UNL     1      53.457   6.037  17.273  0.00  0.00    +0.000 HD
ENDBRANCH  18  21
ENDBRANCH   2  17
TORSDOF 6
ENDMDL
MODEL 4
REMARK VINA RESULT:    -7.976      2.718      3.686
REMARK INTER + INTRA:         -11.284
REMARK INTER:                 -10.107
REMARK INTRA:                  -1.178
REMARK UNBOUND:                -0.510
REMARK  Name = 
REMARK  7 active torsions:
REMARK  status: ('A' for Active; 'I' for Inactive)
REMARK    1  A    between atoms: C_1  and  C_2
REMARK    2  A    between atoms: C_2  and  N_3
REMARK    3  A    between atoms: C_2  and  C_16
REMARK    4  A    between atoms: C_4  and  C_6
REMARK    5  A    between atoms: C_19  and  O_20
REMARK    6  A    between atoms: O_20  and  C_21
REMARK    7  A    between atoms: C_21  and  C_22
REMARK                            x       y       z     vdW  Elec       q    Type
REMARK                         _______ _______ _______ _____ _____    ______ ____
ROOT
ATOM      1  C   UNL     1      47.366   4.020  16.382  0.00  0.00    +0.000 C 
ATOM      2  C   UNL     1      47.791   4.839  15.157  0.00  0.00    +0.000 C 
ENDROOT
BRANCH   2   3
ATOM      3  C   UNL     1      46.883   4.652  13.957  0.00  0.00    +0.000 A 
ATOM      4  C   UNL     1      46.442   5.770  13.228  0.00  0.00    +0.000 A 
ATOM      5  C   UNL     1      45.637   5.610  12.096  0.00  0.00    +0.000 A 
ATOM      6  C   UNL     1      45.264   4.334  11.677  0.00  0.00    +0.000 A 
ATOM      7  C   UNL     1      45.612   3.230  12.452  0.00  0.00    +0.000 A 
ATOM      8  C   UNL     1      46.417   3.387  13.578  0.00  0.00    +0.000 A 
BRANCH   6   9
ATOM      9  O   UNL     1      44.571   4.262  10.499  0.00  0.00    +0.000 OA
BRANCH   9  10
ATOM     10  C   UNL     1      44.441   2.931   9.980  0.00  0.00    +0.000 C 
BRANCH  10  11
ATOM     11  C   UNL     1      45.338   2.730   8.785  0.00  0.00    +0.000 A 
ATOM     12  C   UNL     1      45.642   3.806   7.952  0.00  0.00    +0.000 A 
ATOM     13  C   UNL     1      46.536   3.612   6.907  0.00  0.00    +0.000 A 
ATOM     14  C   UNL     1      47.103   2.357   6.721  0.00  0.00    +0.000 A 
ATOM     15  C   UNL     1      46.755   1.343   7.596  0.00  0.00    +0.000 A 
ATOM     16  N   UNL     1      45.894   1.502   8.624  0.00  0.00    +0.000 NA
ENDBRANCH  10  11
ENDBRANCH   9  10
ENDBRANCH   6   9
ENDBRANCH   2   3
BRANCH   2  17
ATOM     17  N   UNL     1      47.845   6.247  15.483  0.00  0.00    +0.000 N 
ATOM     18  C   UNL     1      49.005   6.872  15.849  0.00  0.00    +0.000 C 
ATOM     19  O   UNL     1      50.091   6.301  15.843  0.00  0.00    +0.000 OA
ATOM     20  H   UNL     1      46.955   6.702  15.657  0.00  0.00    +0.000 HD
BRANCH  18  21
ATOM     21  C   UNL     1      48.887   8.291  16.196  0.00  0.00    +0.000 A 
ATOM     22  C   UNL     1      49.410   9.251  15.342  0.00  0.00    +0.000 A 
ATOM     23  S   UNL     1      49.172  10.848  15.888  0.00  0.00    +0.000 S 
ATOM     24  C   UNL     1      48.407  10.308  17.309  0.00  0.00    +0.000 A 
ATOM     25  N   UNL     1      47.980  11.192  18.252  0.00  0.00    +0.000 NA
ATOM     26  C   UNL     1      47.453  10.643  19.295  0.00  0.00    +0.000 A 
ATOM     27  N   UNL     1      47.299   9.293  19.474  0.00  0.00    +0.000 N 
ATOM     28  C   UNL     1      47.668   8.366  18.528  0.00  0.00    +0.000 A 
ATOM     29  O   UNL     1      47.438   7.169  18.684  0.00  0.00    +0.000 OA
ATOM     30  C   UNL     1      48.302   8.929  17.352  0.00  0.00    +0.000 A 
ATOM     31  H   UNL     1      46.858   8.931  20.308  0.00  0.00    +0.000 HD
ENDBRANCH  18  21
ENDBRANCH   2  17
TORSDOF 6
ENDMDL
MODEL 5
REMARK VINA RESULT:    -7.894      1.760      1.977
REMARK INTER + INTRA:         -11.173
REMARK INTER:                 -10.152
REMARK INTRA:                  -1.021
REMARK UNBOUND:                -0.510
REMARK  Name = 
REMARK  7 active torsions:
REMARK  status: ('A' for Active; 'I' for Inactive)
REMARK    1  A    between atoms: C_1  and  C_2
REMARK    2  A    between atoms: C_2  and  N_3
REMARK    3  A    between atoms: C_2  and  C_16
REMARK    4  A    between atoms: C_4  and  C_6
REMARK    5  A    between atoms: C_19  and  O_20
REMARK    6  A    between atoms: O_20  and  C_21
REMARK    7  A    between atoms: C_21  and  C_22
REMARK                            x       y       z     vdW  Elec       q    Type
REMARK                         _______ _______ _______ _____ _____    ______ ____
ROOT
ATOM      1  C   UNL     1      49.393   7.271  12.897  0.00  0.00    +0.000 C 
ATOM      2  C   UNL     1      47.969   7.471  13.432  0.00  0.00    +0.000 C 
ENDROOT
BRANCH   2   3
ATOM      3  C   UNL     1      46.960   6.502  12.848  0.00  0.00    +0.000 A 
ATOM      4  C   UNL     1      46.120   6.909  11.798  0.00  0.00    +0.000 A 
ATOM      5  C   UNL     1      45.212   6.015  11.223  0.00  0.00    +0.000 A 
ATOM      6  C   UNL     1      45.133   4.704  11.687  0.00  0.00    +0.000 A 
ATOM      7  C   UNL     1      45.889   4.322  12.794  0.00  0.00    +0.000 A 
ATOM      8  C   UNL     1      46.796   5.211  13.366  0.00  0.00    +0.000 A 
BRANCH   6   9
ATOM      9  O   UNL     1      44.300   3.865  10.996  0.00  0.00    +0.000 OA
BRANCH   9  10
ATOM     10  C   UNL     1      44.161   4.197   9.607  0.00  0.00    +0.000 C 
BRANCH  10  11
ATOM     11  C   UNL     1      45.099   3.374   8.761  0.00  0.00    +0.000 A 
ATOM     12  C   UNL     1      45.952   4.001   7.854  0.00  0.00    +0.000 A 
ATOM     13  C   UNL     1      46.864   3.227   7.147  0.00  0.00    +0.000 A 
ATOM     14  C   UNL     1      46.902   1.855   7.363  0.00  0.00    +0.000 A 
ATOM     15  C   UNL     1      46.026   1.310   8.286  0.00  0.00    +0.000 A 
ATOM     16  N   UNL     1      45.134   2.037   8.992  0.00  0.00    +0.000 NA
ENDBRANCH  10  11
ENDBRANCH   9  10
ENDBRANCH   6   9
ENDBRANCH   2   3
BRANCH   2  17
ATOM     17  N   UNL     1      47.949   7.348  14.873  0.00  0.00    +0.000 N 
ATOM     18  C   UNL     1      48.517   8.281  15.697  0.00  0.00    +0.000 C 
ATOM     19  O   UNL     1      49.005   9.324  15.274  0.00  0.00    +0.000 OA
ATOM     20  H   UNL     1      47.707   6.435  15.244  0.00  0.00    +0.000 HD
BRANCH  18  21
ATOM     21  C   UNL     1      48.458   7.990  17.133  0.00  0.00    +0.000 A 
ATOM     22  C   UNL     1      48.162   9.009  18.027  0.00  0.00    +0.000 A 
ATOM     23  S   UNL     1      48.117   8.496  19.651  0.00  0.00    +0.000 S 
ATOM     24  C   UNL     1      48.541   6.905  19.219  0.00  0.00    +0.000 A 
ATOM     25  N   UNL     1      48.710   5.945  20.168  0.00  0.00    +0.000 NA
ATOM     26  C   UNL     1      49.069   4.795  19.703  0.00  0.00    +0.000 A 
ATOM     27  N   UNL     1      49.257   4.513  18.375  0.00  0.00    +0.000 N 
ATOM     28  C   UNL     1      49.047   5.437  17.377  0.00  0.00    +0.000 A 
ATOM     29  O   UNL     1      49.143   5.128  16.192  0.00  0.00    +0.000 OA
ATOM     30  C   UNL     1      48.681   6.757  17.851  0.00  0.00    +0.000 A 
ATOM     31  H   UNL     1      49.517   3.584  18.077  0.00  0.00    +0.000 HD
ENDBRANCH  18  21
ENDBRANCH   2  17
TORSDOF 6
ENDMDL
MODEL 6
REMARK VINA RESULT:    -7.829      2.318      2.786
REMARK INTER + INTRA:         -11.085
REMARK INTER:                 -10.002
REMARK INTRA:                  -1.084
REMARK UNBOUND:                -0.510
REMARK  Name = 
REMARK  7 active torsions:
REMARK  status: ('A' for Active; 'I' for Inactive)
REMARK    1  A    between atoms: C_1  and  C_2
REMARK    2  A    between atoms: C_2  and  N_3
REMARK    3  A    between atoms: C_2  and  C_16
REMARK    4  A    between atoms: C_4  and  C_6
REMARK    5  A    between atoms: C_19  and  O_20
REMARK    6  A    between atoms: O_20  and  C_21
REMARK    7  A    between atoms: C_21  and  C_22
REMARK                            x       y       z     vdW  Elec       q    Type
REMARK                         _______ _______ _______ _____ _____    ______ ____
ROOT
ATOM      1  C   UNL     1      48.494   8.067  14.362  0.00  0.00    +0.000 C 
ATOM      2  C   UNL     1      48.009   6.775  15.032  0.00  0.00    +0.000 C 
ENDROOT
BRANCH   2   3
ATOM      3  C   UNL     1      47.251   5.853  14.097  0.00  0.00    +0.000 A 
ATOM      4  C   UNL     1      47.186   4.476  14.367  0.00  0.00    +0.000 A 
ATOM      5  C   UNL     1      46.458   3.619  13.535  0.00  0.00    +0.000 A 
ATOM      6  C   UNL     1      45.786   4.128  12.426  0.00  0.00    +0.000 A 
ATOM      7  C   UNL     1      45.929   5.473  12.094  0.00  0.00    +0.000 A 
ATOM      8  C   UNL     1      46.652   6.328  12.924  0.00  0.00    +0.000 A 
BRANCH   6   9
ATOM      9  O   UNL     1      45.007   3.241  11.731  0.00  0.00    +0.000 OA
BRANCH   9  10
ATOM     10  C   UNL     1      44.424   3.788  10.540  0.00  0.00    +0.000 C 
BRANCH  10  11
ATOM     11  C   UNL     1      45.188   3.347   9.317  0.00  0.00    +0.000 A 
ATOM     12  C   UNL     1      45.726   4.297   8.450  0.00  0.00    +0.000 A 
ATOM     13  C   UNL     1      46.496   3.866   7.377  0.00  0.00    +0.000 A 
ATOM     14  C   UNL     1      46.710   2.504   7.198  0.00  0.00    +0.000 A 
ATOM     15  C   UNL     1      46.147   1.626   8.107  0.00  0.00    +0.000 A 
ATOM     16  N   UNL     1      45.400   2.015   9.162  0.00  0.00    +0.000 NA
ENDBRANCH  10  11
ENDBRANCH   9  10
ENDBRANCH   6   9
ENDBRANCH   2   3
BRANCH   2  17
ATOM     17  N   UNL     1      49.126   6.048  15.596  0.00  0.00    +0.000 N 
ATOM     18  C   UNL     1      49.293   5.892  16.945  0.00  0.00    +0.000 C 
ATOM     19  O   UNL     1      48.466   6.282  17.761  0.00  0.00    +0.000 OA
ATOM     20  H   UNL     1      49.901   5.860  14.969  0.00  0.00    +0.000 HD
BRANCH  18  21
ATOM     21  C   UNL     1      50.501   5.172  17.361  0.00  0.00    +0.000 A 
ATOM     22  C   UNL     1      51.604   5.884  17.807  0.00  0.00    +0.000 A 
ATOM     23  S   UNL     1      52.913   4.895  18.265  0.00  0.00    +0.000 S 
ATOM     24  C   UNL     1      52.067   3.481  17.835  0.00  0.00    +0.000 A 
ATOM     25  N   UNL     1      52.650   2.257  17.948  0.00  0.00    +0.000 NA
ATOM     26  C   UNL     1      51.910   1.277  17.550  0.00  0.00    +0.000 A 
ATOM     27  N   UNL     1      50.634   1.408  17.065  0.00  0.00    +0.000 N 
ATOM     28  C   UNL     1      49.986   2.618  16.982  0.00  0.00    +0.000 A 
ATOM     29  O   UNL     1      48.813   2.691  16.623  0.00  0.00    +0.000 OA
ATOM     30  C   UNL     1      50.790   3.757  17.381  0.00  0.00    +0.000 A 
ATOM     31  H   UNL     1      50.101   0.595  16.791  0.00  0.00    +0.000 HD
ENDBRANCH  18  21
ENDBRANCH   2  17
TORSDOF 6
ENDMDL
MODEL 7
REMARK VINA RESULT:    -7.335      1.924      2.486
REMARK INTER + INTRA:         -10.419
REMARK INTER:                  -9.740
REMARK INTRA:                  -0.678
REMARK UNBOUND:                -0.510
REMARK  Name = 
REMARK  7 active torsions:
REMARK  status: ('A' for Active; 'I' for Inactive)
REMARK    1  A    between atoms: C_1  and  C_2
REMARK    2  A    between atoms: C_2  and  N_3
REMARK    3  A    between atoms: C_2  and  C_16
REMARK    4  A    between atoms: C_4  and  C_6
REMARK    5  A    between atoms: C_19  and  O_20
REMARK    6  A    between atoms: O_20  and  C_21
REMARK    7  A    between atoms: C_21  and  C_22
REMARK                            x       y       z     vdW  Elec       q    Type
REMARK                         _______ _______ _______ _____ _____    ______ ____
ROOT
ATOM      1  C   UNL     1      46.106   9.328  12.497  0.00  0.00    +0.000 C 
ATOM      2  C   UNL     1      46.214   7.941  13.142  0.00  0.00    +0.000 C 
ENDROOT
BRANCH   2   3
ATOM      3  C   UNL     1      45.751   6.813  12.240  0.00  0.00    +0.000 A 
ATOM      4  C   UNL     1      44.937   5.790  12.755  0.00  0.00    +0.000 A 
ATOM      5  C   UNL     1      44.470   4.765  11.926  0.00  0.00    +0.000 A 
ATOM      6  C   UNL     1      44.807   4.752  10.574  0.00  0.00    +0.000 A 
ATOM      7  C   UNL     1      45.695   5.705  10.079  0.00  0.00    +0.000 A 
ATOM      8  C   UNL     1      46.158   6.728  10.903  0.00  0.00    +0.000 A 
BRANCH   6   9
ATOM      9  O   UNL     1      44.217   3.779   9.812  0.00  0.00    +0.000 OA
BRANCH   9  10
ATOM     10  C   UNL     1      44.922   2.530   9.815  0.00  0.00    +0.000 C 
BRANCH  10  11
ATOM     11  C   UNL     1      45.654   2.323   8.512  0.00  0.00    +0.000 A 
ATOM     12  C   UNL     1      45.695   3.346   7.566  0.00  0.00    +0.000 A 
ATOM     13  C   UNL     1      46.445   3.160   6.411  0.00  0.00    +0.000 A 
ATOM     14  C   UNL     1      47.132   1.966   6.232  0.00  0.00    +0.000 A 
ATOM     15  C   UNL     1      47.045   1.003   7.222  0.00  0.00    +0.000 A 
ATOM     16  N   UNL     1      46.330   1.157   8.357  0.00  0.00    +0.000 NA
ENDBRANCH  10  11
ENDBRANCH   9  10
ENDBRANCH   6   9
ENDBRANCH   2   3
BRANCH   2  17
ATOM     17  N   UNL     1      47.576   7.678  13.550  0.00  0.00    +0.000 N 
ATOM     18  C   UNL     1      48.146   8.281  14.638  0.00  0.00    +0.000 C 
ATOM     19  O   UNL     1      47.515   9.019  15.388  0.00  0.00    +0.000 OA
ATOM     20  H   UNL     1      48.167   7.211  12.870  0.00  0.00    +0.000 HD
BRANCH  18  21
ATOM     21  C   UNL     1      49.551   7.948  14.893  0.00  0.00    +0.000 A 
ATOM     22  C   UNL     1      50.549   8.590  14.175  0.00  0.00    +0.000 A 
ATOM     23  S   UNL     1      52.122   8.097  14.607  0.00  0.00    +0.000 S 
ATOM     24  C   UNL     1      51.520   6.972  15.734  0.00  0.00    +0.000 A 
ATOM     25  N   UNL     1      52.364   6.172  16.441  0.00  0.00    +0.000 NA
ATOM     26  C   UNL     1      51.771   5.340  17.231  0.00  0.00    +0.000 A 
ATOM     27  N   UNL     1      50.412   5.247  17.390  0.00  0.00    +0.000 N 
ATOM     28  C   UNL     1      49.524   6.069  16.736  0.00  0.00    +0.000 A 
ATOM     29  O   UNL     1      48.318   6.016  16.965  0.00  0.00    +0.000 OA
ATOM     30  C   UNL     1      50.139   6.996  15.807  0.00  0.00    +0.000 A 
ATOM     31  H   UNL     1      50.014   4.586  18.042  0.00  0.00    +0.000 HD
ENDBRANCH  18  21
ENDBRANCH   2  17
TORSDOF 6
ENDMDL
MODEL 8
REMARK VINA RESULT:    -7.200      3.577      7.991
REMARK INTER + INTRA:         -10.236
REMARK INTER:                  -9.074
REMARK INTRA:                  -1.162
REMARK UNBOUND:                -0.510
REMARK  Name = 
REMARK  7 active torsions:
REMARK  status: ('A' for Active; 'I' for Inactive)
REMARK    1  A    between atoms: C_1  and  C_2
REMARK    2  A    between atoms: C_2  and  N_3
REMARK    3  A    between atoms: C_2  and  C_16
REMARK    4  A    between atoms: C_4  and  C_6
REMARK    5  A    between atoms: C_19  and  O_20
REMARK    6  A    between atoms: O_20  and  C_21
REMARK    7  A    between atoms: C_21  and  C_22
REMARK                            x       y       z     vdW  Elec       q    Type
REMARK                         _______ _______ _______ _____ _____    ______ ____
ROOT
ATOM      1  C   UNL     1      48.107   8.940  14.994  0.00  0.00    +0.000 C 
ATOM      2  C   UNL     1      48.324   7.526  14.442  0.00  0.00    +0.000 C 
ENDROOT
BRANCH   2   3
ATOM      3  C   UNL     1      48.821   6.538  15.480  0.00  0.00    +0.000 A 
ATOM      4  C   UNL     1      47.988   5.492  15.910  0.00  0.00    +0.000 A 
ATOM      5  C   UNL     1      48.446   4.550  16.837  0.00  0.00    +0.000 A 
ATOM      6  C   UNL     1      49.741   4.641  17.343  0.00  0.00    +0.000 A 
ATOM      7  C   UNL     1      50.537   5.733  17.000  0.00  0.00    +0.000 A 
ATOM      8  C   UNL     1      50.082   6.669  16.074  0.00  0.00    +0.000 A 
BRANCH   6   9
ATOM      9  O   UNL     1      50.146   3.618  18.157  0.00  0.00    +0.000 OA
BRANCH   9  10
ATOM     10  C   UNL     1      50.429   2.396  17.460  0.00  0.00    +0.000 C 
BRANCH  10  11
ATOM     11  C   UNL     1      51.863   1.977  17.671  0.00  0.00    +0.000 A 
ATOM     12  C   UNL     1      52.759   2.845  18.292  0.00  0.00    +0.000 A 
ATOM     13  C   UNL     1      54.051   2.403  18.548  0.00  0.00    +0.000 A 
ATOM     14  C   UNL     1      54.413   1.113  18.182  0.00  0.00    +0.000 A 
ATOM     15  C   UNL     1      53.462   0.310  17.576  0.00  0.00    +0.000 A 
ATOM     16  N   UNL     1      52.198   0.709  17.320  0.00  0.00    +0.000 NA
ENDBRANCH  10  11
ENDBRANCH   9  10
ENDBRANCH   6   9
ENDBRANCH   2   3
BRANCH   2  17
ATOM     17  N   UNL     1      47.100   7.015  13.864  0.00  0.00    +0.000 N 
ATOM     18  C   UNL     1      46.953   6.810  12.519  0.00  0.00    +0.000 C 
ATOM     19  O   UNL     1      47.874   6.964  11.725  0.00  0.00    +0.000 OA
ATOM     20  H   UNL     1      46.279   7.035  14.460  0.00  0.00    +0.000 HD
BRANCH  18  21
ATOM     21  C   UNL     1      45.637   6.334  12.084  0.00  0.00    +0.000 A 
ATOM     22  C   UNL     1      44.725   7.234  11.551  0.00  0.00    +0.000 A 
ATOM     23  S   UNL     1      43.253   6.513  11.082  0.00  0.00    +0.000 S 
ATOM     24  C   UNL     1      43.767   4.983  11.622  0.00  0.00    +0.000 A 
ATOM     25  N   UNL     1      42.943   3.902  11.544  0.00  0.00    +0.000 NA
ATOM     26  C   UNL     1      43.446   2.815  12.025  0.00  0.00    +0.000 A 
ATOM     27  N   UNL     1      44.703   2.705  12.562  0.00  0.00    +0.000 N 
ATOM     28  C   UNL     1      45.587   3.757  12.615  0.00  0.00    +0.000 A 
ATOM     29  O   UNL     1      46.736   3.604  13.024  0.00  0.00    +0.000 OA
ATOM     30  C   UNL     1      45.056   5.012  12.121  0.00  0.00    +0.000 A 
ATOM     31  H   UNL     1      45.042   1.817  12.901  0.00  0.00    +0.000 HD
ENDBRANCH  18  21
ENDBRANCH   2  17
TORSDOF 6
ENDMDL
MODEL 9
REMARK VINA RESULT:    -7.025      1.814      2.419
REMARK INTER + INTRA:          -9.999
REMARK INTER:                  -8.818
REMARK INTRA:                  -1.181
REMARK UNBOUND:                -0.510
REMARK  Name = 
REMARK  7 active torsions:
REMARK  status: ('A' for Active; 'I' for Inactive)
REMARK    1  A    between atoms: C_1  and  C_2
REMARK    2  A    between atoms: C_2  and  N_3
REMARK    3  A    between atoms: C_2  and  C_16
REMARK    4  A    between atoms: C_4  and  C_6
REMARK    5  A    between atoms: C_19  and  O_20
REMARK    6  A    between atoms: O_20  and  C_21
REMARK    7  A    between atoms: C_21  and  C_22
REMARK                            x       y       z     vdW  Elec       q    Type
REMARK                         _______ _______ _______ _____ _____    ______ ____
ROOT
ATOM      1  C   UNL     1      50.053   9.037  13.841  0.00  0.00    +0.000 C 
ATOM      2  C   UNL     1      48.682   8.754  14.469  0.00  0.00    +0.000 C 
ENDROOT
BRANCH   2   3
ATOM      3  C   UNL     1      47.662   8.219  13.482  0.00  0.00    +0.000 A 
ATOM      4  C   UNL     1      48.003   7.162  12.622  0.00  0.00    +0.000 A 
ATOM      5  C   UNL     1      47.061   6.632  11.735  0.00  0.00    +0.000 A 
ATOM      6  C   UNL     1      45.767   7.149  11.698  0.00  0.00    +0.000 A 
ATOM      7  C   UNL     1      45.452   8.263  12.474  0.00  0.00    +0.000 A 
ATOM      8  C   UNL     1      46.389   8.790  13.360  0.00  0.00    +0.000 A 
BRANCH   6   9
ATOM      9  O   UNL     1      44.878   6.500  10.884  0.00  0.00    +0.000 OA
BRANCH   9  10
ATOM     10  C   UNL     1      44.671   5.123  11.229  0.00  0.00    +0.000 C 
BRANCH  10  11
ATOM     11  C   UNL     1      44.948   4.226  10.048  0.00  0.00    +0.000 A 
ATOM     12  C   UNL     1      45.588   4.737   8.919  0.00  0.00    +0.000 A 
ATOM     13  C   UNL     1      45.905   3.871   7.880  0.00  0.00    +0.000 A 
ATOM     14  C   UNL     1      45.579   2.525   7.994  0.00  0.00    +0.000 A 
ATOM     15  C   UNL     1      44.952   2.096   9.150  0.00  0.00    +0.000 A 
ATOM     16  N   UNL     1      44.636   2.912  10.179  0.00  0.00    +0.000 NA
ENDBRANCH  10  11
ENDBRANCH   9  10
ENDBRANCH   6   9
ENDBRANCH   2   3
BRANCH   2  17
ATOM     17  N   UNL     1      48.810   7.813  15.560  0.00  0.00    +0.000 N 
ATOM     18  C   UNL     1      48.410   8.109  16.835  0.00  0.00    +0.000 C 
ATOM     19  O   UNL     1      47.840   9.157  17.120  0.00  0.00    +0.000 OA
ATOM     20  H   UNL     1      49.417   7.017  15.398  0.00  0.00    +0.000 HD
BRANCH  18  21
ATOM     21  C   UNL     1      48.650   7.068  17.839  0.00  0.00    +0.000 A 
ATOM     22  C   UNL     1      49.073   7.428  19.110  0.00  0.00    +0.000 A 
ATOM     23  S   UNL     1      49.289   6.100  20.156  0.00  0.00    +0.000 S 
ATOM     24  C   UNL     1      48.873   4.995  18.930  0.00  0.00    +0.000 A 
ATOM     25  N   UNL     1      48.895   3.654  19.160  0.00  0.00    +0.000 NA
ATOM     26  C   UNL     1      48.595   2.933  18.132  0.00  0.00    +0.000 A 
ATOM     27  N   UNL     1      48.259   3.430  16.900  0.00  0.00    +0.000 N 
ATOM     28  C   UNL     1      48.174   4.777  16.635  0.00  0.00    +0.000 A 
ATOM     29  O   UNL     1      47.787   5.189  15.543  0.00  0.00    +0.000 OA
ATOM     30  C   UNL     1      48.539   5.632  17.747  0.00  0.00    +0.000 A 
ATOM     31  H   UNL     1      48.014   2.808  16.143  0.00  0.00    +0.000 HD
ENDBRANCH  18  21
ENDBRANCH   2  17
TORSDOF 6
ENDMDL
