MODEL 1
REMARK VINA RESULT:    -8.160      0.000      0.000
REMARK INTER + INTRA:         -13.113
REMARK INTER:                 -11.977
REMARK INTRA:                  -1.136
REMARK UNBOUND:                -1.136
REMARK  Name = 
REMARK  9 active torsions:
REMARK  status: ('A' for Active; 'I' for Inactive)
REMARK    1  A    between atoms: C_1  and  C_2
REMARK    2  A    between atoms: C_6  and  C_7
REMARK    3  A    between atoms: C_7  and  C_8
REMARK    4  A    between atoms: C_8  and  N_9
REMARK    5  A    between atoms: N_9  and  C_10
REMARK    6  A    between atoms: C_10  and  C_11
REMARK    7  A    between atoms: C_14  and  C_15
REMARK    8  A    between atoms: C_15  and  N_16
REMARK    9  A    between atoms: C_17  and  C_19
REMARK                            x       y       z     vdW  Elec       q    Type
REMARK                         _______ _______ _______ _____ _____    ______ ____
ROOT
ATOM      1  C   UNL     1      44.556   4.521  12.785  0.00  0.00    +0.000 A 
ATOM      2  C   UNL     1      44.371   5.895  12.580  0.00  0.00    +0.000 A 
ATOM      3  C   UNL     1      45.411   6.803  12.801  0.00  0.00    +0.000 A 
ATOM      4  C   UNL     1      46.666   6.347  13.236  0.00  0.00    +0.000 A 
ATOM      5  C   UNL     1      46.837   4.981  13.481  0.00  0.00    +0.000 A 
ATOM      6  C   UNL     1      45.799   4.074  13.250  0.00  0.00    +0.000 A 
ENDROOT
BRANCH   1   7
ATOM      7  C   UNL     1      43.425   3.549  12.545  0.00  0.00    +0.000 C 
BRANCH   7   8
ATOM      8  N   UNL     1      43.032   3.502  11.131  0.00  0.00    +0.000 NA
ATOM      9  H   UNL     1      42.199   2.925  11.043  0.00  0.00    +0.000 HD
BRANCH   8  10
ATOM     10  C   UNL     1      44.110   2.906  10.329  0.00  0.00    +0.000 C 
BRANCH  10  11
ATOM     11  C   UNL     1      44.540   3.851   9.201  0.00  0.00    +0.000 C 
BRANCH  11  17
ATOM     12  C   UNL     1      46.730  -0.224   7.713  0.00  0.00    +0.000 C 
ATOM     13  C   UNL     1      46.645   1.267   7.616  0.00  0.00    +0.000 A 
ATOM     14  C   UNL     1      47.486   1.979   6.770  0.00  0.00    +0.000 A 
ATOM     15  C   UNL     1      47.363   3.363   6.718  0.00  0.00    +0.000 A 
ATOM     16  C   UNL     1      46.410   3.997   7.509  0.00  0.00    +0.000 A 
ATOM     17  C   UNL     1      45.605   3.220   8.338  0.00  0.00    +0.000 A 
ATOM     18  N   UNL     1      45.712   1.870   8.392  0.00  0.00    +0.000 NA
ENDBRANCH  11  17
ENDBRANCH  10  11
ENDBRANCH   8  10
ENDBRANCH   7   8
ENDBRANCH   1   7
BRANCH   4  19
ATOM     19  C   UNL     1      47.809   7.298  13.469  0.00  0.00    +0.000 C 
BRANCH  19  20
ATOM     20  N   UNL     1      47.893   7.687  14.852  0.00  0.00    +0.000 N 
ATOM     21  C   UNL     1      48.791   7.102  15.705  0.00  0.00    +0.000 C 
ATOM     22  O   UNL     1      49.581   6.236  15.338  0.00  0.00    +0.000 OA
ATOM     23  H   UNL     1      47.074   8.144  15.242  0.00  0.00    +0.000 HD
BRANCH  21  24
ATOM     24  C   UNL     1      48.800   7.620  17.077  0.00  0.00    +0.000 A 
ATOM     25  C   UNL     1      49.356   8.863  17.347  0.00  0.00    +0.000 A 
ATOM     26  S   UNL     1      49.232   9.322  18.985  0.00  0.00    +0.000 S 
ATOM     27  C   UNL     1      48.472   7.857  19.397  0.00  0.00    +0.000 A 
ATOM     28  N   UNL     1      48.116   7.586  20.680  0.00  0.00    +0.000 NA
ATOM     29  C   UNL     1      47.576   6.424  20.850  0.00  0.00    +0.000 A 
ATOM     30  N   UNL     1      47.340   5.515  19.850  0.00  0.00    +0.000 N 
ATOM     31  C   UNL     1      47.652   5.759  18.536  0.00  0.00    +0.000 A 
ATOM     32  O   UNL     1      47.386   4.945  17.659  0.00  0.00    +0.000 OA
ATOM     33  C   UNL     1      48.290   7.040  18.295  0.00  0.00    +0.000 A 
ATOM     34  H   UNL     1      46.897   4.635  20.046  0.00  0.00    +0.000 HD
ENDBRANCH  21  24
ENDBRANCH  19  20
ENDBRANCH   4  19
TORSDOF 8
ENDMDL
MODEL 2
REMARK VINA RESULT:    -7.577      3.320      3.886
REMARK INTER + INTRA:         -12.256
REMARK INTER:                 -11.228
REMARK INTRA:                  -1.029
REMARK UNBOUND:                -1.136
REMARK  Name = 
REMARK  9 active torsions:
REMARK  status: ('A' for Active; 'I' for Inactive)
REMARK    1  A    between atoms: C_1  and  C_2
REMARK    2  A    between atoms: C_6  and  C_7
REMARK    3  A    between atoms: C_7  and  C_8
REMARK    4  A    between atoms: C_8  and  N_9
REMARK    5  A    between atoms: N_9  and  C_10
REMARK    6  A    between atoms: C_10  and  C_11
REMARK    7  A    between atoms: C_14  and  C_15
REMARK    8  A    between atoms: C_15  and  N_16
REMARK    9  A    between atoms: C_17  and  C_19
REMARK                            x       y       z     vdW  Elec       q    Type
REMARK                         _______ _______ _______ _____ _____    ______ ____
ROOT
ATOM      1  C   UNL     1      46.809   5.984  12.881  0.00  0.00    +0.000 A 
ATOM      2  C   UNL     1      47.084   5.184  13.998  0.00  0.00    +0.000 A 
ATOM      3  C   UNL     1      47.904   5.647  15.032  0.00  0.00    +0.000 A 
ATOM      4  C   UNL     1      48.468   6.931  14.965  0.00  0.00    +0.000 A 
ATOM      5  C   UNL     1      48.229   7.712  13.829  0.00  0.00    +0.000 A 
ATOM      6  C   UNL     1      47.400   7.252  12.802  0.00  0.00    +0.000 A 
ENDROOT
BRANCH   1   7
ATOM      7  C   UNL     1      45.923   5.474  11.769  0.00  0.00    +0.000 C 
BRANCH   7   8
ATOM      8  N   UNL     1      44.856   4.602  12.274  0.00  0.00    +0.000 NA
ATOM      9  H   UNL     1      44.978   4.483  13.277  0.00  0.00    +0.000 HD
BRANCH   8  10
ATOM     10  C   UNL     1      44.931   3.285  11.626  0.00  0.00    +0.000 C 
BRANCH  10  11
ATOM     11  C   UNL     1      44.205   3.295  10.277  0.00  0.00    +0.000 C 
BRANCH  11  17
ATOM     12  C   UNL     1      46.816   0.138   7.662  0.00  0.00    +0.000 C 
ATOM     13  C   UNL     1      46.410   1.563   7.877  0.00  0.00    +0.000 A 
ATOM     14  C   UNL     1      46.890   2.576   7.056  0.00  0.00    +0.000 A 
ATOM     15  C   UNL     1      46.479   3.882   7.300  0.00  0.00    +0.000 A 
ATOM     16  C   UNL     1      45.606   4.141   8.352  0.00  0.00    +0.000 A 
ATOM     17  C   UNL     1      45.170   3.078   9.136  0.00  0.00    +0.000 A 
ATOM     18  N   UNL     1      45.559   1.800   8.904  0.00  0.00    +0.000 NA
ENDBRANCH  11  17
ENDBRANCH  10  11
ENDBRANCH   8  10
ENDBRANCH   7   8
ENDBRANCH   1   7
BRANCH   4  19
ATOM     19  C   UNL     1      49.344   7.462  16.068  0.00  0.00    +0.000 C 
BRANCH  19  20
ATOM     20  N   UNL     1      50.367   6.516  16.426  0.00  0.00    +0.000 N 
ATOM     21  C   UNL     1      50.398   5.932  17.665  0.00  0.00    +0.000 C 
ATOM     22  O   UNL     1      49.551   6.164  18.524  0.00  0.00    +0.000 OA
ATOM     23  H   UNL     1      51.222   6.549  15.879  0.00  0.00    +0.000 HD
BRANCH  21  24
ATOM     24  C   UNL     1      51.469   4.955  17.884  0.00  0.00    +0.000 A 
ATOM     25  C   UNL     1      52.713   5.375  18.334  0.00  0.00    +0.000 A 
ATOM     26  S   UNL     1      53.816   4.097  18.580  0.00  0.00    +0.000 S 
ATOM     27  C   UNL     1      52.683   2.944  18.049  0.00  0.00    +0.000 A 
ATOM     28  N   UNL     1      53.002   1.624  17.983  0.00  0.00    +0.000 NA
ATOM     29  C   UNL     1      52.055   0.869  17.534  0.00  0.00    +0.000 A 
ATOM     30  N   UNL     1      50.809   1.308  17.164  0.00  0.00    +0.000 N 
ATOM     31  C   UNL     1      50.432   2.625  17.246  0.00  0.00    +0.000 A 
ATOM     32  O   UNL     1      49.296   2.980  16.952  0.00  0.00    +0.000 OA
ATOM     33  C   UNL     1      51.471   3.522  17.716  0.00  0.00    +0.000 A 
ATOM     34  H   UNL     1      50.109   0.664  16.841  0.00  0.00    +0.000 HD
ENDBRANCH  21  24
ENDBRANCH  19  20
ENDBRANCH   4  19
TORSDOF 8
ENDMDL
MODEL 3
REMARK VINA RESULT:    -7.376      1.269      1.384
REMARK INTER + INTRA:         -11.961
REMARK INTER:                 -10.764
REMARK INTRA:                  -1.198
REMARK UNBOUND:                -1.136
REMARK  Name = 
REMARK  9 active torsions:
REMARK  status: ('A' for Active; 'I' for Inactive)
REMARK    1  A    between atoms: C_1  and  C_2
REMARK    2  A    between atoms: C_6  and  C_7
REMARK    3  A    between atoms: C_7  and  C_8
REMARK    4  A    between atoms: C_8  and  N_9
REMARK    5  A    between atoms: N_9  and  C_10
REMARK    6  A    between atoms: C_10  and  C_11
REMARK    7  A    between atoms: C_14  and  C_15
REMARK    8  A    between atoms: C_15  and  N_16
REMARK    9  A    between atoms: C_17  and  C_19
REMARK                            x       y       z     vdW  Elec       q    Type
REMARK                         _______ _______ _______ _____ _____    ______ ____
ROOT
ATOM      1  C   UNL     1      45.379   5.238  12.705  0.00  0.00    +0.000 A 
ATOM      2  C   UNL     1      45.559   6.586  12.367  0.00  0.00    +0.000 A 
ATOM      3  C   UNL     1      46.730   7.266  12.716  0.00  0.00    +0.000 A 
ATOM      4  C   UNL     1      47.751   6.602  13.415  0.00  0.00    +0.000 A 
ATOM      5  C   UNL     1      47.552   5.269  13.790  0.00  0.00    +0.000 A 
ATOM      6  C   UNL     1      46.386   4.588  13.431  0.00  0.00    +0.000 A 
ENDROOT
BRANCH   1   7
ATOM      7  C   UNL     1      44.110   4.513  12.324  0.00  0.00    +0.000 C 
BRANCH   7   8
ATOM      8  N   UNL     1      43.360   5.228  11.285  0.00  0.00    +0.000 NA
ATOM      9  H   UNL     1      42.364   5.104  11.456  0.00  0.00    +0.000 HD
BRANCH   8  10
ATOM     10  C   UNL     1      43.686   4.681   9.960  0.00  0.00    +0.000 C 
BRANCH  10  11
ATOM     11  C   UNL     1      44.193   3.239  10.072  0.00  0.00    +0.000 C 
BRANCH  11  17
ATOM     12  C   UNL     1      46.720  -0.140   7.662  0.00  0.00    +0.000 C 
ATOM     13  C   UNL     1      46.413   1.314   7.840  0.00  0.00    +0.000 A 
ATOM     14  C   UNL     1      47.024   2.277   7.047  0.00  0.00    +0.000 A 
ATOM     15  C   UNL     1      46.701   3.614   7.254  0.00  0.00    +0.000 A 
ATOM     16  C   UNL     1      45.782   3.952   8.242  0.00  0.00    +0.000 A 
ATOM     17  C   UNL     1      45.212   2.934   9.002  0.00  0.00    +0.000 A 
ATOM     18  N   UNL     1      45.516   1.628   8.805  0.00  0.00    +0.000 NA
ENDBRANCH  11  17
ENDBRANCH  10  11
ENDBRANCH   8  10
ENDBRANCH   7   8
ENDBRANCH   1   7
BRANCH   4  19
ATOM     19  C   UNL     1      49.028   7.303  13.793  0.00  0.00    +0.000 C 
BRANCH  19  20
ATOM     20  N   UNL     1      49.351   7.091  15.179  0.00  0.00    +0.000 N 
ATOM     21  C   UNL     1      48.871   7.920  16.159  0.00  0.00    +0.000 C 
ATOM     22  O   UNL     1      48.128   8.867  15.916  0.00  0.00    +0.000 OA
ATOM     23  H   UNL     1      50.183   6.541  15.369  0.00  0.00    +0.000 HD
BRANCH  21  24
ATOM     24  C   UNL     1      49.242   7.567  17.533  0.00  0.00    +0.000 A 
ATOM     25  C   UNL     1      50.045   8.420  18.278  0.00  0.00    +0.000 A 
ATOM     26  S   UNL     1      50.331   7.871  19.867  0.00  0.00    +0.000 S 
ATOM     27  C   UNL     1      49.429   6.453  19.599  0.00  0.00    +0.000 A 
ATOM     28  N   UNL     1      49.295   5.511  20.570  0.00  0.00    +0.000 NA
ATOM     29  C   UNL     1      48.610   4.474  20.216  0.00  0.00    +0.000 A 
ATOM     30  N   UNL     1      48.027   4.301  18.986  0.00  0.00    +0.000 N 
ATOM     31  C   UNL     1      48.108   5.239  17.988  0.00  0.00    +0.000 A 
ATOM     32  O   UNL     1      47.537   5.076  16.916  0.00  0.00    +0.000 OA
ATOM     33  C   UNL     1      48.894   6.412  18.324  0.00  0.00    +0.000 A 
ATOM     34  H   UNL     1      47.488   3.478  18.781  0.00  0.00    +0.000 HD
ENDBRANCH  21  24
ENDBRANCH  19  20
ENDBRANCH   4  19
TORSDOF 8
ENDMDL
MODEL 4
REMARK VINA RESULT:    -7.182      3.665      9.084
REMARK INTER + INTRA:         -11.677
REMARK INTER:                  -9.898
REMARK INTRA:                  -1.779
REMARK UNBOUND:                -1.136
REMARK  Name = 
REMARK  9 active torsions:
REMARK  status: ('A' for Active; 'I' for Inactive)
REMARK    1  A    between atoms: C_1  and  C_2
REMARK    2  A    between atoms: C_6  and  C_7
REMARK    3  A    between atoms: C_7  and  C_8
REMARK    4  A    between atoms: C_8  and  N_9
REMARK    5  A    between atoms: N_9  and  C_10
REMARK    6  A    between atoms: C_10  and  C_11
REMARK    7  A    between atoms: C_14  and  C_15
REMARK    8  A    between atoms: C_15  and  N_16
REMARK    9  A    between atoms: C_17  and  C_19
REMARK                            x       y       z     vdW  Elec       q    Type
REMARK                         _______ _______ _______ _____ _____    ______ ____
ROOT
ATOM      1  C   UNL     1      50.031   7.855  14.935  0.00  0.00    +0.000 A 
ATOM      2  C   UNL     1      50.133   8.779  13.887  0.00  0.00    +0.000 A 
ATOM      3  C   UNL     1      49.183   8.814  12.862  0.00  0.00    +0.000 A 
ATOM      4  C   UNL     1      48.103   7.915  12.868  0.00  0.00    +0.000 A 
ATOM      5  C   UNL     1      48.026   6.965  13.892  0.00  0.00    +0.000 A 
ATOM      6  C   UNL     1      48.971   6.939  14.921  0.00  0.00    +0.000 A 
ENDROOT
BRANCH   1   7
ATOM      7  C   UNL     1      51.064   7.826  16.037  0.00  0.00    +0.000 C 
BRANCH   7   8
ATOM      8  N   UNL     1      51.232   6.480  16.597  0.00  0.00    +0.000 NA
ATOM      9  H   UNL     1      50.525   5.868  16.196  0.00  0.00    +0.000 HD
BRANCH   8  10
ATOM     10  C   UNL     1      51.058   6.515  18.056  0.00  0.00    +0.000 C 
BRANCH  10  11
ATOM     11  C   UNL     1      49.693   5.949  18.459  0.00  0.00    +0.000 C 
BRANCH  11  17
ATOM     12  C   UNL     1      51.439   1.548  17.363  0.00  0.00    +0.000 C 
ATOM     13  C   UNL     1      50.280   2.494  17.301  0.00  0.00    +0.000 A 
ATOM     14  C   UNL     1      49.081   2.121  16.707  0.00  0.00    +0.000 A 
ATOM     15  C   UNL     1      48.037   3.039  16.679  0.00  0.00    +0.000 A 
ATOM     16  C   UNL     1      48.217   4.299  17.241  0.00  0.00    +0.000 A 
ATOM     17  C   UNL     1      49.447   4.606  17.815  0.00  0.00    +0.000 A 
ATOM     18  N   UNL     1      50.470   3.717  17.853  0.00  0.00    +0.000 NA
ENDBRANCH  11  17
ENDBRANCH  10  11
ENDBRANCH   8  10
ENDBRANCH   7   8
ENDBRANCH   1   7
BRANCH   4  19
ATOM     19  C   UNL     1      47.057   7.937  11.786  0.00  0.00    +0.000 C 
BRANCH  19  20
ATOM     20  N   UNL     1      46.460   6.639  11.609  0.00  0.00    +0.000 N 
ATOM     21  C   UNL     1      45.101   6.483  11.530  0.00  0.00    +0.000 C 
ATOM     22  O   UNL     1      44.324   7.433  11.584  0.00  0.00    +0.000 OA
ATOM     23  H   UNL     1      47.029   5.841  11.875  0.00  0.00    +0.000 HD
BRANCH  21  24
ATOM     24  C   UNL     1      44.628   5.113  11.308  0.00  0.00    +0.000 A 
ATOM     25  C   UNL     1      43.845   4.483  12.266  0.00  0.00    +0.000 A 
ATOM     26  S   UNL     1      43.346   2.916  11.814  0.00  0.00    +0.000 S 
ATOM     27  C   UNL     1      44.197   3.009  10.343  0.00  0.00    +0.000 A 
ATOM     28  N   UNL     1      44.211   1.965   9.473  0.00  0.00    +0.000 NA
ATOM     29  C   UNL     1      44.922   2.165   8.412  0.00  0.00    +0.000 A 
ATOM     30  N   UNL     1      45.604   3.322   8.131  0.00  0.00    +0.000 N 
ATOM     31  C   UNL     1      45.589   4.412   8.964  0.00  0.00    +0.000 A 
ATOM     32  O   UNL     1      46.170   5.449   8.662  0.00  0.00    +0.000 OA
ATOM     33  C   UNL     1      44.829   4.229  10.186  0.00  0.00    +0.000 A 
ATOM     34  H   UNL     1      46.122   3.421   7.276  0.00  0.00    +0.000 HD
ENDBRANCH  21  24
ENDBRANCH  19  20
ENDBRANCH   4  19
TORSDOF 8
ENDMDL
MODEL 5
REMARK VINA RESULT:    -6.869      3.551      9.376
REMARK INTER + INTRA:         -11.218
REMARK INTER:                  -8.326
REMARK INTRA:                  -2.892
REMARK UNBOUND:                -1.136
REMARK  Name = 
REMARK  9 active torsions:
REMARK  status: ('A' for Active; 'I' for Inactive)
REMARK    1  A    between atoms: C_1  and  C_2
REMARK    2  A    between atoms: C_6  and  C_7
REMARK    3  A    between atoms: C_7  and  C_8
REMARK    4  A    between atoms: C_8  and  N_9
REMARK    5  A    between atoms: N_9  and  C_10
REMARK    6  A    between atoms: C_10  and  C_11
REMARK    7  A    between atoms: C_14  and  C_15
REMARK    8  A    between atoms: C_15  and  N_16
REMARK    9  A    between atoms: C_17  and  C_19
REMARK                            x       y       z     vdW  Elec       q    Type
REMARK                         _______ _______ _______ _____ _____    ______ ____
ROOT
ATOM      1  C   UNL     1      50.701   5.102  17.350  0.00  0.00    +0.000 A 
ATOM      2  C   UNL     1      51.417   6.118  16.703  0.00  0.00    +0.000 A 
ATOM      3  C   UNL     1      50.776   7.020  15.848  0.00  0.00    +0.000 A 
ATOM      4  C   UNL     1      49.394   6.919  15.623  0.00  0.00    +0.000 A 
ATOM      5  C   UNL     1      48.687   5.878  16.235  0.00  0.00    +0.000 A 
ATOM      6  C   UNL     1      49.328   4.985  17.097  0.00  0.00    +0.000 A 
ENDROOT
BRANCH   1   7
ATOM      7  C   UNL     1      51.404   4.132  18.270  0.00  0.00    +0.000 C 
BRANCH   7   8
ATOM      8  N   UNL     1      50.775   4.078  19.595  0.00  0.00    +0.000 NA
ATOM      9  H   UNL     1      49.764   4.105  19.478  0.00  0.00    +0.000 HD
BRANCH   8  10
ATOM     10  C   UNL     1      51.192   5.235  20.399  0.00  0.00    +0.000 C 
BRANCH  10  11
ATOM     11  C   UNL     1      49.997   5.851  21.135  0.00  0.00    +0.000 C 
BRANCH  11  17
ATOM     12  C   UNL     1      50.318   9.739  18.237  0.00  0.00    +0.000 C 
ATOM     13  C   UNL     1      49.434   8.707  18.867  0.00  0.00    +0.000 A 
ATOM     14  C   UNL     1      48.066   8.694  18.628  0.00  0.00    +0.000 A 
ATOM     15  C   UNL     1      47.293   7.712  19.238  0.00  0.00    +0.000 A 
ATOM     16  C   UNL     1      47.903   6.775  20.066  0.00  0.00    +0.000 A 
ATOM     17  C   UNL     1      49.278   6.853  20.265  0.00  0.00    +0.000 A 
ATOM     18  N   UNL     1      50.043   7.802  19.671  0.00  0.00    +0.000 NA
ENDBRANCH  11  17
ENDBRANCH  10  11
ENDBRANCH   8  10
ENDBRANCH   7   8
ENDBRANCH   1   7
BRANCH   4  19
ATOM     19  C   UNL     1      48.673   7.883  14.719  0.00  0.00    +0.000 C 
BRANCH  19  20
ATOM     20  N   UNL     1      47.481   7.294  14.170  0.00  0.00    +0.000 N 
ATOM     21  C   UNL     1      47.209   7.350  12.828  0.00  0.00    +0.000 C 
ATOM     22  O   UNL     1      47.969   7.882  12.023  0.00  0.00    +0.000 OA
ATOM     23  H   UNL     1      46.714   7.141  14.818  0.00  0.00    +0.000 HD
BRANCH  21  24
ATOM     24  C   UNL     1      45.982   6.674  12.397  0.00  0.00    +0.000 A 
ATOM     25  C   UNL     1      44.951   7.404  11.821  0.00  0.00    +0.000 A 
ATOM     26  S   UNL     1      43.626   6.444  11.335  0.00  0.00    +0.000 S 
ATOM     27  C   UNL     1      44.366   5.028  11.920  0.00  0.00    +0.000 A 
ATOM     28  N   UNL     1      43.740   3.824  11.842  0.00  0.00    +0.000 NA
ATOM     29  C   UNL     1      44.407   2.842  12.352  0.00  0.00    +0.000 A 
ATOM     30  N   UNL     1      45.654   2.948  12.915  0.00  0.00    +0.000 N 
ATOM     31  C   UNL     1      46.337   4.136  12.984  0.00  0.00    +0.000 A 
ATOM     32  O   UNL     1      47.470   4.190  13.451  0.00  0.00    +0.000 OA
ATOM     33  C   UNL     1      45.618   5.279  12.452  0.00  0.00    +0.000 A 
ATOM     34  H   UNL     1      46.128   2.140  13.275  0.00  0.00    +0.000 HD
ENDBRANCH  21  24
ENDBRANCH  19  20
ENDBRANCH   4  19
TORSDOF 8
ENDMDL
MODEL 6
REMARK VINA RESULT:    -6.565      2.306      3.270
REMARK INTER + INTRA:         -10.772
REMARK INTER:                  -9.220
REMARK INTRA:                  -1.552
REMARK UNBOUND:                -1.136
REMARK  Name = 
REMARK  9 active torsions:
REMARK  status: ('A' for Active; 'I' for Inactive)
REMARK    1  A    between atoms: C_1  and  C_2
REMARK    2  A    between atoms: C_6  and  C_7
REMARK    3  A    between atoms: C_7  and  C_8
REMARK    4  A    between atoms: C_8  and  N_9
REMARK    5  A    between atoms: N_9  and  C_10
REMARK    6  A    between atoms: C_10  and  C_11
REMARK    7  A    between atoms: C_14  and  C_15
REMARK    8  A    between atoms: C_15  and  N_16
REMARK    9  A    between atoms: C_17  and  C_19
REMARK                            x       y       z     vdW  Elec       q    Type
REMARK                         _______ _______ _______ _____ _____    ______ ____
ROOT
ATOM      1  C   UNL     1      45.696   7.955  11.979  0.00  0.00    +0.000 A 
ATOM      2  C   UNL     1      45.977   8.791  13.069  0.00  0.00    +0.000 A 
ATOM      3  C   UNL     1      47.232   8.774  13.685  0.00  0.00    +0.000 A 
ATOM      4  C   UNL     1      48.237   7.913  13.216  0.00  0.00    +0.000 A 
ATOM      5  C   UNL     1      47.942   7.049  12.156  0.00  0.00    +0.000 A 
ATOM      6  C   UNL     1      46.690   7.075  11.535  0.00  0.00    +0.000 A 
ENDROOT
BRANCH   1   7
ATOM      7  C   UNL     1      44.336   7.981  11.323  0.00  0.00    +0.000 C 
BRANCH   7   8
ATOM      8  N   UNL     1      44.061   6.747  10.578  0.00  0.00    +0.000 NA
ATOM      9  H   UNL     1      43.523   6.979   9.746  0.00  0.00    +0.000 HD
BRANCH   8  10
ATOM     10  C   UNL     1      43.278   5.821  11.408  0.00  0.00    +0.000 C 
BRANCH  10  11
ATOM     11  C   UNL     1      44.102   4.584  11.778  0.00  0.00    +0.000 C 
BRANCH  11  17
ATOM     12  C   UNL     1      46.549   4.476   7.580  0.00  0.00    +0.000 C 
ATOM     13  C   UNL     1      45.670   3.742   8.545  0.00  0.00    +0.000 A 
ATOM     14  C   UNL     1      45.278   2.431   8.302  0.00  0.00    +0.000 A 
ATOM     15  C   UNL     1      44.462   1.797   9.233  0.00  0.00    +0.000 A 
ATOM     16  C   UNL     1      44.061   2.484  10.374  0.00  0.00    +0.000 A 
ATOM     17  C   UNL     1      44.488   3.797  10.549  0.00  0.00    +0.000 A 
ATOM     18  N   UNL     1      45.288   4.424   9.651  0.00  0.00    +0.000 NA
ENDBRANCH  11  17
ENDBRANCH  10  11
ENDBRANCH   8  10
ENDBRANCH   7   8
ENDBRANCH   1   7
BRANCH   4  19
ATOM     19  C   UNL     1      49.602   7.881  13.849  0.00  0.00    +0.000 C 
BRANCH  19  20
ATOM     20  N   UNL     1      49.654   6.939  14.935  0.00  0.00    +0.000 N 
ATOM     21  C   UNL     1      49.468   7.335  16.234  0.00  0.00    +0.000 C 
ATOM     22  O   UNL     1      49.228   8.500  16.540  0.00  0.00    +0.000 OA
ATOM     23  H   UNL     1      50.148   6.070  14.755  0.00  0.00    +0.000 HD
BRANCH  21  24
ATOM     24  C   UNL     1      49.504   6.268  17.238  0.00  0.00    +0.000 A 
ATOM     25  C   UNL     1      50.358   6.368  18.329  0.00  0.00    +0.000 A 
ATOM     26  S   UNL     1      50.228   5.061  19.417  0.00  0.00    +0.000 S 
ATOM     27  C   UNL     1      49.060   4.295  18.445  0.00  0.00    +0.000 A 
ATOM     28  N   UNL     1      48.535   3.090  18.794  0.00  0.00    +0.000 NA
ATOM     29  C   UNL     1      47.683   2.615  17.947  0.00  0.00    +0.000 A 
ATOM     30  N   UNL     1      47.290   3.243  16.792  0.00  0.00    +0.000 N 
ATOM     31  C   UNL     1      47.767   4.474  16.418  0.00  0.00    +0.000 A 
ATOM     32  O   UNL     1      47.362   5.030  15.403  0.00  0.00    +0.000 OA
ATOM     33  C   UNL     1      48.753   5.039  17.320  0.00  0.00    +0.000 A 
ATOM     34  H   UNL     1      46.606   2.828  16.185  0.00  0.00    +0.000 HD
ENDBRANCH  21  24
ENDBRANCH  19  20
ENDBRANCH   4  19
TORSDOF 8
ENDMDL
MODEL 7
REMARK VINA RESULT:    -6.549      1.986      2.576
REMARK INTER + INTRA:         -10.748
REMARK INTER:                 -10.297
REMARK INTRA:                  -0.450
REMARK UNBOUND:                -1.136
REMARK  Name = 
REMARK  9 active torsions:
REMARK  status: ('A' for Active; 'I' for Inactive)
REMARK    1  A    between atoms: C_1  and  C_2
REMARK    2  A    between atoms: C_6  and  C_7
REMARK    3  A    between atoms: C_7  and  C_8
REMARK    4  A    between atoms: C_8  and  N_9
REMARK    5  A    between atoms: N_9  and  C_10
REMARK    6  A    between atoms: C_10  and  C_11
REMARK    7  A    between atoms: C_14  and  C_15
REMARK    8  A    between atoms: C_15  and  N_16
REMARK    9  A    between atoms: C_17  and  C_19
REMARK                            x       y       z     vdW  Elec       q    Type
REMARK                         _______ _______ _______ _____ _____    ______ ____
ROOT
ATOM      1  C   UNL     1      45.894   5.677  12.229  0.00  0.00    +0.000 A 
ATOM      2  C   UNL     1      46.794   6.408  13.017  0.00  0.00    +0.000 A 
ATOM      3  C   UNL     1      47.389   5.838  14.147  0.00  0.00    +0.000 A 
ATOM      4  C   UNL     1      47.092   4.515  14.511  0.00  0.00    +0.000 A 
ATOM      5  C   UNL     1      46.160   3.802  13.749  0.00  0.00    +0.000 A 
ATOM      6  C   UNL     1      45.575   4.369  12.614  0.00  0.00    +0.000 A 
ENDROOT
BRANCH   1   7
ATOM      7  C   UNL     1      45.256   6.303  11.012  0.00  0.00    +0.000 C 
BRANCH   7   8
ATOM      8  N   UNL     1      45.451   5.487   9.808  0.00  0.00    +0.000 NA
ATOM      9  H   UNL     1      45.681   6.102   9.030  0.00  0.00    +0.000 HD
BRANCH   8  10
ATOM     10  C   UNL     1      44.218   4.755   9.488  0.00  0.00    +0.000 C 
BRANCH  10  11
ATOM     11  C   UNL     1      44.436   3.242   9.587  0.00  0.00    +0.000 C 
BRANCH  11  17
ATOM     12  C   UNL     1      46.871  -0.498   7.662  0.00  0.00    +0.000 C 
ATOM     13  C   UNL     1      46.581   0.971   7.623  0.00  0.00    +0.000 A 
ATOM     14  C   UNL     1      47.181   1.794   6.678  0.00  0.00    +0.000 A 
ATOM     15  C   UNL     1      46.875   3.150   6.686  0.00  0.00    +0.000 A 
ATOM     16  C   UNL     1      45.984   3.646   7.632  0.00  0.00    +0.000 A 
ATOM     17  C   UNL     1      45.426   2.764   8.552  0.00  0.00    +0.000 A 
ATOM     18  N   UNL     1      45.712   1.439   8.550  0.00  0.00    +0.000 NA
ENDBRANCH  11  17
ENDBRANCH  10  11
ENDBRANCH   8  10
ENDBRANCH   7   8
ENDBRANCH   1   7
BRANCH   4  19
ATOM     19  C   UNL     1      47.727   3.870  15.713  0.00  0.00    +0.000 C 
BRANCH  19  20
ATOM     20  N   UNL     1      48.299   4.854  16.594  0.00  0.00    +0.000 N 
ATOM     21  C   UNL     1      47.711   5.168  17.792  0.00  0.00    +0.000 C 
ATOM     22  O   UNL     1      46.686   4.619  18.187  0.00  0.00    +0.000 OA
ATOM     23  H   UNL     1      48.933   5.523  16.171  0.00  0.00    +0.000 HD
BRANCH  21  24
ATOM     24  C   UNL     1      48.420   6.156  18.611  0.00  0.00    +0.000 A 
ATOM     25  C   UNL     1      47.812   7.364  18.925  0.00  0.00    +0.000 A 
ATOM     26  S   UNL     1      48.764   8.364  19.927  0.00  0.00    +0.000 S 
ATOM     27  C   UNL     1      50.038   7.237  19.937  0.00  0.00    +0.000 A 
ATOM     28  N   UNL     1      51.197   7.491  20.601  0.00  0.00    +0.000 NA
ATOM     29  C   UNL     1      52.087   6.560  20.497  0.00  0.00    +0.000 A 
ATOM     30  N   UNL     1      51.918   5.387  19.806  0.00  0.00    +0.000 N 
ATOM     31  C   UNL     1      50.754   5.073  19.150  0.00  0.00    +0.000 A 
ATOM     32  O   UNL     1      50.617   3.996  18.580  0.00  0.00    +0.000 OA
ATOM     33  C   UNL     1      49.731   6.101  19.210  0.00  0.00    +0.000 A 
ATOM     34  H   UNL     1      52.643   4.693  19.782  0.00  0.00    +0.000 HD
ENDBRANCH  21  24
ENDBRANCH  19  20
ENDBRANCH   4  19
TORSDOF 8
ENDMDL
MODEL 8
REMARK VINA RESULT:    -6.501      2.113      2.645
REMARK INTER + INTRA:         -10.678
REMARK INTER:                 -10.227
REMARK INTRA:                  -0.451
REMARK UNBOUND:                -1.136
REMARK  Name = 
REMARK  9 active torsions:
REMARK  status: ('A' for Active; 'I' for Inactive)
REMARK    1  A    between atoms: C_1  and  C_2
REMARK    2  A    between atoms: C_6  and  C_7
REMARK    3  A    between atoms: C_7  and  C_8
REMARK    4  A    between atoms: C_8  and  N_9
REMARK    5  A    between atoms: N_9  and  C_10
REMARK    6  A    between atoms: C_10  and  C_11
REMARK    7  A    between atoms: C_14  and  C_15
REMARK    8  A    between atoms: C_15  and  N_16
REMARK    9  A    between atoms: C_17  and  C_19
REMARK                            x       y       z     vdW  Elec       q    Type
REMARK                         _______ _______ _______ _____ _____    ______ ____
ROOT
ATOM      1  C   UNL     1      44.231   6.047  11.970  0.00  0.00    +0.000 A 
ATOM      2  C   UNL     1      44.721   5.440  13.133  0.00  0.00    +0.000 A 
ATOM      3  C   UNL     1      46.042   5.638  13.548  0.00  0.00    +0.000 A 
ATOM      4  C   UNL     1      46.903   6.455  12.798  0.00  0.00    +0.000 A 
ATOM      5  C   UNL     1      46.425   7.026  11.613  0.00  0.00    +0.000 A 
ATOM      6  C   UNL     1      45.102   6.836  11.207  0.00  0.00    +0.000 A 
ENDROOT
BRANCH   1   7
ATOM      7  C   UNL     1      42.803   5.826  11.531  0.00  0.00    +0.000 C 
BRANCH   7   8
ATOM      8  N   UNL     1      42.675   4.668  10.638  0.00  0.00    +0.000 NA
ATOM      9  H   UNL     1      42.521   3.835  11.203  0.00  0.00    +0.000 HD
BRANCH   8  10
ATOM     10  C   UNL     1      43.910   4.493   9.860  0.00  0.00    +0.000 C 
BRANCH  10  11
ATOM     11  C   UNL     1      44.431   3.056   9.975  0.00  0.00    +0.000 C 
BRANCH  11  17
ATOM     12  C   UNL     1      46.918  -0.375   7.596  0.00  0.00    +0.000 C 
ATOM     13  C   UNL     1      46.530   1.069   7.681  0.00  0.00    +0.000 A 
ATOM     14  C   UNL     1      46.984   1.989   6.744  0.00  0.00    +0.000 A 
ATOM     15  C   UNL     1      46.591   3.317   6.870  0.00  0.00    +0.000 A 
ATOM     16  C   UNL     1      45.761   3.689   7.923  0.00  0.00    +0.000 A 
ATOM     17  C   UNL     1      45.349   2.715   8.827  0.00  0.00    +0.000 A 
ATOM     18  N   UNL     1      45.721   1.416   8.711  0.00  0.00    +0.000 NA
ENDBRANCH  11  17
ENDBRANCH  10  11
ENDBRANCH   8  10
ENDBRANCH   7   8
ENDBRANCH   1   7
BRANCH   4  19
ATOM     19  C   UNL     1      48.325   6.698  13.225  0.00  0.00    +0.000 C 
BRANCH  19  20
ATOM     20  N   UNL     1      48.622   6.026  14.462  0.00  0.00    +0.000 N 
ATOM     21  C   UNL     1      48.733   6.716  15.641  0.00  0.00    +0.000 C 
ATOM     22  O   UNL     1      48.567   7.931  15.713  0.00  0.00    +0.000 OA
ATOM     23  H   UNL     1      49.063   5.115  14.386  0.00  0.00    +0.000 HD
BRANCH  21  24
ATOM     24  C   UNL     1      48.996   5.905  16.834  0.00  0.00    +0.000 A 
ATOM     25  C   UNL     1      48.083   4.939  17.234  0.00  0.00    +0.000 A 
ATOM     26  S   UNL     1      48.580   4.061  18.610  0.00  0.00    +0.000 S 
ATOM     27  C   UNL     1      50.010   4.972  18.744  0.00  0.00    +0.000 A 
ATOM     28  N   UNL     1      50.895   4.748  19.751  0.00  0.00    +0.000 NA
ATOM     29  C   UNL     1      51.920   5.534  19.746  0.00  0.00    +0.000 A 
ATOM     30  N   UNL     1      52.154   6.512  18.812  0.00  0.00    +0.000 N 
ATOM     31  C   UNL     1      51.306   6.751  17.760  0.00  0.00    +0.000 A 
ATOM     32  O   UNL     1      51.567   7.601  16.916  0.00  0.00    +0.000 OA
ATOM     33  C   UNL     1      50.121   5.914  17.737  0.00  0.00    +0.000 A 
ATOM     34  H   UNL     1      52.983   7.077  18.853  0.00  0.00    +0.000 HD
ENDBRANCH  21  24
ENDBRANCH  19  20
ENDBRANCH   4  19
TORSDOF 8
ENDMDL
MODEL 9
REMARK VINA RESULT:    -6.179      3.384      5.254
REMARK INTER + INTRA:         -10.205
REMARK INTER:                  -8.306
REMARK INTRA:                  -1.900
REMARK UNBOUND:                -1.136
REMARK  Name = 
REMARK  9 active torsions:
REMARK  status: ('A' for Active; 'I' for Inactive)
REMARK    1  A    between atoms: C_1  and  C_2
REMARK    2  A    between atoms: C_6  and  C_7
REMARK    3  A    between atoms: C_7  and  C_8
REMARK    4  A    between atoms: C_8  and  N_9
REMARK    5  A    between atoms: N_9  and  C_10
REMARK    6  A    between atoms: C_10  and  C_11
REMARK    7  A    between atoms: C_14  and  C_15
REMARK    8  A    between atoms: C_15  and  N_16
REMARK    9  A    between atoms: C_17  and  C_19
REMARK                            x       y       z     vdW  Elec       q    Type
REMARK                         _______ _______ _______ _____ _____    ______ ____
ROOT
ATOM      1  C   UNL     1      48.376  10.235  12.176  0.00  0.00    +0.000 A 
ATOM      2  C   UNL     1      48.944  10.807  13.322  0.00  0.00    +0.000 A 
ATOM      3  C   UNL     1      50.017  10.195  13.977  0.00  0.00    +0.000 A 
ATOM      4  C   UNL     1      50.545   8.988  13.491  0.00  0.00    +0.000 A 
ATOM      5  C   UNL     1      49.949   8.396  12.373  0.00  0.00    +0.000 A 
ATOM      6  C   UNL     1      48.884   9.014  11.713  0.00  0.00    +0.000 A 
ENDROOT
BRANCH   1   7
ATOM      7  C   UNL     1      47.216  10.904  11.477  0.00  0.00    +0.000 C 
BRANCH   7   8
ATOM      8  N   UNL     1      45.981  10.828  12.266  0.00  0.00    +0.000 NA
ATOM      9  H   UNL     1      46.226  10.765  13.251  0.00  0.00    +0.000 HD
BRANCH   8  10
ATOM     10  C   UNL     1      45.215   9.631  11.889  0.00  0.00    +0.000 C 
BRANCH  10  11
ATOM     11  C   UNL     1      45.445   8.495  12.891  0.00  0.00    +0.000 C 
BRANCH  11  17
ATOM     12  C   UNL     1      43.454   4.064  13.037  0.00  0.00    +0.000 C 
ATOM     13  C   UNL     1      44.327   5.029  12.296  0.00  0.00    +0.000 A 
ATOM     14  C   UNL     1      44.915   4.679  11.087  0.00  0.00    +0.000 A 
ATOM     15  C   UNL     1      45.716   5.614  10.441  0.00  0.00    +0.000 A 
ATOM     16  C   UNL     1      45.907   6.867  11.016  0.00  0.00    +0.000 A 
ATOM     17  C   UNL     1      45.291   7.146  12.232  0.00  0.00    +0.000 A 
ATOM     18  N   UNL     1      44.504   6.244  12.868  0.00  0.00    +0.000 NA
ENDBRANCH  11  17
ENDBRANCH  10  11
ENDBRANCH   8  10
ENDBRANCH   7   8
ENDBRANCH   1   7
BRANCH   4  19
ATOM     19  C   UNL     1      51.708   8.312  14.166  0.00  0.00    +0.000 C 
BRANCH  19  20
ATOM     20  N   UNL     1      51.268   7.244  15.023  0.00  0.00    +0.000 N 
ATOM     21  C   UNL     1      51.052   7.444  16.362  0.00  0.00    +0.000 C 
ATOM     22  O   UNL     1      51.200   8.540  16.896  0.00  0.00    +0.000 OA
ATOM     23  H   UNL     1      51.441   6.300  14.692  0.00  0.00    +0.000 HD
BRANCH  21  24
ATOM     24  C   UNL     1      50.564   6.282  17.111  0.00  0.00    +0.000 A 
ATOM     25  C   UNL     1      51.309   5.772  18.165  0.00  0.00    +0.000 A 
ATOM     26  S   UNL     1      50.563   4.454  18.951  0.00  0.00    +0.000 S 
ATOM     27  C   UNL     1      49.242   4.492  17.880  0.00  0.00    +0.000 A 
ATOM     28  N   UNL     1      48.229   3.590  17.980  0.00  0.00    +0.000 NA
ATOM     29  C   UNL     1      47.309   3.720  17.082  0.00  0.00    +0.000 A 
ATOM     30  N   UNL     1      47.296   4.683  16.105  0.00  0.00    +0.000 N 
ATOM     31  C   UNL     1      48.278   5.634  15.987  0.00  0.00    +0.000 A 
ATOM     32  O   UNL     1      48.214   6.510  15.132  0.00  0.00    +0.000 OA
ATOM     33  C   UNL     1      49.354   5.513  16.953  0.00  0.00    +0.000 A 
ATOM     34  H   UNL     1      46.538   4.742  15.449  0.00  0.00    +0.000 HD
ENDBRANCH  21  24
ENDBRANCH  19  20
ENDBRANCH   4  19
TORSDOF 8
ENDMDL
