MODEL 1
REMARK VINA RESULT:    -7.653      0.000      0.000
REMARK INTER + INTRA:         -10.559
REMARK INTER:                  -9.890
REMARK INTRA:                  -0.669
REMARK UNBOUND:                -0.669
REMARK  Name = 
REMARK  6 active torsions:
REMARK  status: ('A' for Active; 'I' for Inactive)
REMARK    1  A    between atoms: N_1  and  C_2
REMARK    2  A    between atoms: C_2  and  C_3
REMARK    3  A    between atoms: C_6  and  O_7
REMARK    4  A    between atoms: O_7  and  C_8
REMARK    5  A    between atoms: C_8  and  C_9
REMARK    6  A    between atoms: C_14  and  O_15
REMARK                            x       y       z     vdW  Elec       q    Type
REMARK                         _______ _______ _______ _____ _____    ______ ____
ROOT
ATOM      1  C   UNL     1      46.902   2.405   7.258  0.00  0.00    +0.000 A 
ATOM      2  C   UNL     1      46.357   1.382   8.048  0.00  0.00    +0.000 A 
ATOM      3  C   UNL     1      45.299   1.649   8.922  0.00  0.00    +0.000 A 
ATOM      4  C   UNL     1      44.783   2.941   9.024  0.00  0.00    +0.000 A 
ATOM      5  C   UNL     1      45.274   3.945   8.191  0.00  0.00    +0.000 A 
ATOM      6  C   UNL     1      46.335   3.682   7.322  0.00  0.00    +0.000 A 
ENDROOT
BRANCH   1   7
ATOM      7  C   UNL     1      48.094   2.156   6.371  0.00  0.00    +0.000 C 
BRANCH   7   8
ATOM      8  N   UNL     1      47.994   2.882   5.113  0.00  0.00    +0.000 NA
ATOM      9  H   UNL     1      48.428   2.328   4.378  0.00  0.00    +0.000 HD
ATOM     10  H   UNL     1      48.541   3.739   5.187  0.00  0.00    +0.000 HD
ENDBRANCH   7   8
ENDBRANCH   1   7
BRANCH   4  11
ATOM     11  O   UNL     1      43.810   3.129   9.969  0.00  0.00    +0.000 OA
BRANCH  11  12
ATOM     12  C   UNL     1      43.721   4.471  10.478  0.00  0.00    +0.000 C 
BRANCH  12  13
ATOM     13  C   UNL     1      44.856   4.762  11.429  0.00  0.00    +0.000 A 
ATOM     14  C   UNL     1      45.646   5.912  11.278  0.00  0.00    +0.000 A 
ATOM     15  C   UNL     1      46.686   6.181  12.170  0.00  0.00    +0.000 A 
ATOM     16  C   UNL     1      46.956   5.300  13.214  0.00  0.00    +0.000 A 
ATOM     17  C   UNL     1      46.204   4.134  13.356  0.00  0.00    +0.000 A 
ATOM     18  C   UNL     1      45.173   3.865  12.457  0.00  0.00    +0.000 A 
BRANCH  18  19
ATOM     19  O   UNL     1      44.456   2.706  12.570  0.00  0.00    +0.000 OA
ATOM     20  H   UNL     1      43.704   2.743  11.956  0.00  0.00    +0.000 HD
ENDBRANCH  18  19
ENDBRANCH  12  13
ENDBRANCH  11  12
ENDBRANCH   4  11
TORSDOF 6
ENDMDL
MODEL 2
REMARK VINA RESULT:    -7.439      0.997      1.609
REMARK INTER + INTRA:         -10.283
REMARK INTER:                  -9.496
REMARK INTRA:                  -0.787
REMARK UNBOUND:                -0.669
REMARK  Name = 
REMARK  6 active torsions:
REMARK  status: ('A' for Active; 'I' for Inactive)
REMARK    1  A    between atoms: N_1  and  C_2
REMARK    2  A    between atoms: C_2  and  C_3
REMARK    3  A    between atoms: C_6  and  O_7
REMARK    4  A    between atoms: O_7  and  C_8
REMARK    5  A    between atoms: C_8  and  C_9
REMARK    6  A    between atoms: C_14  and  O_15
REMARK                            x       y       z     vdW  Elec       q    Type
REMARK                         _______ _______ _______ _____ _____    ______ ____
ROOT
ATOM      1  C   UNL     1      47.021   2.363   7.306  0.00  0.00    +0.000 A 
ATOM      2  C   UNL     1      46.372   1.382   8.069  0.00  0.00    +0.000 A 
ATOM      3  C   UNL     1      45.258   1.712   8.847  0.00  0.00    +0.000 A 
ATOM      4  C   UNL     1      44.789   3.025   8.878  0.00  0.00    +0.000 A 
ATOM      5  C   UNL     1      45.387   3.989   8.068  0.00  0.00    +0.000 A 
ATOM      6  C   UNL     1      46.503   3.663   7.295  0.00  0.00    +0.000 A 
ENDROOT
BRANCH   1   7
ATOM      7  C   UNL     1      48.270   2.046   6.525  0.00  0.00    +0.000 C 
BRANCH   7   8
ATOM      8  N   UNL     1      48.203   2.556   5.163  0.00  0.00    +0.000 NA
ATOM      9  H   UNL     1      48.022   3.556   5.194  0.00  0.00    +0.000 HD
ATOM     10  H   UNL     1      47.401   2.133   4.697  0.00  0.00    +0.000 HD
ENDBRANCH   7   8
ENDBRANCH   1   7
BRANCH   4  11
ATOM     11  O   UNL     1      43.750   3.275   9.736  0.00  0.00    +0.000 OA
BRANCH  11  12
ATOM     12  C   UNL     1      44.080   3.144  11.129  0.00  0.00    +0.000 C 
BRANCH  12  13
ATOM     13  C   UNL     1      44.710   4.410  11.653  0.00  0.00    +0.000 A 
ATOM     14  C   UNL     1      45.835   4.363  12.491  0.00  0.00    +0.000 A 
ATOM     15  C   UNL     1      46.421   5.539  12.961  0.00  0.00    +0.000 A 
ATOM     16  C   UNL     1      45.883   6.775  12.611  0.00  0.00    +0.000 A 
ATOM     17  C   UNL     1      44.744   6.840  11.810  0.00  0.00    +0.000 A 
ATOM     18  C   UNL     1      44.157   5.662  11.351  0.00  0.00    +0.000 A 
BRANCH  18  19
ATOM     19  O   UNL     1      43.019   5.718  10.594  0.00  0.00    +0.000 OA
ATOM     20  H   UNL     1      43.104   5.092   9.856  0.00  0.00    +0.000 HD
ENDBRANCH  18  19
ENDBRANCH  12  13
ENDBRANCH  11  12
ENDBRANCH   4  11
TORSDOF 6
ENDMDL
MODEL 3
REMARK VINA RESULT:    -7.099      2.693      5.648
REMARK INTER + INTRA:          -9.843
REMARK INTER:                  -9.251
REMARK INTRA:                  -0.593
REMARK UNBOUND:                -0.669
REMARK  Name = 
REMARK  6 active torsions:
REMARK  status: ('A' for Active; 'I' for Inactive)
REMARK    1  A    between atoms: N_1  and  C_2
REMARK    2  A    between atoms: C_2  and  C_3
REMARK    3  A    between atoms: C_6  and  O_7
REMARK    4  A    between atoms: O_7  and  C_8
REMARK    5  A    between atoms: C_8  and  C_9
REMARK    6  A    between atoms: C_14  and  O_15
REMARK                            x       y       z     vdW  Elec       q    Type
REMARK                         _______ _______ _______ _____ _____    ______ ____
ROOT
ATOM      1  C   UNL     1      46.751   5.588  12.990  0.00  0.00    +0.000 A 
ATOM      2  C   UNL     1      46.287   6.279  11.861  0.00  0.00    +0.000 A 
ATOM      3  C   UNL     1      45.409   5.663  10.965  0.00  0.00    +0.000 A 
ATOM      4  C   UNL     1      44.995   4.349  11.181  0.00  0.00    +0.000 A 
ATOM      5  C   UNL     1      45.397   3.682  12.337  0.00  0.00    +0.000 A 
ATOM      6  C   UNL     1      46.279   4.294  13.230  0.00  0.00    +0.000 A 
ENDROOT
BRANCH   1   7
ATOM      7  C   UNL     1      47.760   6.205  13.924  0.00  0.00    +0.000 C 
BRANCH   7   8
ATOM      8  N   UNL     1      47.828   5.495  15.194  0.00  0.00    +0.000 NA
ATOM      9  H   UNL     1      47.978   6.170  15.940  0.00  0.00    +0.000 HD
ATOM     10  H   UNL     1      48.648   4.890  15.184  0.00  0.00    +0.000 HD
ENDBRANCH   7   8
ENDBRANCH   1   7
BRANCH   4  11
ATOM     11  O   UNL     1      44.207   3.796  10.205  0.00  0.00    +0.000 OA
BRANCH  11  12
ATOM     12  C   UNL     1      44.543   4.198   8.866  0.00  0.00    +0.000 C 
BRANCH  12  13
ATOM     13  C   UNL     1      45.561   3.263   8.263  0.00  0.00    +0.000 A 
ATOM     14  C   UNL     1      46.561   3.743   7.404  0.00  0.00    +0.000 A 
ATOM     15  C   UNL     1      47.508   2.874   6.860  0.00  0.00    +0.000 A 
ATOM     16  C   UNL     1      47.460   1.514   7.158  0.00  0.00    +0.000 A 
ATOM     17  C   UNL     1      46.451   1.014   7.981  0.00  0.00    +0.000 A 
ATOM     18  C   UNL     1      45.502   1.886   8.513  0.00  0.00    +0.000 A 
BRANCH  18  19
ATOM     19  O   UNL     1      44.489   1.396   9.291  0.00  0.00    +0.000 OA
ATOM     20  H   UNL     1      43.928   2.137   9.576  0.00  0.00    +0.000 HD
ENDBRANCH  18  19
ENDBRANCH  12  13
ENDBRANCH  11  12
ENDBRANCH   4  11
TORSDOF 6
ENDMDL
MODEL 4
REMARK VINA RESULT:    -6.695      2.814      5.826
REMARK INTER + INTRA:          -9.321
REMARK INTER:                  -8.766
REMARK INTRA:                  -0.554
REMARK UNBOUND:                -0.669
REMARK  Name = 
REMARK  6 active torsions:
REMARK  status: ('A' for Active; 'I' for Inactive)
REMARK    1  A    between atoms: N_1  and  C_2
REMARK    2  A    between atoms: C_2  and  C_3
REMARK    3  A    between atoms: C_6  and  O_7
REMARK    4  A    between atoms: O_7  and  C_8
REMARK    5  A    between atoms: C_8  and  C_9
REMARK    6  A    between atoms: C_14  and  O_15
REMARK                            x       y       z     vdW  Elec       q    Type
REMARK                         _______ _______ _______ _____ _____    ______ ____
ROOT
ATOM      1  C   UNL     1      46.466   5.069  13.253  0.00  0.00    +0.000 A 
ATOM      2  C   UNL     1      46.039   3.736  13.173  0.00  0.00    +0.000 A 
ATOM      3  C   UNL     1      45.295   3.295  12.074  0.00  0.00    +0.000 A 
ATOM      4  C   UNL     1      44.960   4.184  11.052  0.00  0.00    +0.000 A 
ATOM      5  C   UNL     1      45.441   5.492  11.093  0.00  0.00    +0.000 A 
ATOM      6  C   UNL     1      46.180   5.935  12.192  0.00  0.00    +0.000 A 
ENDROOT
BRANCH   1   7
ATOM      7  C   UNL     1      47.199   5.583  14.465  0.00  0.00    +0.000 C 
BRANCH   7   8
ATOM      8  N   UNL     1      47.739   4.499  15.273  0.00  0.00    +0.000 NA
ATOM      9  H   UNL     1      48.252   3.862  14.668  0.00  0.00    +0.000 HD
ATOM     10  H   UNL     1      46.962   3.965  15.661  0.00  0.00    +0.000 HD
ENDBRANCH   7   8
ENDBRANCH   1   7
BRANCH   4  11
ATOM     11  O   UNL     1      44.154   3.688  10.062  0.00  0.00    +0.000 OA
BRANCH  11  12
ATOM     12  C   UNL     1      44.578   4.014   8.727  0.00  0.00    +0.000 C 
BRANCH  12  13
ATOM     13  C   UNL     1      45.540   2.979   8.200  0.00  0.00    +0.000 A 
ATOM     14  C   UNL     1      45.396   1.624   8.533  0.00  0.00    +0.000 A 
ATOM     15  C   UNL     1      46.282   0.670   8.031  0.00  0.00    +0.000 A 
ATOM     16  C   UNL     1      47.330   1.060   7.201  0.00  0.00    +0.000 A 
ATOM     17  C   UNL     1      47.511   2.408   6.889  0.00  0.00    +0.000 A 
ATOM     18  C   UNL     1      46.628   3.357   7.402  0.00  0.00    +0.000 A 
BRANCH  18  19
ATOM     19  O   UNL     1      46.822   4.683   7.129  0.00  0.00    +0.000 OA
ATOM     20  H   UNL     1      46.087   5.191   7.513  0.00  0.00    +0.000 HD
ENDBRANCH  18  19
ENDBRANCH  12  13
ENDBRANCH  11  12
ENDBRANCH   4  11
TORSDOF 6
ENDMDL
MODEL 5
REMARK VINA RESULT:    -6.511      2.762      5.778
REMARK INTER + INTRA:          -9.083
REMARK INTER:                  -8.737
REMARK INTRA:                  -0.346
REMARK UNBOUND:                -0.669
REMARK  Name = 
REMARK  6 active torsions:
REMARK  status: ('A' for Active; 'I' for Inactive)
REMARK    1  A    between atoms: N_1  and  C_2
REMARK    2  A    between atoms: C_2  and  C_3
REMARK    3  A    between atoms: C_6  and  O_7
REMARK    4  A    between atoms: O_7  and  C_8
REMARK    5  A    between atoms: C_8  and  C_9
REMARK    6  A    between atoms: C_14  and  O_15
REMARK                            x       y       z     vdW  Elec       q    Type
REMARK                         _______ _______ _______ _____ _____    ______ ____
ROOT
ATOM      1  C   UNL     1      45.100   5.577  12.167  0.00  0.00    +0.000 A 
ATOM      2  C   UNL     1      44.173   5.822  11.144  0.00  0.00    +0.000 A 
ATOM      3  C   UNL     1      43.785   4.795  10.279  0.00  0.00    +0.000 A 
ATOM      4  C   UNL     1      44.327   3.517  10.419  0.00  0.00    +0.000 A 
ATOM      5  C   UNL     1      45.196   3.251  11.477  0.00  0.00    +0.000 A 
ATOM      6  C   UNL     1      45.589   4.277  12.339  0.00  0.00    +0.000 A 
ENDROOT
BRANCH   1   7
ATOM      7  C   UNL     1      45.592   6.687  13.059  0.00  0.00    +0.000 C 
BRANCH   7   8
ATOM      8  N   UNL     1      44.984   7.966  12.718  0.00  0.00    +0.000 NA
ATOM      9  H   UNL     1      45.573   8.439  12.037  0.00  0.00    +0.000 HD
ATOM     10  H   UNL     1      44.975   8.554  13.550  0.00  0.00    +0.000 HD
ENDBRANCH   7   8
ENDBRANCH   1   7
BRANCH   4  11
ATOM     11  O   UNL     1      43.959   2.598   9.473  0.00  0.00    +0.000 OA
BRANCH  11  12
ATOM     12  C   UNL     1      44.937   1.575   9.220  0.00  0.00    +0.000 C 
BRANCH  12  13
ATOM     13  C   UNL     1      45.843   1.967   8.080  0.00  0.00    +0.000 A 
ATOM     14  C   UNL     1      45.779   3.250   7.517  0.00  0.00    +0.000 A 
ATOM     15  C   UNL     1      46.631   3.610   6.470  0.00  0.00    +0.000 A 
ATOM     16  C   UNL     1      47.546   2.689   5.967  0.00  0.00    +0.000 A 
ATOM     17  C   UNL     1      47.598   1.397   6.491  0.00  0.00    +0.000 A 
ATOM     18  C   UNL     1      46.738   1.041   7.529  0.00  0.00    +0.000 A 
BRANCH  18  19
ATOM     19  O   UNL     1      46.760  -0.235   8.022  0.00  0.00    +0.000 OA
ATOM     20  H   UNL     1      46.617  -0.855   7.287  0.00  0.00    +0.000 HD
ENDBRANCH  18  19
ENDBRANCH  12  13
ENDBRANCH  11  12
ENDBRANCH   4  11
TORSDOF 6
ENDMDL
MODEL 6
REMARK VINA RESULT:    -5.714      3.071      5.983
REMARK INTER + INTRA:          -8.053
REMARK INTER:                  -7.423
REMARK INTRA:                  -0.631
REMARK UNBOUND:                -0.669
REMARK  Name = 
REMARK  6 active torsions:
REMARK  status: ('A' for Active; 'I' for Inactive)
REMARK    1  A    between atoms: N_1  and  C_2
REMARK    2  A    between atoms: C_2  and  C_3
REMARK    3  A    between atoms: C_6  and  O_7
REMARK    4  A    between atoms: O_7  and  C_8
REMARK    5  A    between atoms: C_8  and  C_9
REMARK    6  A    between atoms: C_14  and  O_15
REMARK                            x       y       z     vdW  Elec       q    Type
REMARK                         _______ _______ _______ _____ _____    ______ ____
ROOT
ATOM      1  C   UNL     1      46.710   8.820  12.169  0.00  0.00    +0.000 A 
ATOM      2  C   UNL     1      45.329   8.628  12.020  0.00  0.00    +0.000 A 
ATOM      3  C   UNL     1      44.807   7.343  11.849  0.00  0.00    +0.000 A 
ATOM      4  C   UNL     1      45.659   6.239  11.814  0.00  0.00    +0.000 A 
ATOM      5  C   UNL     1      47.024   6.417  12.032  0.00  0.00    +0.000 A 
ATOM      6  C   UNL     1      47.548   7.701  12.197  0.00  0.00    +0.000 A 
ENDROOT
BRANCH   1   7
ATOM      7  C   UNL     1      47.300  10.203  12.274  0.00  0.00    +0.000 C 
BRANCH   7   8
ATOM      8  N   UNL     1      48.708  10.165  12.645  0.00  0.00    +0.000 NA
ATOM      9  H   UNL     1      48.871  10.843  13.385  0.00  0.00    +0.000 HD
ATOM     10  H   UNL     1      49.263  10.472  11.846  0.00  0.00    +0.000 HD
ENDBRANCH   7   8
ENDBRANCH   1   7
BRANCH   4  11
ATOM     11  O   UNL     1      45.070   5.030  11.553  0.00  0.00    +0.000 OA
BRANCH  11  12
ATOM     12  C   UNL     1      44.391   4.956  10.288  0.00  0.00    +0.000 C 
BRANCH  12  13
ATOM     13  C   UNL     1      45.124   4.043   9.337  0.00  0.00    +0.000 A 
ATOM     14  C   UNL     1      45.893   4.564   8.286  0.00  0.00    +0.000 A 
ATOM     15  C   UNL     1      46.579   3.713   7.417  0.00  0.00    +0.000 A 
ATOM     16  C   UNL     1      46.494   2.332   7.581  0.00  0.00    +0.000 A 
ATOM     17  C   UNL     1      45.704   1.796   8.598  0.00  0.00    +0.000 A 
ATOM     18  C   UNL     1      45.014   2.651   9.456  0.00  0.00    +0.000 A 
BRANCH  18  19
ATOM     19  O   UNL     1      44.209   2.131  10.432  0.00  0.00    +0.000 OA
ATOM     20  H   UNL     1      43.853   1.281  10.122  0.00  0.00    +0.000 HD
ENDBRANCH  18  19
ENDBRANCH  12  13
ENDBRANCH  11  12
ENDBRANCH   4  11
TORSDOF 6
ENDMDL
MODEL 7
REMARK VINA RESULT:    -5.482      5.076      8.012
REMARK INTER + INTRA:          -7.754
REMARK INTER:                  -7.221
REMARK INTRA:                  -0.533
REMARK UNBOUND:                -0.669
REMARK  Name = 
REMARK  6 active torsions:
REMARK  status: ('A' for Active; 'I' for Inactive)
REMARK    1  A    between atoms: N_1  and  C_2
REMARK    2  A    between atoms: C_2  and  C_3
REMARK    3  A    between atoms: C_6  and  O_7
REMARK    4  A    between atoms: O_7  and  C_8
REMARK    5  A    between atoms: C_8  and  C_9
REMARK    6  A    between atoms: C_14  and  O_15
REMARK                            x       y       z     vdW  Elec       q    Type
REMARK                         _______ _______ _______ _____ _____    ______ ____
ROOT
ATOM      1  C   UNL     1      48.748   4.463  18.491  0.00  0.00    +0.000 A 
ATOM      2  C   UNL     1      48.122   3.256  18.146  0.00  0.00    +0.000 A 
ATOM      3  C   UNL     1      47.471   3.123  16.916  0.00  0.00    +0.000 A 
ATOM      4  C   UNL     1      47.428   4.196  16.025  0.00  0.00    +0.000 A 
ATOM      5  C   UNL     1      48.108   5.373  16.333  0.00  0.00    +0.000 A 
ATOM      6  C   UNL     1      48.754   5.510  17.564  0.00  0.00    +0.000 A 
ENDROOT
BRANCH   1   7
ATOM      7  C   UNL     1      49.385   4.653  19.843  0.00  0.00    +0.000 C 
BRANCH   7   8
ATOM      8  N   UNL     1      48.612   4.018  20.901  0.00  0.00    +0.000 NA
ATOM      9  H   UNL     1      47.850   4.637  21.168  0.00  0.00    +0.000 HD
ATOM     10  H   UNL     1      49.205   3.921  21.724  0.00  0.00    +0.000 HD
ENDBRANCH   7   8
ENDBRANCH   1   7
BRANCH   4  11
ATOM     11  O   UNL     1      46.692   4.005  14.885  0.00  0.00    +0.000 OA
BRANCH  11  12
ATOM     12  C   UNL     1      47.070   4.846  13.782  0.00  0.00    +0.000 C 
BRANCH  12  13
ATOM     13  C   UNL     1      45.921   5.021  12.821  0.00  0.00    +0.000 A 
ATOM     14  C   UNL     1      45.493   6.300  12.435  0.00  0.00    +0.000 A 
ATOM     15  C   UNL     1      44.437   6.455  11.534  0.00  0.00    +0.000 A 
ATOM     16  C   UNL     1      43.789   5.334  11.020  0.00  0.00    +0.000 A 
ATOM     17  C   UNL     1      44.177   4.056  11.422  0.00  0.00    +0.000 A 
ATOM     18  C   UNL     1      45.226   3.909  12.329  0.00  0.00    +0.000 A 
BRANCH  18  19
ATOM     19  O   UNL     1      45.587   2.660  12.754  0.00  0.00    +0.000 OA
ATOM     20  H   UNL     1      46.165   2.750  13.529  0.00  0.00    +0.000 HD
ENDBRANCH  18  19
ENDBRANCH  12  13
ENDBRANCH  11  12
ENDBRANCH   4  11
TORSDOF 6
ENDMDL
MODEL 8
REMARK VINA RESULT:    -5.347      3.412      6.329
REMARK INTER + INTRA:          -7.578
REMARK INTER:                  -6.935
REMARK INTRA:                  -0.643
REMARK UNBOUND:                -0.669
REMARK  Name = 
REMARK  6 active torsions:
REMARK  status: ('A' for Active; 'I' for Inactive)
REMARK    1  A    between atoms: N_1  and  C_2
REMARK    2  A    between atoms: C_2  and  C_3
REMARK    3  A    between atoms: C_6  and  O_7
REMARK    4  A    between atoms: O_7  and  C_8
REMARK    5  A    between atoms: C_8  and  C_9
REMARK    6  A    between atoms: C_14  and  O_15
REMARK                            x       y       z     vdW  Elec       q    Type
REMARK                         _______ _______ _______ _____ _____    ______ ____
ROOT
ATOM      1  C   UNL     1      48.523   6.272  15.164  0.00  0.00    +0.000 A 
ATOM      2  C   UNL     1      47.970   5.140  15.782  0.00  0.00    +0.000 A 
ATOM      3  C   UNL     1      46.981   4.393  15.136  0.00  0.00    +0.000 A 
ATOM      4  C   UNL     1      46.526   4.774  13.873  0.00  0.00    +0.000 A 
ATOM      5  C   UNL     1      47.121   5.855  13.225  0.00  0.00    +0.000 A 
ATOM      6  C   UNL     1      48.106   6.607  13.871  0.00  0.00    +0.000 A 
ENDROOT
BRANCH   1   7
ATOM      7  C   UNL     1      49.530   7.136  15.875  0.00  0.00    +0.000 C 
BRANCH   7   8
ATOM      8  N   UNL     1      49.308   8.552  15.618  0.00  0.00    +0.000 NA
ATOM      9  H   UNL     1      49.954   8.861  14.896  0.00  0.00    +0.000 HD
ATOM     10  H   UNL     1      49.545   9.077  16.460  0.00  0.00    +0.000 HD
ENDBRANCH   7   8
ENDBRANCH   1   7
BRANCH   4  11
ATOM     11  O   UNL     1      45.494   4.037  13.355  0.00  0.00    +0.000 OA
BRANCH  11  12
ATOM     12  C   UNL     1      44.644   4.756  12.445  0.00  0.00    +0.000 C 
BRANCH  12  13
ATOM     13  C   UNL     1      44.789   4.224  11.041  0.00  0.00    +0.000 A 
ATOM     14  C   UNL     1      45.321   5.024  10.018  0.00  0.00    +0.000 A 
ATOM     15  C   UNL     1      45.465   4.521   8.724  0.00  0.00    +0.000 A 
ATOM     16  C   UNL     1      45.067   3.218   8.434  0.00  0.00    +0.000 A 
ATOM     17  C   UNL     1      44.502   2.422   9.429  0.00  0.00    +0.000 A 
ATOM     18  C   UNL     1      44.352   2.933  10.717  0.00  0.00    +0.000 A 
BRANCH  18  19
ATOM     19  O   UNL     1      43.766   2.168  11.688  0.00  0.00    +0.000 OA
ATOM     20  H   UNL     1      42.930   1.813  11.343  0.00  0.00    +0.000 HD
ENDBRANCH  18  19
ENDBRANCH  12  13
ENDBRANCH  11  12
ENDBRANCH   4  11
TORSDOF 6
ENDMDL
MODEL 9
REMARK VINA RESULT:    -5.275      3.366      5.805
REMARK INTER + INTRA:          -7.485
REMARK INTER:                  -6.747
REMARK INTRA:                  -0.738
REMARK UNBOUND:                -0.669
REMARK  Name = 
REMARK  6 active torsions:
REMARK  status: ('A' for Active; 'I' for Inactive)
REMARK    1  A    between atoms: N_1  and  C_2
REMARK    2  A    between atoms: C_2  and  C_3
REMARK    3  A    between atoms: C_6  and  O_7
REMARK    4  A    between atoms: O_7  and  C_8
REMARK    5  A    between atoms: C_8  and  C_9
REMARK    6  A    between atoms: C_14  and  O_15
REMARK                            x       y       z     vdW  Elec       q    Type
REMARK                         _______ _______ _______ _____ _____    ______ ____
ROOT
ATOM      1  C   UNL     1      49.466   8.081  12.202  0.00  0.00    +0.000 A 
ATOM      2  C   UNL     1      48.482   9.031  11.893  0.00  0.00    +0.000 A 
ATOM      3  C   UNL     1      47.137   8.778  12.180  0.00  0.00    +0.000 A 
ATOM      4  C   UNL     1      46.761   7.569  12.768  0.00  0.00    +0.000 A 
ATOM      5  C   UNL     1      47.742   6.652  13.142  0.00  0.00    +0.000 A 
ATOM      6  C   UNL     1      49.085   6.901  12.850  0.00  0.00    +0.000 A 
ENDROOT
BRANCH   1   7
ATOM      7  C   UNL     1      50.909   8.300  11.828  0.00  0.00    +0.000 C 
BRANCH   7   8
ATOM      8  N   UNL     1      51.394   7.276  10.914  0.00  0.00    +0.000 NA
ATOM      9  H   UNL     1      52.344   7.508  10.634  0.00  0.00    +0.000 HD
ATOM     10  H   UNL     1      50.829   7.304  10.065  0.00  0.00    +0.000 HD
ENDBRANCH   7   8
ENDBRANCH   1   7
BRANCH   4  11
ATOM     11  O   UNL     1      45.416   7.370  12.931  0.00  0.00    +0.000 OA
BRANCH  11  12
ATOM     12  C   UNL     1      44.687   7.183  11.706  0.00  0.00    +0.000 C 
BRANCH  12  13
ATOM     13  C   UNL     1      44.425   5.719  11.453  0.00  0.00    +0.000 A 
ATOM     14  C   UNL     1      45.019   5.058  10.368  0.00  0.00    +0.000 A 
ATOM     15  C   UNL     1      44.783   3.700  10.147  0.00  0.00    +0.000 A 
ATOM     16  C   UNL     1      43.942   2.990  11.001  0.00  0.00    +0.000 A 
ATOM     17  C   UNL     1      43.314   3.641  12.064  0.00  0.00    +0.000 A 
ATOM     18  C   UNL     1      43.546   4.999  12.272  0.00  0.00    +0.000 A 
BRANCH  18  19
ATOM     19  O   UNL     1      42.906   5.650  13.291  0.00  0.00    +0.000 OA
ATOM     20  H   UNL     1      43.432   5.553  14.102  0.00  0.00    +0.000 HD
ENDBRANCH  18  19
ENDBRANCH  12  13
ENDBRANCH  11  12
ENDBRANCH   4  11
TORSDOF 6
ENDMDL
