MODEL 1
REMARK VINA RESULT:    -9.012      0.000      0.000
REMARK INTER + INTRA:         -12.892
REMARK INTER:                 -11.910
REMARK INTRA:                  -0.982
REMARK UNBOUND:                -0.982
REMARK  Name = 
REMARK  6 active torsions:
REMARK  status: ('A' for Active; 'I' for Inactive)
REMARK    1  A    between atoms: C_2  and  O_3
REMARK    2  A    between atoms: C_2  and  C_4
REMARK    3  A    between atoms: C_7  and  N_8
REMARK    4  A    between atoms: N_8  and  C_9
REMARK    5  A    between atoms: C_9  and  C_10
REMARK    6  A    between atoms: C_14  and  C_15
REMARK                            x       y       z     vdW  Elec       q    Type
REMARK                         _______ _______ _______ _____ _____    ______ ____
ROOT
ATOM      1  C   UNL     1      43.813   4.876  11.323  0.00  0.00    +0.000 C 
ENDROOT
BRANCH   1   2
ATOM      2  C   UNL     1      45.134   5.365  11.862  0.00  0.00    +0.000 A 
ATOM      3  C   UNL     1      45.764   6.477  11.292  0.00  0.00    +0.000 A 
ATOM      4  C   UNL     1      46.987   6.919  11.785  0.00  0.00    +0.000 A 
ATOM      5  C   UNL     1      47.567   6.281  12.882  0.00  0.00    +0.000 A 
ATOM      6  C   UNL     1      46.932   5.203  13.525  0.00  0.00    +0.000 A 
ATOM      7  C   UNL     1      45.727   4.736  12.971  0.00  0.00    +0.000 A 
BRANCH   6   8
ATOM      8  C   UNL     1      47.471   4.624  14.774  0.00  0.00    +0.000 A 
ATOM      9  C   UNL     1      47.861   5.430  15.847  0.00  0.00    +0.000 A 
ATOM     10  C   UNL     1      48.311   4.840  17.022  0.00  0.00    +0.000 A 
ATOM     11  C   UNL     1      48.362   3.457  17.109  0.00  0.00    +0.000 A 
ATOM     12  C   UNL     1      47.956   2.720  16.009  0.00  0.00    +0.000 A 
ATOM     13  N   UNL     1      47.509   3.269  14.855  0.00  0.00    +0.000 NA
ENDBRANCH   6   8
ENDBRANCH   1   2
BRANCH   1  14
ATOM     14  N   UNL     1      43.853   4.856   9.868  0.00  0.00    +0.000 N 
ATOM     15  H   UNL     1      42.944   5.016   9.440  0.00  0.00    +0.000 HD
BRANCH  14  19
ATOM     16  C   UNL     1      46.305   2.030   7.918  0.00  0.00    +0.000 A 
ATOM     17  C   UNL     1      45.352   1.594   8.838  0.00  0.00    +0.000 A 
ATOM     18  C   UNL     1      44.527   2.517   9.487  0.00  0.00    +0.000 A 
ATOM     19  C   UNL     1      44.600   3.882   9.200  0.00  0.00    +0.000 A 
ATOM     20  C   UNL     1      45.563   4.306   8.270  0.00  0.00    +0.000 A 
ATOM     21  C   UNL     1      46.405   3.392   7.623  0.00  0.00    +0.000 A 
BRANCH  16  23
ATOM     22  O   UNL     1      47.932   1.274   6.358  0.00  0.00    +0.000 OA
ATOM     23  C   UNL     1      47.160   1.011   7.264  0.00  0.00    +0.000 C 
BRANCH  23  24
ATOM     24  O   UNL     1      46.959  -0.241   7.727  0.00  0.00    +0.000 OA
ATOM     25  H   UNL     1      47.730  -0.831   7.653  0.00  0.00    +0.000 HD
ENDBRANCH  23  24
ENDBRANCH  16  23
ENDBRANCH  14  19
ENDBRANCH   1  14
TORSDOF 6
ENDMDL
MODEL 2
REMARK VINA RESULT:    -8.891      2.025      3.583
REMARK INTER + INTRA:         -12.732
REMARK INTER:                 -11.675
REMARK INTRA:                  -1.057
REMARK UNBOUND:                -0.982
REMARK  Name = 
REMARK  6 active torsions:
REMARK  status: ('A' for Active; 'I' for Inactive)
REMARK    1  A    between atoms: C_2  and  O_3
REMARK    2  A    between atoms: C_2  and  C_4
REMARK    3  A    between atoms: C_7  and  N_8
REMARK    4  A    between atoms: N_8  and  C_9
REMARK    5  A    between atoms: C_9  and  C_10
REMARK    6  A    between atoms: C_14  and  C_15
REMARK                            x       y       z     vdW  Elec       q    Type
REMARK                         _______ _______ _______ _____ _____    ______ ____
ROOT
ATOM      1  C   UNL     1      43.524   4.729  11.200  0.00  0.00    +0.000 C 
ENDROOT
BRANCH   1   2
ATOM      2  C   UNL     1      44.794   5.004  11.967  0.00  0.00    +0.000 A 
ATOM      3  C   UNL     1      45.352   4.018  12.789  0.00  0.00    +0.000 A 
ATOM      4  C   UNL     1      46.517   4.278  13.503  0.00  0.00    +0.000 A 
ATOM      5  C   UNL     1      47.158   5.509  13.362  0.00  0.00    +0.000 A 
ATOM      6  C   UNL     1      46.666   6.500  12.494  0.00  0.00    +0.000 A 
ATOM      7  C   UNL     1      45.455   6.237  11.830  0.00  0.00    +0.000 A 
BRANCH   6   8
ATOM      8  C   UNL     1      47.423   7.742  12.233  0.00  0.00    +0.000 A 
ATOM      9  C   UNL     1      48.740   7.713  11.767  0.00  0.00    +0.000 A 
ATOM     10  C   UNL     1      49.395   8.906  11.483  0.00  0.00    +0.000 A 
ATOM     11  C   UNL     1      48.725  10.106  11.665  0.00  0.00    +0.000 A 
ATOM     12  C   UNL     1      47.420  10.060  12.124  0.00  0.00    +0.000 A 
ATOM     13  N   UNL     1      46.757   8.914  12.404  0.00  0.00    +0.000 NA
ENDBRANCH   6   8
ENDBRANCH   1   2
BRANCH   1  14
ATOM     14  N   UNL     1      43.779   4.833   9.771  0.00  0.00    +0.000 N 
ATOM     15  H   UNL     1      42.956   5.097   9.235  0.00  0.00    +0.000 HD
BRANCH  14  19
ATOM     16  C   UNL     1      46.318   2.035   7.894  0.00  0.00    +0.000 A 
ATOM     17  C   UNL     1      45.345   1.588   8.788  0.00  0.00    +0.000 A 
ATOM     18  C   UNL     1      44.491   2.502   9.411  0.00  0.00    +0.000 A 
ATOM     19  C   UNL     1      44.556   3.868   9.126  0.00  0.00    +0.000 A 
ATOM     20  C   UNL     1      45.540   4.303   8.223  0.00  0.00    +0.000 A 
ATOM     21  C   UNL     1      46.411   3.398   7.601  0.00  0.00    +0.000 A 
BRANCH  16  23
ATOM     22  O   UNL     1      48.017   1.302   6.400  0.00  0.00    +0.000 OA
ATOM     23  C   UNL     1      47.204   1.026   7.266  0.00  0.00    +0.000 C 
BRANCH  23  24
ATOM     24  O   UNL     1      46.983  -0.233   7.702  0.00  0.00    +0.000 OA
ATOM     25  H   UNL     1      46.157  -0.350   8.204  0.00  0.00    +0.000 HD
ENDBRANCH  23  24
ENDBRANCH  16  23
ENDBRANCH  14  19
ENDBRANCH   1  14
TORSDOF 6
ENDMDL
MODEL 3
REMARK VINA RESULT:    -8.552      0.423      1.253
REMARK INTER + INTRA:         -12.285
REMARK INTER:                 -11.354
REMARK INTRA:                  -0.930
REMARK UNBOUND:                -0.982
REMARK  Name = 
REMARK  6 active torsions:
REMARK  status: ('A' for Active; 'I' for Inactive)
REMARK    1  A    between atoms: C_2  and  O_3
REMARK    2  A    between atoms: C_2  and  C_4
REMARK    3  A    between atoms: C_7  and  N_8
REMARK    4  A    between atoms: N_8  and  C_9
REMARK    5  A    between atoms: C_9  and  C_10
REMARK    6  A    between atoms: C_14  and  C_15
REMARK                            x       y       z     vdW  Elec       q    Type
REMARK                         _______ _______ _______ _____ _____    ______ ____
ROOT
ATOM      1  C   UNL     1      43.794   4.798  11.409  0.00  0.00    +0.000 C 
ENDROOT
BRANCH   1   2
ATOM      2  C   UNL     1      45.061   5.436  11.923  0.00  0.00    +0.000 A 
ATOM      3  C   UNL     1      45.566   6.593  11.320  0.00  0.00    +0.000 A 
ATOM      4  C   UNL     1      46.741   7.173  11.790  0.00  0.00    +0.000 A 
ATOM      5  C   UNL     1      47.393   6.625  12.895  0.00  0.00    +0.000 A 
ATOM      6  C   UNL     1      46.880   5.503  13.570  0.00  0.00    +0.000 A 
ATOM      7  C   UNL     1      45.726   4.899  13.040  0.00  0.00    +0.000 A 
BRANCH   6   8
ATOM      8  C   UNL     1      47.486   5.013  14.826  0.00  0.00    +0.000 A 
ATOM      9  C   UNL     1      48.272   5.842  15.631  0.00  0.00    +0.000 A 
ATOM     10  C   UNL     1      48.777   5.356  16.831  0.00  0.00    +0.000 A 
ATOM     11  C   UNL     1      48.489   4.054  17.209  0.00  0.00    +0.000 A 
ATOM     12  C   UNL     1      47.700   3.290  16.365  0.00  0.00    +0.000 A 
ATOM     13  N   UNL     1      47.191   3.740  15.194  0.00  0.00    +0.000 NA
ENDBRANCH   6   8
ENDBRANCH   1   2
BRANCH   1  14
ATOM     14  N   UNL     1      43.814   4.768   9.954  0.00  0.00    +0.000 N 
ATOM     15  H   UNL     1      42.884   4.777   9.540  0.00  0.00    +0.000 HD
BRANCH  14  19
ATOM     16  C   UNL     1      46.290   2.077   7.851  0.00  0.00    +0.000 A 
ATOM     17  C   UNL     1      46.402   3.446   7.609  0.00  0.00    +0.000 A 
ATOM     18  C   UNL     1      45.595   4.351   8.303  0.00  0.00    +0.000 A 
ATOM     19  C   UNL     1      44.696   3.919   9.282  0.00  0.00    +0.000 A 
ATOM     20  C   UNL     1      44.595   2.538   9.515  0.00  0.00    +0.000 A 
ATOM     21  C   UNL     1      45.390   1.619   8.816  0.00  0.00    +0.000 A 
BRANCH  16  23
ATOM     22  O   UNL     1      46.911  -0.022   6.923  0.00  0.00    +0.000 OA
ATOM     23  C   UNL     1      47.164   1.160   7.082  0.00  0.00    +0.000 C 
BRANCH  23  24
ATOM     24  O   UNL     1      48.292   1.745   6.625  0.00  0.00    +0.000 OA
ATOM     25  H   UNL     1      48.995   1.123   6.362  0.00  0.00    +0.000 HD
ENDBRANCH  23  24
ENDBRANCH  16  23
ENDBRANCH  14  19
ENDBRANCH   1  14
TORSDOF 6
ENDMDL
MODEL 4
REMARK VINA RESULT:    -8.078      2.099      4.256
REMARK INTER + INTRA:         -11.658
REMARK INTER:                 -10.678
REMARK INTRA:                  -0.980
REMARK UNBOUND:                -0.982
REMARK  Name = 
REMARK  6 active torsions:
REMARK  status: ('A' for Active; 'I' for Inactive)
REMARK    1  A    between atoms: C_2  and  O_3
REMARK    2  A    between atoms: C_2  and  C_4
REMARK    3  A    between atoms: C_7  and  N_8
REMARK    4  A    between atoms: N_8  and  C_9
REMARK    5  A    between atoms: C_9  and  C_10
REMARK    6  A    between atoms: C_14  and  C_15
REMARK                            x       y       z     vdW  Elec       q    Type
REMARK                         _______ _______ _______ _____ _____    ______ ____
ROOT
ATOM      1  C   UNL     1      44.209   3.252  11.825  0.00  0.00    +0.000 C 
ENDROOT
BRANCH   1   2
ATOM      2  C   UNL     1      45.154   4.292  12.374  0.00  0.00    +0.000 A 
ATOM      3  C   UNL     1      46.265   3.909  13.134  0.00  0.00    +0.000 A 
ATOM      4  C   UNL     1      47.128   4.871  13.648  0.00  0.00    +0.000 A 
ATOM      5  C   UNL     1      46.914   6.220  13.365  0.00  0.00    +0.000 A 
ATOM      6  C   UNL     1      45.848   6.640  12.548  0.00  0.00    +0.000 A 
ATOM      7  C   UNL     1      44.955   5.655  12.092  0.00  0.00    +0.000 A 
BRANCH   6   8
ATOM      8  C   UNL     1      45.708   8.050  12.128  0.00  0.00    +0.000 A 
ATOM      9  C   UNL     1      44.568   8.505  11.459  0.00  0.00    +0.000 A 
ATOM     10  C   UNL     1      44.455   9.851  11.131  0.00  0.00    +0.000 A 
ATOM     11  C   UNL     1      45.478  10.720  11.476  0.00  0.00    +0.000 A 
ATOM     12  C   UNL     1      46.576  10.202  12.141  0.00  0.00    +0.000 A 
ATOM     13  N   UNL     1      46.710   8.897  12.478  0.00  0.00    +0.000 NA
ENDBRANCH   6   8
ENDBRANCH   1   2
BRANCH   1  14
ATOM     14  N   UNL     1      43.903   3.551  10.434  0.00  0.00    +0.000 N 
ATOM     15  H   UNL     1      42.963   3.273  10.161  0.00  0.00    +0.000 HD
BRANCH  14  19
ATOM     16  C   UNL     1      46.612   2.637   7.331  0.00  0.00    +0.000 A 
ATOM     17  C   UNL     1      46.252   3.965   7.560  0.00  0.00    +0.000 A 
ATOM     18  C   UNL     1      45.362   4.285   8.589  0.00  0.00    +0.000 A 
ATOM     19  C   UNL     1      44.850   3.300   9.438  0.00  0.00    +0.000 A 
ATOM     20  C   UNL     1      45.222   1.968   9.197  0.00  0.00    +0.000 A 
ATOM     21  C   UNL     1      46.104   1.633   8.160  0.00  0.00    +0.000 A 
BRANCH  16  23
ATOM     22  O   UNL     1      48.448   1.528   6.306  0.00  0.00    +0.000 OA
ATOM     23  C   UNL     1      47.553   2.351   6.222  0.00  0.00    +0.000 C 
BRANCH  23  24
ATOM     24  O   UNL     1      47.359   3.128   5.136  0.00  0.00    +0.000 OA
ATOM     25  H   UNL     1      46.684   3.822   5.247  0.00  0.00    +0.000 HD
ENDBRANCH  23  24
ENDBRANCH  16  23
ENDBRANCH  14  19
ENDBRANCH   1  14
TORSDOF 6
ENDMDL
MODEL 5
REMARK VINA RESULT:    -7.875      1.831      3.366
REMARK INTER + INTRA:         -11.390
REMARK INTER:                 -10.396
REMARK INTRA:                  -0.994
REMARK UNBOUND:                -0.982
REMARK  Name = 
REMARK  6 active torsions:
REMARK  status: ('A' for Active; 'I' for Inactive)
REMARK    1  A    between atoms: C_2  and  O_3
REMARK    2  A    between atoms: C_2  and  C_4
REMARK    3  A    between atoms: C_7  and  N_8
REMARK    4  A    between atoms: N_8  and  C_9
REMARK    5  A    between atoms: C_9  and  C_10
REMARK    6  A    between atoms: C_14  and  C_15
REMARK                            x       y       z     vdW  Elec       q    Type
REMARK                         _______ _______ _______ _____ _____    ______ ____
ROOT
ATOM      1  C   UNL     1      44.096   5.672  10.981  0.00  0.00    +0.000 C 
ENDROOT
BRANCH   1   2
ATOM      2  C   UNL     1      45.180   5.535  12.021  0.00  0.00    +0.000 A 
ATOM      3  C   UNL     1      45.094   4.546  13.007  0.00  0.00    +0.000 A 
ATOM      4  C   UNL     1      46.090   4.429  13.971  0.00  0.00    +0.000 A 
ATOM      5  C   UNL     1      47.202   5.270  13.928  0.00  0.00    +0.000 A 
ATOM      6  C   UNL     1      47.358   6.232  12.913  0.00  0.00    +0.000 A 
ATOM      7  C   UNL     1      46.310   6.371  11.986  0.00  0.00    +0.000 A 
BRANCH   6   8
ATOM      8  C   UNL     1      48.601   7.019  12.780  0.00  0.00    +0.000 A 
ATOM      9  C   UNL     1      48.897   7.730  11.614  0.00  0.00    +0.000 A 
ATOM     10  C   UNL     1      50.052   8.502  11.553  0.00  0.00    +0.000 A 
ATOM     11  C   UNL     1      50.890   8.553  12.656  0.00  0.00    +0.000 A 
ATOM     12  C   UNL     1      50.533   7.828  13.780  0.00  0.00    +0.000 A 
ATOM     13  N   UNL     1      49.412   7.073  13.868  0.00  0.00    +0.000 NA
ENDBRANCH   6   8
ENDBRANCH   1   2
BRANCH   1  14
ATOM     14  N   UNL     1      43.867   4.387  10.337  0.00  0.00    +0.000 N 
ATOM     15  H   UNL     1      43.511   3.677  10.974  0.00  0.00    +0.000 HD
BRANCH  14  19
ATOM     16  C   UNL     1      46.523   2.708   7.523  0.00  0.00    +0.000 A 
ATOM     17  C   UNL     1      46.346   4.091   7.560  0.00  0.00    +0.000 A 
ATOM     18  C   UNL     1      45.475   4.663   8.492  0.00  0.00    +0.000 A 
ATOM     19  C   UNL     1      44.802   3.879   9.433  0.00  0.00    +0.000 A 
ATOM     20  C   UNL     1      44.992   2.489   9.384  0.00  0.00    +0.000 A 
ATOM     21  C   UNL     1      45.852   1.902   8.446  0.00  0.00    +0.000 A 
BRANCH  16  23
ATOM     22  O   UNL     1      48.090   1.127   6.686  0.00  0.00    +0.000 OA
ATOM     23  C   UNL     1      47.452   2.151   6.510  0.00  0.00    +0.000 C 
BRANCH  23  24
ATOM     24  O   UNL     1      47.566   2.916   5.404  0.00  0.00    +0.000 OA
ATOM     25  H   UNL     1      47.535   2.423   4.564  0.00  0.00    +0.000 HD
ENDBRANCH  23  24
ENDBRANCH  16  23
ENDBRANCH  14  19
ENDBRANCH   1  14
TORSDOF 6
ENDMDL
MODEL 6
REMARK VINA RESULT:    -7.787      3.463      7.015
REMARK INTER + INTRA:         -11.272
REMARK INTER:                 -10.274
REMARK INTRA:                  -0.998
REMARK UNBOUND:                -0.982
REMARK  Name = 
REMARK  6 active torsions:
REMARK  status: ('A' for Active; 'I' for Inactive)
REMARK    1  A    between atoms: C_2  and  O_3
REMARK    2  A    between atoms: C_2  and  C_4
REMARK    3  A    between atoms: C_7  and  N_8
REMARK    4  A    between atoms: N_8  and  C_9
REMARK    5  A    between atoms: C_9  and  C_10
REMARK    6  A    between atoms: C_14  and  C_15
REMARK                            x       y       z     vdW  Elec       q    Type
REMARK                         _______ _______ _______ _____ _____    ______ ____
ROOT
ATOM      1  C   UNL     1      43.366   6.298  11.007  0.00  0.00    +0.000 C 
ENDROOT
BRANCH   1   2
ATOM      2  C   UNL     1      43.677   4.837  10.797  0.00  0.00    +0.000 A 
ATOM      3  C   UNL     1      43.054   3.860  11.582  0.00  0.00    +0.000 A 
ATOM      4  C   UNL     1      43.351   2.514  11.394  0.00  0.00    +0.000 A 
ATOM      5  C   UNL     1      44.237   2.132  10.386  0.00  0.00    +0.000 A 
ATOM      6  C   UNL     1      44.831   3.078   9.531  0.00  0.00    +0.000 A 
ATOM      7  C   UNL     1      44.563   4.436   9.781  0.00  0.00    +0.000 A 
BRANCH   6   8
ATOM      8  C   UNL     1      45.650   2.665   8.373  0.00  0.00    +0.000 A 
ATOM      9  C   UNL     1      45.959   3.554   7.339  0.00  0.00    +0.000 A 
ATOM     10  C   UNL     1      46.778   3.137   6.297  0.00  0.00    +0.000 A 
ATOM     11  C   UNL     1      47.278   1.844   6.304  0.00  0.00    +0.000 A 
ATOM     12  C   UNL     1      46.936   1.019   7.361  0.00  0.00    +0.000 A 
ATOM     13  N   UNL     1      46.144   1.400   8.392  0.00  0.00    +0.000 NA
ENDBRANCH   6   8
ENDBRANCH   1   2
BRANCH   1  14
ATOM     14  N   UNL     1      43.797   6.706  12.336  0.00  0.00    +0.000 N 
ATOM     15  H   UNL     1      43.232   7.457  12.727  0.00  0.00    +0.000 HD
BRANCH  14  19
ATOM     16  C   UNL     1      47.944   6.938  13.075  0.00  0.00    +0.000 A 
ATOM     17  C   UNL     1      47.291   8.017  12.479  0.00  0.00    +0.000 A 
ATOM     18  C   UNL     1      45.916   7.958  12.235  0.00  0.00    +0.000 A 
ATOM     19  C   UNL     1      45.157   6.850  12.619  0.00  0.00    +0.000 A 
ATOM     20  C   UNL     1      45.828   5.772  13.219  0.00  0.00    +0.000 A 
ATOM     21  C   UNL     1      47.208   5.813  13.457  0.00  0.00    +0.000 A 
BRANCH  16  23
ATOM     22  O   UNL     1      49.902   7.057  14.417  0.00  0.00    +0.000 OA
ATOM     23  C   UNL     1      49.404   7.047  13.304  0.00  0.00    +0.000 C 
BRANCH  23  24
ATOM     24  O   UNL     1      50.120   7.192  12.169  0.00  0.00    +0.000 OA
ATOM     25  H   UNL     1      50.591   8.042  12.091  0.00  0.00    +0.000 HD
ENDBRANCH  23  24
ENDBRANCH  16  23
ENDBRANCH  14  19
ENDBRANCH   1  14
TORSDOF 6
ENDMDL
MODEL 7
REMARK VINA RESULT:    -7.027      3.651      7.484
REMARK INTER + INTRA:         -10.269
REMARK INTER:                  -9.669
REMARK INTRA:                  -0.600
REMARK UNBOUND:                -0.982
REMARK  Name = 
REMARK  6 active torsions:
REMARK  status: ('A' for Active; 'I' for Inactive)
REMARK    1  A    between atoms: C_2  and  O_3
REMARK    2  A    between atoms: C_2  and  C_4
REMARK    3  A    between atoms: C_7  and  N_8
REMARK    4  A    between atoms: N_8  and  C_9
REMARK    5  A    between atoms: C_9  and  C_10
REMARK    6  A    between atoms: C_14  and  C_15
REMARK                            x       y       z     vdW  Elec       q    Type
REMARK                         _______ _______ _______ _____ _____    ______ ____
ROOT
ATOM      1  C   UNL     1      44.927   6.465  11.695  0.00  0.00    +0.000 C 
ENDROOT
BRANCH   1   2
ATOM      2  C   UNL     1      44.624   5.075  11.191  0.00  0.00    +0.000 A 
ATOM      3  C   UNL     1      43.567   4.339  11.738  0.00  0.00    +0.000 A 
ATOM      4  C   UNL     1      43.297   3.054  11.279  0.00  0.00    +0.000 A 
ATOM      5  C   UNL     1      44.051   2.515  10.237  0.00  0.00    +0.000 A 
ATOM      6  C   UNL     1      45.077   3.249   9.615  0.00  0.00    +0.000 A 
ATOM      7  C   UNL     1      45.371   4.521  10.137  0.00  0.00    +0.000 A 
BRANCH   6   8
ATOM      8  C   UNL     1      45.776   2.738   8.417  0.00  0.00    +0.000 A 
ATOM      9  C   UNL     1      46.077   3.569   7.334  0.00  0.00    +0.000 A 
ATOM     10  C   UNL     1      46.784   3.057   6.252  0.00  0.00    +0.000 A 
ATOM     11  C   UNL     1      47.180   1.729   6.268  0.00  0.00    +0.000 A 
ATOM     12  C   UNL     1      46.852   0.965   7.376  0.00  0.00    +0.000 A 
ATOM     13  N   UNL     1      46.170   1.438   8.445  0.00  0.00    +0.000 NA
ENDBRANCH   6   8
ENDBRANCH   1   2
BRANCH   1  14
ATOM     14  N   UNL     1      46.355   6.599  11.939  0.00  0.00    +0.000 N 
ATOM     15  H   UNL     1      46.927   6.282  11.158  0.00  0.00    +0.000 HD
BRANCH  14  19
ATOM     16  C   UNL     1      48.031   5.313  15.591  0.00  0.00    +0.000 A 
ATOM     17  C   UNL     1      48.463   6.510  15.020  0.00  0.00    +0.000 A 
ATOM     18  C   UNL     1      47.912   6.953  13.815  0.00  0.00    +0.000 A 
ATOM     19  C   UNL     1      46.891   6.243  13.179  0.00  0.00    +0.000 A 
ATOM     20  C   UNL     1      46.466   5.040  13.765  0.00  0.00    +0.000 A 
ATOM     21  C   UNL     1      47.020   4.578  14.967  0.00  0.00    +0.000 A 
BRANCH  16  23
ATOM     22  O   UNL     1      49.860   4.830  17.031  0.00  0.00    +0.000 OA
ATOM     23  C   UNL     1      48.654   4.884  16.866  0.00  0.00    +0.000 C 
BRANCH  23  24
ATOM     24  O   UNL     1      47.759   4.506  17.803  0.00  0.00    +0.000 OA
ATOM     25  H   UNL     1      47.213   3.737  17.558  0.00  0.00    +0.000 HD
ENDBRANCH  23  24
ENDBRANCH  16  23
ENDBRANCH  14  19
ENDBRANCH   1  14
TORSDOF 6
ENDMDL
MODEL 8
REMARK VINA RESULT:    -6.556      3.638      7.086
REMARK INTER + INTRA:          -9.647
REMARK INTER:                  -8.762
REMARK INTRA:                  -0.885
REMARK UNBOUND:                -0.982
REMARK  Name = 
REMARK  6 active torsions:
REMARK  status: ('A' for Active; 'I' for Inactive)
REMARK    1  A    between atoms: C_2  and  O_3
REMARK    2  A    between atoms: C_2  and  C_4
REMARK    3  A    between atoms: C_7  and  N_8
REMARK    4  A    between atoms: N_8  and  C_9
REMARK    5  A    between atoms: C_9  and  C_10
REMARK    6  A    between atoms: C_14  and  C_15
REMARK                            x       y       z     vdW  Elec       q    Type
REMARK                         _______ _______ _______ _____ _____    ______ ____
ROOT
ATOM      1  C   UNL     1      45.924   5.152  13.630  0.00  0.00    +0.000 C 
ENDROOT
BRANCH   1   2
ATOM      2  C   UNL     1      45.095   4.883  12.399  0.00  0.00    +0.000 A 
ATOM      3  C   UNL     1      43.800   5.402  12.291  0.00  0.00    +0.000 A 
ATOM      4  C   UNL     1      43.034   5.143  11.159  0.00  0.00    +0.000 A 
ATOM      5  C   UNL     1      43.576   4.405  10.106  0.00  0.00    +0.000 A 
ATOM      6  C   UNL     1      44.897   3.925  10.148  0.00  0.00    +0.000 A 
ATOM      7  C   UNL     1      45.630   4.147  11.327  0.00  0.00    +0.000 A 
BRANCH   6   8
ATOM      8  C   UNL     1      45.519   3.273   8.976  0.00  0.00    +0.000 A 
ATOM      9  C   UNL     1      46.000   4.016   7.894  0.00  0.00    +0.000 A 
ATOM     10  C   UNL     1      46.627   3.365   6.838  0.00  0.00    +0.000 A 
ATOM     11  C   UNL     1      46.766   1.986   6.880  0.00  0.00    +0.000 A 
ATOM     12  C   UNL     1      46.271   1.315   7.985  0.00  0.00    +0.000 A 
ATOM     13  N   UNL     1      45.661   1.924   9.029  0.00  0.00    +0.000 NA
ENDBRANCH   6   8
ENDBRANCH   1   2
BRANCH   1  14
ATOM     14  N   UNL     1      46.330   6.549  13.655  0.00  0.00    +0.000 N 
ATOM     15  H   UNL     1      45.607   7.183  13.320  0.00  0.00    +0.000 HD
BRANCH  14  19
ATOM     16  C   UNL     1      50.099   7.861  12.286  0.00  0.00    +0.000 A 
ATOM     17  C   UNL     1      49.952   7.455  13.613  0.00  0.00    +0.000 A 
ATOM     18  C   UNL     1      48.713   7.011  14.079  0.00  0.00    +0.000 A 
ATOM     19  C   UNL     1      47.608   6.916  13.228  0.00  0.00    +0.000 A 
ATOM     20  C   UNL     1      47.771   7.327  11.895  0.00  0.00    +0.000 A 
ATOM     21  C   UNL     1      49.006   7.787  11.419  0.00  0.00    +0.000 A 
BRANCH  16  23
ATOM     22  O   UNL     1      51.640   8.795  10.736  0.00  0.00    +0.000 OA
ATOM     23  C   UNL     1      51.433   8.331  11.844  0.00  0.00    +0.000 C 
BRANCH  23  24
ATOM     24  O   UNL     1      52.404   8.144  12.764  0.00  0.00    +0.000 OA
ATOM     25  H   UNL     1      52.734   7.229  12.826  0.00  0.00    +0.000 HD
ENDBRANCH  23  24
ENDBRANCH  16  23
ENDBRANCH  14  19
ENDBRANCH   1  14
TORSDOF 6
ENDMDL
MODEL 9
REMARK VINA RESULT:    -6.258      2.737      4.199
REMARK INTER + INTRA:          -9.253
REMARK INTER:                  -8.321
REMARK INTRA:                  -0.932
REMARK UNBOUND:                -0.982
REMARK  Name = 
REMARK  6 active torsions:
REMARK  status: ('A' for Active; 'I' for Inactive)
REMARK    1  A    between atoms: C_2  and  O_3
REMARK    2  A    between atoms: C_2  and  C_4
REMARK    3  A    between atoms: C_7  and  N_8
REMARK    4  A    between atoms: N_8  and  C_9
REMARK    5  A    between atoms: C_9  and  C_10
REMARK    6  A    between atoms: C_14  and  C_15
REMARK                            x       y       z     vdW  Elec       q    Type
REMARK                         _______ _______ _______ _____ _____    ______ ____
ROOT
ATOM      1  C   UNL     1      47.585   8.058  12.478  0.00  0.00    +0.000 C 
ENDROOT
BRANCH   1   2
ATOM      2  C   UNL     1      48.040   7.951  13.912  0.00  0.00    +0.000 A 
ATOM      3  C   UNL     1      48.262   9.105  14.672  0.00  0.00    +0.000 A 
ATOM      4  C   UNL     1      48.691   9.003  15.992  0.00  0.00    +0.000 A 
ATOM      5  C   UNL     1      48.855   7.746  16.574  0.00  0.00    +0.000 A 
ATOM      6  C   UNL     1      48.576   6.564  15.865  0.00  0.00    +0.000 A 
ATOM      7  C   UNL     1      48.203   6.691  14.515  0.00  0.00    +0.000 A 
BRANCH   6   8
ATOM      8  C   UNL     1      48.606   5.242  16.524  0.00  0.00    +0.000 A 
ATOM      9  C   UNL     1      47.474   4.424  16.578  0.00  0.00    +0.000 A 
ATOM     10  C   UNL     1      47.563   3.165  17.161  0.00  0.00    +0.000 A 
ATOM     11  C   UNL     1      48.778   2.742  17.677  0.00  0.00    +0.000 A 
ATOM     12  C   UNL     1      49.859   3.602  17.586  0.00  0.00    +0.000 A 
ATOM     13  N   UNL     1      49.802   4.830  17.019  0.00  0.00    +0.000 NA
ENDBRANCH   6   8
ENDBRANCH   1   2
BRANCH   1  14
ATOM     14  N   UNL     1      46.152   7.821  12.397  0.00  0.00    +0.000 N 
ATOM     15  H   UNL     1      45.631   8.250  13.158  0.00  0.00    +0.000 HD
BRANCH  14  19
ATOM     16  C   UNL     1      44.476   4.069  11.443  0.00  0.00    +0.000 A 
ATOM     17  C   UNL     1      45.212   4.758  10.479  0.00  0.00    +0.000 A 
ATOM     18  C   UNL     1      45.780   5.998  10.782  0.00  0.00    +0.000 A 
ATOM     19  C   UNL     1      45.668   6.555  12.058  0.00  0.00    +0.000 A 
ATOM     20  C   UNL     1      44.926   5.850  13.019  0.00  0.00    +0.000 A 
ATOM     21  C   UNL     1      44.340   4.611  12.723  0.00  0.00    +0.000 A 
BRANCH  16  23
ATOM     22  O   UNL     1      42.938   2.268  11.651  0.00  0.00    +0.000 OA
ATOM     23  C   UNL     1      43.888   2.761  11.068  0.00  0.00    +0.000 C 
BRANCH  23  24
ATOM     24  O   UNL     1      44.540   2.145  10.059  0.00  0.00    +0.000 OA
ATOM     25  H   UNL     1      43.964   1.807   9.349  0.00  0.00    +0.000 HD
ENDBRANCH  23  24
ENDBRANCH  16  23
ENDBRANCH  14  19
ENDBRANCH   1  14
TORSDOF 6
ENDMDL
