MODEL 1
REMARK VINA RESULT:    -8.428      0.000      0.000
REMARK INTER + INTRA:         -12.764
REMARK INTER:                 -12.123
REMARK INTRA:                  -0.642
REMARK UNBOUND:                -0.642
REMARK  Name = 
REMARK  11 active torsions:
REMARK  status: ('A' for Active; 'I' for Inactive)
REMARK    1  A    between atoms: C_1  and  C_2
REMARK    2  A    between atoms: C_2  and  C_3
REMARK    3  A    between atoms: C_2  and  C_4
REMARK    4  A    between atoms: C_2  and  C_15
REMARK    5  A    between atoms: C_4  and  N_5
REMARK    6  A    between atoms: N_5  and  C_6
REMARK    7  A    between atoms: C_9  and  C_10
REMARK    8  A    between atoms: C_19  and  O_20
REMARK    9  A    between atoms: O_20  and  C_21
REMARK   10  A    between atoms: C_21  and  C_22
REMARK   11  A    between atoms: C_24  and  O_25
REMARK                            x       y       z     vdW  Elec       q    Type
REMARK                         _______ _______ _______ _____ _____    ______ ____
ROOT
ATOM      1  C   UNL     1      43.690   6.905  11.279  0.00  0.00    +0.000 C 
ATOM      2  C   UNL     1      43.789   5.537  11.999  0.00  0.00    +0.000 C 
ATOM      3  C   UNL     1      42.832   5.515  13.221  0.00  0.00    +0.000 C 
ENDROOT
BRANCH   2   4
ATOM      4  C   UNL     1      45.229   5.361  12.539  0.00  0.00    +0.000 A 
ATOM      5  C   UNL     1      46.196   6.326  12.191  0.00  0.00    +0.000 A 
ATOM      6  C   UNL     1      47.501   6.270  12.675  0.00  0.00    +0.000 A 
ATOM      7  C   UNL     1      47.865   5.241  13.524  0.00  0.00    +0.000 A 
ATOM      8  C   UNL     1      46.937   4.280  13.912  0.00  0.00    +0.000 A 
ATOM      9  C   UNL     1      45.629   4.319  13.397  0.00  0.00    +0.000 A 
BRANCH   8  10
ATOM     10  O   UNL     1      47.248   3.279  14.804  0.00  0.00    +0.000 OA
BRANCH  10  11
ATOM     11  C   UNL     1      47.780   3.723  16.086  0.00  0.00    +0.000 C 
ATOM     12  C   UNL     1      47.730   5.209  16.324  0.00  0.00    +0.000 C 
ATOM     13  C   UNL     1      47.476   2.777  17.229  0.00  0.00    +0.000 C 
ATOM     14  C   UNL     1      48.885   2.924  16.748  0.00  0.00    +0.000 C 
BRANCH  14  15
ATOM     15  O   UNL     1      49.429   1.799  16.039  0.00  0.00    +0.000 OA
ATOM     16  H   UNL     1      50.072   1.307  16.580  0.00  0.00    +0.000 HD
ENDBRANCH  14  15
ENDBRANCH  10  11
ENDBRANCH   8  10
ENDBRANCH   2   4
BRANCH   2  17
ATOM     17  C   UNL     1      43.356   4.416  11.001  0.00  0.00    +0.000 C 
BRANCH  17  18
ATOM     18  N   UNL     1      43.766   4.706   9.626  0.00  0.00    +0.000 N 
ATOM     19  H   UNL     1      43.021   4.937   8.978  0.00  0.00    +0.000 HD
BRANCH  18  20
ATOM     20  C   UNL     1      44.817   4.042   9.009  0.00  0.00    +0.000 A 
ATOM     21  C   UNL     1      45.735   4.658   8.155  0.00  0.00    +0.000 A 
ATOM     22  C   UNL     1      46.693   3.907   7.468  0.00  0.00    +0.000 A 
ATOM     23  C   UNL     1      46.738   2.517   7.609  0.00  0.00    +0.000 A 
ATOM     24  C   UNL     1      45.818   1.883   8.449  0.00  0.00    +0.000 A 
ATOM     25  C   UNL     1      44.868   2.646   9.133  0.00  0.00    +0.000 A 
BRANCH  23  26
ATOM     26  C   UNL     1      47.728   1.754   6.810  0.00  0.00    +0.000 C 
ATOM     27  N   UNL     1      48.758   2.449   6.246  0.00  0.00    +0.000 N 
ATOM     28  O   UNL     1      47.615   0.542   6.638  0.00  0.00    +0.000 OA
ATOM     29  H   UNL     1      48.796   3.456   6.212  0.00  0.00    +0.000 HD
ATOM     30  H   UNL     1      49.381   1.924   5.643  0.00  0.00    +0.000 HD
ENDBRANCH  23  26
ENDBRANCH  18  20
ENDBRANCH  17  18
ENDBRANCH   2  17
TORSDOF 8
ENDMDL
MODEL 2
REMARK VINA RESULT:    -7.708      2.183      2.795
REMARK INTER + INTRA:         -11.730
REMARK INTER:                 -11.198
REMARK INTRA:                  -0.531
REMARK UNBOUND:                -0.642
REMARK  Name = 
REMARK  11 active torsions:
REMARK  status: ('A' for Active; 'I' for Inactive)
REMARK    1  A    between atoms: C_1  and  C_2
REMARK    2  A    between atoms: C_2  and  C_3
REMARK    3  A    between atoms: C_2  and  C_4
REMARK    4  A    between atoms: C_2  and  C_15
REMARK    5  A    between atoms: C_4  and  N_5
REMARK    6  A    between atoms: N_5  and  C_6
REMARK    7  A    between atoms: C_9  and  C_10
REMARK    8  A    between atoms: C_19  and  O_20
REMARK    9  A    between atoms: O_20  and  C_21
REMARK   10  A    between atoms: C_21  and  C_22
REMARK   11  A    between atoms: C_24  and  O_25
REMARK                            x       y       z     vdW  Elec       q    Type
REMARK                         _______ _______ _______ _____ _____    ______ ____
ROOT
ATOM      1  C   UNL     1      43.071   4.771  13.394  0.00  0.00    +0.000 C 
ATOM      2  C   UNL     1      44.058   4.502  12.230  0.00  0.00    +0.000 C 
ATOM      3  C   UNL     1      44.883   3.221  12.527  0.00  0.00    +0.000 C 
ENDROOT
BRANCH   2   4
ATOM      4  C   UNL     1      45.054   5.682  12.137  0.00  0.00    +0.000 A 
ATOM      5  C   UNL     1      44.545   6.965  11.846  0.00  0.00    +0.000 A 
ATOM      6  C   UNL     1      45.367   8.088  11.793  0.00  0.00    +0.000 A 
ATOM      7  C   UNL     1      46.721   7.950  12.036  0.00  0.00    +0.000 A 
ATOM      8  C   UNL     1      47.261   6.707  12.350  0.00  0.00    +0.000 A 
ATOM      9  C   UNL     1      46.438   5.568  12.370  0.00  0.00    +0.000 A 
BRANCH   8  10
ATOM     10  O   UNL     1      48.592   6.544  12.658  0.00  0.00    +0.000 OA
BRANCH  10  11
ATOM     11  C   UNL     1      49.179   7.590  13.488  0.00  0.00    +0.000 C 
ATOM     12  C   UNL     1      50.024   8.597  12.752  0.00  0.00    +0.000 C 
ATOM     13  C   UNL     1      48.271   8.058  14.606  0.00  0.00    +0.000 C 
ATOM     14  C   UNL     1      49.512   7.290  14.935  0.00  0.00    +0.000 C 
BRANCH  14  15
ATOM     15  O   UNL     1      49.315   5.951  15.415  0.00  0.00    +0.000 OA
ATOM     16  H   UNL     1      49.107   5.934  16.367  0.00  0.00    +0.000 HD
ENDBRANCH  14  15
ENDBRANCH  10  11
ENDBRANCH   8  10
ENDBRANCH   2   4
BRANCH   2  17
ATOM     17  C   UNL     1      43.234   4.276  10.922  0.00  0.00    +0.000 C 
BRANCH  17  18
ATOM     18  N   UNL     1      43.882   4.863   9.748  0.00  0.00    +0.000 N 
ATOM     19  H   UNL     1      43.286   5.412   9.138  0.00  0.00    +0.000 HD
BRANCH  18  20
ATOM     20  C   UNL     1      44.894   4.213   9.055  0.00  0.00    +0.000 A 
ATOM     21  C   UNL     1      45.870   4.870   8.302  0.00  0.00    +0.000 A 
ATOM     22  C   UNL     1      46.784   4.149   7.526  0.00  0.00    +0.000 A 
ATOM     23  C   UNL     1      46.726   2.754   7.476  0.00  0.00    +0.000 A 
ATOM     24  C   UNL     1      45.747   2.082   8.213  0.00  0.00    +0.000 A 
ATOM     25  C   UNL     1      44.841   2.813   8.987  0.00  0.00    +0.000 A 
BRANCH  23  26
ATOM     26  C   UNL     1      47.673   2.036   6.589  0.00  0.00    +0.000 C 
ATOM     27  N   UNL     1      48.199   2.723   5.533  0.00  0.00    +0.000 N 
ATOM     28  O   UNL     1      47.958   0.855   6.778  0.00  0.00    +0.000 OA
ATOM     29  H   UNL     1      47.864   3.626   5.238  0.00  0.00    +0.000 HD
ATOM     30  H   UNL     1      48.784   2.195   4.897  0.00  0.00    +0.000 HD
ENDBRANCH  23  26
ENDBRANCH  18  20
ENDBRANCH  17  18
ENDBRANCH   2  17
TORSDOF 8
ENDMDL
MODEL 3
REMARK VINA RESULT:    -7.350      2.426      3.877
REMARK INTER + INTRA:         -11.214
REMARK INTER:                 -10.470
REMARK INTRA:                  -0.744
REMARK UNBOUND:                -0.642
REMARK  Name = 
REMARK  11 active torsions:
REMARK  status: ('A' for Active; 'I' for Inactive)
REMARK    1  A    between atoms: C_1  and  C_2
REMARK    2  A    between atoms: C_2  and  C_3
REMARK    3  A    between atoms: C_2  and  C_4
REMARK    4  A    between atoms: C_2  and  C_15
REMARK    5  A    between atoms: C_4  and  N_5
REMARK    6  A    between atoms: N_5  and  C_6
REMARK    7  A    between atoms: C_9  and  C_10
REMARK    8  A    between atoms: C_19  and  O_20
REMARK    9  A    between atoms: O_20  and  C_21
REMARK   10  A    between atoms: C_21  and  C_22
REMARK   11  A    between atoms: C_24  and  O_25
REMARK                            x       y       z     vdW  Elec       q    Type
REMARK                         _______ _______ _______ _____ _____    ______ ____
ROOT
ATOM      1  C   UNL     1      44.265   6.306  11.114  0.00  0.00    +0.000 C 
ATOM      2  C   UNL     1      44.384   5.311  12.297  0.00  0.00    +0.000 C 
ATOM      3  C   UNL     1      43.157   5.464  13.236  0.00  0.00    +0.000 C 
ENDROOT
BRANCH   2   4
ATOM      4  C   UNL     1      45.644   5.666  13.122  0.00  0.00    +0.000 A 
ATOM      5  C   UNL     1      46.237   4.653  13.904  0.00  0.00    +0.000 A 
ATOM      6  C   UNL     1      47.401   4.875  14.636  0.00  0.00    +0.000 A 
ATOM      7  C   UNL     1      48.000   6.121  14.597  0.00  0.00    +0.000 A 
ATOM      8  C   UNL     1      47.461   7.142  13.821  0.00  0.00    +0.000 A 
ATOM      9  C   UNL     1      46.268   6.928  13.108  0.00  0.00    +0.000 A 
BRANCH   8  10
ATOM     10  O   UNL     1      48.065   8.373  13.709  0.00  0.00    +0.000 OA
BRANCH  10  11
ATOM     11  C   UNL     1      48.821   8.594  12.482  0.00  0.00    +0.000 C 
ATOM     12  C   UNL     1      49.303   7.347  11.790  0.00  0.00    +0.000 C 
ATOM     13  C   UNL     1      48.306   9.752  11.652  0.00  0.00    +0.000 C 
ATOM     14  C   UNL     1      49.635   9.864  12.330  0.00  0.00    +0.000 C 
BRANCH  14  15
ATOM     15  O   UNL     1      49.699  10.768  13.445  0.00  0.00    +0.000 OA
ATOM     16  H   UNL     1      48.820  11.111  13.684  0.00  0.00    +0.000 HD
ENDBRANCH  14  15
ENDBRANCH  10  11
ENDBRANCH   8  10
ENDBRANCH   2   4
BRANCH   2  17
ATOM     17  C   UNL     1      44.400   3.857  11.726  0.00  0.00    +0.000 C 
BRANCH  17  18
ATOM     18  N   UNL     1      43.947   3.801  10.335  0.00  0.00    +0.000 N 
ATOM     19  H   UNL     1      42.976   3.545  10.193  0.00  0.00    +0.000 HD
BRANCH  18  20
ATOM     20  C   UNL     1      44.766   3.362   9.304  0.00  0.00    +0.000 A 
ATOM     21  C   UNL     1      45.136   2.028   9.117  0.00  0.00    +0.000 A 
ATOM     22  C   UNL     1      46.065   1.672   8.134  0.00  0.00    +0.000 A 
ATOM     23  C   UNL     1      46.655   2.650   7.329  0.00  0.00    +0.000 A 
ATOM     24  C   UNL     1      46.306   3.991   7.513  0.00  0.00    +0.000 A 
ATOM     25  C   UNL     1      45.374   4.334   8.496  0.00  0.00    +0.000 A 
BRANCH  23  26
ATOM     26  C   UNL     1      47.683   2.234   6.345  0.00  0.00    +0.000 C 
ATOM     27  N   UNL     1      47.868   3.024   5.247  0.00  0.00    +0.000 N 
ATOM     28  O   UNL     1      48.332   1.200   6.494  0.00  0.00    +0.000 OA
ATOM     29  H   UNL     1      47.247   3.776   4.995  0.00  0.00    +0.000 HD
ATOM     30  H   UNL     1      48.520   2.684   4.550  0.00  0.00    +0.000 HD
ENDBRANCH  23  26
ENDBRANCH  18  20
ENDBRANCH  17  18
ENDBRANCH   2  17
TORSDOF 8
ENDMDL
MODEL 4
REMARK VINA RESULT:    -7.084      2.922      4.676
REMARK INTER + INTRA:         -10.832
REMARK INTER:                  -9.555
REMARK INTRA:                  -1.277
REMARK UNBOUND:                -0.642
REMARK  Name = 
REMARK  11 active torsions:
REMARK  status: ('A' for Active; 'I' for Inactive)
REMARK    1  A    between atoms: C_1  and  C_2
REMARK    2  A    between atoms: C_2  and  C_3
REMARK    3  A    between atoms: C_2  and  C_4
REMARK    4  A    between atoms: C_2  and  C_15
REMARK    5  A    between atoms: C_4  and  N_5
REMARK    6  A    between atoms: N_5  and  C_6
REMARK    7  A    between atoms: C_9  and  C_10
REMARK    8  A    between atoms: C_19  and  O_20
REMARK    9  A    between atoms: O_20  and  C_21
REMARK   10  A    between atoms: C_21  and  C_22
REMARK   11  A    between atoms: C_24  and  O_25
REMARK                            x       y       z     vdW  Elec       q    Type
REMARK                         _______ _______ _______ _____ _____    ______ ____
ROOT
ATOM      1  C   UNL     1      49.044   7.382  12.108  0.00  0.00    +0.000 C 
ATOM      2  C   UNL     1      48.427   8.465  13.028  0.00  0.00    +0.000 C 
ATOM      3  C   UNL     1      49.169   9.813  12.824  0.00  0.00    +0.000 C 
ENDROOT
BRANCH   2   4
ATOM      4  C   UNL     1      48.633   8.044  14.504  0.00  0.00    +0.000 A 
ATOM      5  C   UNL     1      48.346   8.984  15.514  0.00  0.00    +0.000 A 
ATOM      6  C   UNL     1      48.456   8.670  16.866  0.00  0.00    +0.000 A 
ATOM      7  C   UNL     1      48.856   7.399  17.236  0.00  0.00    +0.000 A 
ATOM      8  C   UNL     1      49.127   6.433  16.272  0.00  0.00    +0.000 A 
ATOM      9  C   UNL     1      49.047   6.760  14.908  0.00  0.00    +0.000 A 
BRANCH   8  10
ATOM     10  O   UNL     1      49.466   5.141  16.605  0.00  0.00    +0.000 OA
BRANCH  10  11
ATOM     11  C   UNL     1      48.453   4.395  17.342  0.00  0.00    +0.000 C 
ATOM     12  C   UNL     1      48.384   4.689  18.817  0.00  0.00    +0.000 C 
ATOM     13  C   UNL     1      47.169   4.185  16.566  0.00  0.00    +0.000 C 
ATOM     14  C   UNL     1      48.052   3.014  16.862  0.00  0.00    +0.000 C 
BRANCH  14  15
ATOM     15  O   UNL     1      48.753   2.454  15.741  0.00  0.00    +0.000 OA
ATOM     16  H   UNL     1      48.325   1.643  15.414  0.00  0.00    +0.000 HD
ENDBRANCH  14  15
ENDBRANCH  10  11
ENDBRANCH   8  10
ENDBRANCH   2   4
BRANCH   2  17
ATOM     17  C   UNL     1      46.926   8.655  12.638  0.00  0.00    +0.000 C 
BRANCH  17  18
ATOM     18  N   UNL     1      46.055   7.671  13.284  0.00  0.00    +0.000 N 
ATOM     19  H   UNL     1      46.208   7.524  14.276  0.00  0.00    +0.000 HD
BRANCH  18  20
ATOM     20  C   UNL     1      45.629   6.519  12.637  0.00  0.00    +0.000 A 
ATOM     21  C   UNL     1      44.833   6.519  11.490  0.00  0.00    +0.000 A 
ATOM     22  C   UNL     1      44.335   5.323  10.961  0.00  0.00    +0.000 A 
ATOM     23  C   UNL     1      44.610   4.103  11.586  0.00  0.00    +0.000 A 
ATOM     24  C   UNL     1      45.394   4.088  12.743  0.00  0.00    +0.000 A 
ATOM     25  C   UNL     1      45.889   5.289  13.259  0.00  0.00    +0.000 A 
BRANCH  23  26
ATOM     26  C   UNL     1      44.007   2.869  11.029  0.00  0.00    +0.000 C 
ATOM     27  N   UNL     1      44.631   2.281   9.967  0.00  0.00    +0.000 N 
ATOM     28  O   UNL     1      42.967   2.401  11.488  0.00  0.00    +0.000 OA
ATOM     29  H   UNL     1      45.377   2.719   9.450  0.00  0.00    +0.000 HD
ATOM     30  H   UNL     1      44.164   1.482   9.553  0.00  0.00    +0.000 HD
ENDBRANCH  23  26
ENDBRANCH  18  20
ENDBRANCH  17  18
ENDBRANCH   2  17
TORSDOF 8
ENDMDL
MODEL 5
REMARK VINA RESULT:    -6.955      3.479      7.504
REMARK INTER + INTRA:         -10.646
REMARK INTER:                  -9.184
REMARK INTRA:                  -1.462
REMARK UNBOUND:                -0.642
REMARK  Name = 
REMARK  11 active torsions:
REMARK  status: ('A' for Active; 'I' for Inactive)
REMARK    1  A    between atoms: C_1  and  C_2
REMARK    2  A    between atoms: C_2  and  C_3
REMARK    3  A    between atoms: C_2  and  C_4
REMARK    4  A    between atoms: C_2  and  C_15
REMARK    5  A    between atoms: C_4  and  N_5
REMARK    6  A    between atoms: N_5  and  C_6
REMARK    7  A    between atoms: C_9  and  C_10
REMARK    8  A    between atoms: C_19  and  O_20
REMARK    9  A    between atoms: O_20  and  C_21
REMARK   10  A    between atoms: C_21  and  C_22
REMARK   11  A    between atoms: C_24  and  O_25
REMARK                            x       y       z     vdW  Elec       q    Type
REMARK                         _______ _______ _______ _____ _____    ______ ____
ROOT
ATOM      1  C   UNL     1      48.656   9.936  11.757  0.00  0.00    +0.000 C 
ATOM      2  C   UNL     1      48.548   8.520  12.377  0.00  0.00    +0.000 C 
ATOM      3  C   UNL     1      49.593   7.578  11.722  0.00  0.00    +0.000 C 
ENDROOT
BRANCH   2   4
ATOM      4  C   UNL     1      47.146   7.943  12.064  0.00  0.00    +0.000 A 
ATOM      5  C   UNL     1      46.017   8.735  12.357  0.00  0.00    +0.000 A 
ATOM      6  C   UNL     1      44.724   8.312  12.060  0.00  0.00    +0.000 A 
ATOM      7  C   UNL     1      44.534   7.082  11.457  0.00  0.00    +0.000 A 
ATOM      8  C   UNL     1      45.622   6.279  11.130  0.00  0.00    +0.000 A 
ATOM      9  C   UNL     1      46.924   6.691  11.459  0.00  0.00    +0.000 A 
BRANCH   8  10
ATOM     10  O   UNL     1      45.474   5.078  10.473  0.00  0.00    +0.000 OA
BRANCH  10  11
ATOM     11  C   UNL     1      44.847   4.012  11.245  0.00  0.00    +0.000 C 
ATOM     12  C   UNL     1      45.487   3.720  12.577  0.00  0.00    +0.000 C 
ATOM     13  C   UNL     1      43.338   3.983  11.124  0.00  0.00    +0.000 C 
ATOM     14  C   UNL     1      44.148   2.881  10.517  0.00  0.00    +0.000 C 
BRANCH  14  15
ATOM     15  O   UNL     1      44.205   2.858   9.082  0.00  0.00    +0.000 OA
ATOM     16  H   UNL     1      43.446   3.319   8.682  0.00  0.00    +0.000 HD
ENDBRANCH  14  15
ENDBRANCH  10  11
ENDBRANCH   8  10
ENDBRANCH   2   4
BRANCH   2  17
ATOM     17  C   UNL     1      48.853   8.622  13.906  0.00  0.00    +0.000 C 
BRANCH  17  18
ATOM     18  N   UNL     1      49.626   7.479  14.396  0.00  0.00    +0.000 N 
ATOM     19  H   UNL     1      50.245   7.039  13.724  0.00  0.00    +0.000 HD
BRANCH  18  20
ATOM     20  C   UNL     1      49.111   6.574  15.314  0.00  0.00    +0.000 A 
ATOM     21  C   UNL     1      49.742   6.237  16.514  0.00  0.00    +0.000 A 
ATOM     22  C   UNL     1      49.232   5.225  17.334  0.00  0.00    +0.000 A 
ATOM     23  C   UNL     1      48.088   4.517  16.957  0.00  0.00    +0.000 A 
ATOM     24  C   UNL     1      47.453   4.832  15.752  0.00  0.00    +0.000 A 
ATOM     25  C   UNL     1      47.970   5.848  14.944  0.00  0.00    +0.000 A 
BRANCH  23  26
ATOM     26  C   UNL     1      47.622   3.408  17.824  0.00  0.00    +0.000 C 
ATOM     27  N   UNL     1      48.323   3.160  18.969  0.00  0.00    +0.000 N 
ATOM     28  O   UNL     1      46.654   2.716  17.515  0.00  0.00    +0.000 OA
ATOM     29  H   UNL     1      49.215   3.580  19.175  0.00  0.00    +0.000 HD
ATOM     30  H   UNL     1      48.035   2.353  19.510  0.00  0.00    +0.000 HD
ENDBRANCH  23  26
ENDBRANCH  18  20
ENDBRANCH  17  18
ENDBRANCH   2  17
TORSDOF 8
ENDMDL
MODEL 6
REMARK VINA RESULT:    -6.570      3.228      4.983
REMARK INTER + INTRA:         -10.092
REMARK INTER:                  -8.900
REMARK INTRA:                  -1.192
REMARK UNBOUND:                -0.642
REMARK  Name = 
REMARK  11 active torsions:
REMARK  status: ('A' for Active; 'I' for Inactive)
REMARK    1  A    between atoms: C_1  and  C_2
REMARK    2  A    between atoms: C_2  and  C_3
REMARK    3  A    between atoms: C_2  and  C_4
REMARK    4  A    between atoms: C_2  and  C_15
REMARK    5  A    between atoms: C_4  and  N_5
REMARK    6  A    between atoms: N_5  and  C_6
REMARK    7  A    between atoms: C_9  and  C_10
REMARK    8  A    between atoms: C_19  and  O_20
REMARK    9  A    between atoms: O_20  and  C_21
REMARK   10  A    between atoms: C_21  and  C_22
REMARK   11  A    between atoms: C_24  and  O_25
REMARK                            x       y       z     vdW  Elec       q    Type
REMARK                         _______ _______ _______ _____ _____    ______ ____
ROOT
ATOM      1  C   UNL     1      49.453   8.286  12.387  0.00  0.00    +0.000 C 
ATOM      2  C   UNL     1      48.808   8.592  13.763  0.00  0.00    +0.000 C 
ATOM      3  C   UNL     1      49.121  10.055  14.176  0.00  0.00    +0.000 C 
ENDROOT
BRANCH   2   4
ATOM      4  C   UNL     1      49.442   7.665  14.828  0.00  0.00    +0.000 A 
ATOM      5  C   UNL     1      50.843   7.685  14.983  0.00  0.00    +0.000 A 
ATOM      6  C   UNL     1      51.488   6.920  15.951  0.00  0.00    +0.000 A 
ATOM      7  C   UNL     1      50.738   6.118  16.793  0.00  0.00    +0.000 A 
ATOM      8  C   UNL     1      49.351   6.086  16.690  0.00  0.00    +0.000 A 
ATOM      9  C   UNL     1      48.703   6.833  15.691  0.00  0.00    +0.000 A 
BRANCH   8  10
ATOM     10  O   UNL     1      48.570   5.349  17.551  0.00  0.00    +0.000 OA
BRANCH  10  11
ATOM     11  C   UNL     1      48.269   3.990  17.119  0.00  0.00    +0.000 C 
ATOM     12  C   UNL     1      47.406   3.882  15.889  0.00  0.00    +0.000 C 
ATOM     13  C   UNL     1      49.422   3.025  17.304  0.00  0.00    +0.000 C 
ATOM     14  C   UNL     1      48.196   2.882  18.150  0.00  0.00    +0.000 C 
BRANCH  14  15
ATOM     15  O   UNL     1      48.343   3.231  19.535  0.00  0.00    +0.000 OA
ATOM     16  H   UNL     1      47.608   3.788  19.849  0.00  0.00    +0.000 HD
ENDBRANCH  14  15
ENDBRANCH  10  11
ENDBRANCH   8  10
ENDBRANCH   2   4
BRANCH   2  17
ATOM     17  C   UNL     1      47.259   8.427  13.634  0.00  0.00    +0.000 C 
BRANCH  17  18
ATOM     18  N   UNL     1      46.855   8.002  12.293  0.00  0.00    +0.000 N 
ATOM     19  H   UNL     1      46.491   8.729  11.686  0.00  0.00    +0.000 HD
BRANCH  18  20
ATOM     20  C   UNL     1      46.268   6.767  12.051  0.00  0.00    +0.000 A 
ATOM     21  C   UNL     1      45.945   6.295  10.776  0.00  0.00    +0.000 A 
ATOM     22  C   UNL     1      45.242   5.097  10.612  0.00  0.00    +0.000 A 
ATOM     23  C   UNL     1      44.831   4.358  11.725  0.00  0.00    +0.000 A 
ATOM     24  C   UNL     1      45.135   4.824  13.007  0.00  0.00    +0.000 A 
ATOM     25  C   UNL     1      45.841   6.020  13.158  0.00  0.00    +0.000 A 
BRANCH  23  26
ATOM     26  C   UNL     1      44.031   3.129  11.504  0.00  0.00    +0.000 C 
ATOM     27  N   UNL     1      43.706   2.379  12.597  0.00  0.00    +0.000 N 
ATOM     28  O   UNL     1      43.691   2.779  10.376  0.00  0.00    +0.000 OA
ATOM     29  H   UNL     1      44.106   2.527  13.511  0.00  0.00    +0.000 HD
ATOM     30  H   UNL     1      43.224   1.505  12.419  0.00  0.00    +0.000 HD
ENDBRANCH  23  26
ENDBRANCH  18  20
ENDBRANCH  17  18
ENDBRANCH   2  17
TORSDOF 8
ENDMDL
MODEL 7
REMARK VINA RESULT:    -6.076      3.087      5.840
REMARK INTER + INTRA:          -9.382
REMARK INTER:                  -8.267
REMARK INTRA:                  -1.115
REMARK UNBOUND:                -0.642
REMARK  Name = 
REMARK  11 active torsions:
REMARK  status: ('A' for Active; 'I' for Inactive)
REMARK    1  A    between atoms: C_1  and  C_2
REMARK    2  A    between atoms: C_2  and  C_3
REMARK    3  A    between atoms: C_2  and  C_4
REMARK    4  A    between atoms: C_2  and  C_15
REMARK    5  A    between atoms: C_4  and  N_5
REMARK    6  A    between atoms: N_5  and  C_6
REMARK    7  A    between atoms: C_9  and  C_10
REMARK    8  A    between atoms: C_19  and  O_20
REMARK    9  A    between atoms: O_20  and  C_21
REMARK   10  A    between atoms: C_21  and  C_22
REMARK   11  A    between atoms: C_24  and  O_25
REMARK                            x       y       z     vdW  Elec       q    Type
REMARK                         _______ _______ _______ _____ _____    ______ ____
ROOT
ATOM      1  C   UNL     1      47.076   4.639  17.781  0.00  0.00    +0.000 C 
ATOM      2  C   UNL     1      48.141   4.720  16.659  0.00  0.00    +0.000 C 
ATOM      3  C   UNL     1      49.368   3.846  17.035  0.00  0.00    +0.000 C 
ENDROOT
BRANCH   2   4
ATOM      4  C   UNL     1      48.635   6.183  16.544  0.00  0.00    +0.000 A 
ATOM      5  C   UNL     1      48.606   6.991  17.699  0.00  0.00    +0.000 A 
ATOM      6  C   UNL     1      49.078   8.300  17.693  0.00  0.00    +0.000 A 
ATOM      7  C   UNL     1      49.595   8.830  16.525  0.00  0.00    +0.000 A 
ATOM      8  C   UNL     1      49.664   8.061  15.368  0.00  0.00    +0.000 A 
ATOM      9  C   UNL     1      49.157   6.750  15.366  0.00  0.00    +0.000 A 
BRANCH   8  10
ATOM     10  O   UNL     1      50.229   8.534  14.206  0.00  0.00    +0.000 OA
BRANCH  10  11
ATOM     11  C   UNL     1      49.297   8.808  13.120  0.00  0.00    +0.000 C 
ATOM     12  C   UNL     1      47.922   9.251  13.548  0.00  0.00    +0.000 C 
ATOM     13  C   UNL     1      49.944   9.457  11.914  0.00  0.00    +0.000 C 
ATOM     14  C   UNL     1      49.436   8.053  11.813  0.00  0.00    +0.000 C 
BRANCH  14  15
ATOM     15  O   UNL     1      50.437   7.027  11.725  0.00  0.00    +0.000 OA
ATOM     16  H   UNL     1      51.336   7.387  11.831  0.00  0.00    +0.000 HD
ENDBRANCH  14  15
ENDBRANCH  10  11
ENDBRANCH   8  10
ENDBRANCH   2   4
BRANCH   2  17
ATOM     17  C   UNL     1      47.517   4.166  15.338  0.00  0.00    +0.000 C 
BRANCH  17  18
ATOM     18  N   UNL     1      46.469   5.041  14.809  0.00  0.00    +0.000 N 
ATOM     19  H   UNL     1      45.706   5.255  15.443  0.00  0.00    +0.000 HD
BRANCH  18  20
ATOM     20  C   UNL     1      46.058   4.990  13.484  0.00  0.00    +0.000 A 
ATOM     21  C   UNL     1      45.445   3.879  12.901  0.00  0.00    +0.000 A 
ATOM     22  C   UNL     1      45.170   3.848  11.530  0.00  0.00    +0.000 A 
ATOM     23  C   UNL     1      45.523   4.926  10.712  0.00  0.00    +0.000 A 
ATOM     24  C   UNL     1      46.149   6.039  11.278  0.00  0.00    +0.000 A 
ATOM     25  C   UNL     1      46.415   6.059  12.650  0.00  0.00    +0.000 A 
BRANCH  23  26
ATOM     26  C   UNL     1      45.272   4.822   9.254  0.00  0.00    +0.000 C 
ATOM     27  N   UNL     1      44.078   4.298   8.851  0.00  0.00    +0.000 N 
ATOM     28  O   UNL     1      46.118   5.169   8.432  0.00  0.00    +0.000 OA
ATOM     29  H   UNL     1      43.433   3.842   9.477  0.00  0.00    +0.000 HD
ATOM     30  H   UNL     1      43.955   4.165   7.854  0.00  0.00    +0.000 HD
ENDBRANCH  23  26
ENDBRANCH  18  20
ENDBRANCH  17  18
ENDBRANCH   2  17
TORSDOF 8
ENDMDL
MODEL 8
REMARK VINA RESULT:    -5.977      3.746      6.393
REMARK INTER + INTRA:          -9.239
REMARK INTER:                  -8.444
REMARK INTRA:                  -0.795
REMARK UNBOUND:                -0.642
REMARK  Name = 
REMARK  11 active torsions:
REMARK  status: ('A' for Active; 'I' for Inactive)
REMARK    1  A    between atoms: C_1  and  C_2
REMARK    2  A    between atoms: C_2  and  C_3
REMARK    3  A    between atoms: C_2  and  C_4
REMARK    4  A    between atoms: C_2  and  C_15
REMARK    5  A    between atoms: C_4  and  N_5
REMARK    6  A    between atoms: N_5  and  C_6
REMARK    7  A    between atoms: C_9  and  C_10
REMARK    8  A    between atoms: C_19  and  O_20
REMARK    9  A    between atoms: O_20  and  C_21
REMARK   10  A    between atoms: C_21  and  C_22
REMARK   11  A    between atoms: C_24  and  O_25
REMARK                            x       y       z     vdW  Elec       q    Type
REMARK                         _______ _______ _______ _____ _____    ______ ____
ROOT
ATOM      1  C   UNL     1      49.110   6.512  16.568  0.00  0.00    +0.000 C 
ATOM      2  C   UNL     1      48.576   5.142  17.055  0.00  0.00    +0.000 C 
ATOM      3  C   UNL     1      47.819   5.320  18.398  0.00  0.00    +0.000 C 
ENDROOT
BRANCH   2   4
ATOM      4  C   UNL     1      49.779   4.205  17.324  0.00  0.00    +0.000 A 
ATOM      5  C   UNL     1      49.580   2.813  17.210  0.00  0.00    +0.000 A 
ATOM      6  C   UNL     1      50.620   1.905  17.386  0.00  0.00    +0.000 A 
ATOM      7  C   UNL     1      51.888   2.373  17.679  0.00  0.00    +0.000 A 
ATOM      8  C   UNL     1      52.133   3.739  17.778  0.00  0.00    +0.000 A 
ATOM      9  C   UNL     1      51.077   4.654  17.632  0.00  0.00    +0.000 A 
BRANCH   8  10
ATOM     10  O   UNL     1      53.394   4.242  18.005  0.00  0.00    +0.000 OA
BRANCH  10  11
ATOM     11  C   UNL     1      53.605   4.840  19.317  0.00  0.00    +0.000 C 
ATOM     12  C   UNL     1      53.008   4.081  20.474  0.00  0.00    +0.000 C 
ATOM     13  C   UNL     1      54.964   5.489  19.477  0.00  0.00    +0.000 C 
ATOM     14  C   UNL     1      53.738   6.345  19.435  0.00  0.00    +0.000 C 
BRANCH  14  15
ATOM     15  O   UNL     1      53.564   7.138  18.250  0.00  0.00    +0.000 OA
ATOM     16  H   UNL     1      53.692   6.612  17.440  0.00  0.00    +0.000 HD
ENDBRANCH  14  15
ENDBRANCH  10  11
ENDBRANCH   8  10
ENDBRANCH   2   4
BRANCH   2  17
ATOM     17  C   UNL     1      47.580   4.587  15.987  0.00  0.00    +0.000 C 
BRANCH  17  18
ATOM     18  N   UNL     1      47.395   5.511  14.866  0.00  0.00    +0.000 N 
ATOM     19  H   UNL     1      47.267   6.487  15.110  0.00  0.00    +0.000 HD
BRANCH  18  20
ATOM     20  C   UNL     1      46.699   5.156  13.719  0.00  0.00    +0.000 A 
ATOM     21  C   UNL     1      46.127   6.078  12.839  0.00  0.00    +0.000 A 
ATOM     22  C   UNL     1      45.332   5.652  11.770  0.00  0.00    +0.000 A 
ATOM     23  C   UNL     1      45.079   4.292  11.573  0.00  0.00    +0.000 A 
ATOM     24  C   UNL     1      45.633   3.358  12.453  0.00  0.00    +0.000 A 
ATOM     25  C   UNL     1      46.429   3.796  13.515  0.00  0.00    +0.000 A 
BRANCH  23  26
ATOM     26  C   UNL     1      44.177   3.890  10.466  0.00  0.00    +0.000 C 
ATOM     27  N   UNL     1      44.146   4.682   9.355  0.00  0.00    +0.000 N 
ATOM     28  O   UNL     1      43.461   2.895  10.552  0.00  0.00    +0.000 OA
ATOM     29  H   UNL     1      44.576   5.592   9.309  0.00  0.00    +0.000 HD
ATOM     30  H   UNL     1      43.469   4.434   8.642  0.00  0.00    +0.000 HD
ENDBRANCH  23  26
ENDBRANCH  18  20
ENDBRANCH  17  18
ENDBRANCH   2  17
TORSDOF 8
ENDMDL
MODEL 9
REMARK VINA RESULT:    -5.922      4.205      8.221
REMARK INTER + INTRA:          -9.160
REMARK INTER:                  -8.061
REMARK INTRA:                  -1.099
REMARK UNBOUND:                -0.642
REMARK  Name = 
REMARK  11 active torsions:
REMARK  status: ('A' for Active; 'I' for Inactive)
REMARK    1  A    between atoms: C_1  and  C_2
REMARK    2  A    between atoms: C_2  and  C_3
REMARK    3  A    between atoms: C_2  and  C_4
REMARK    4  A    between atoms: C_2  and  C_15
REMARK    5  A    between atoms: C_4  and  N_5
REMARK    6  A    between atoms: N_5  and  C_6
REMARK    7  A    between atoms: C_9  and  C_10
REMARK    8  A    between atoms: C_19  and  O_20
REMARK    9  A    between atoms: O_20  and  C_21
REMARK   10  A    between atoms: C_21  and  C_22
REMARK   11  A    between atoms: C_24  and  O_25
REMARK                            x       y       z     vdW  Elec       q    Type
REMARK                         _______ _______ _______ _____ _____    ______ ____
ROOT
ATOM      1  C   UNL     1      49.534  10.192  11.521  0.00  0.00    +0.000 C 
ATOM      2  C   UNL     1      49.118   8.943  12.337  0.00  0.00    +0.000 C 
ATOM      3  C   UNL     1      49.682   7.663  11.665  0.00  0.00    +0.000 C 
ENDROOT
BRANCH   2   4
ATOM      4  C   UNL     1      47.574   8.829  12.323  0.00  0.00    +0.000 A 
ATOM      5  C   UNL     1      46.824   9.958  11.932  0.00  0.00    +0.000 A 
ATOM      6  C   UNL     1      45.435   9.925  11.844  0.00  0.00    +0.000 A 
ATOM      7  C   UNL     1      44.764   8.753  12.143  0.00  0.00    +0.000 A 
ATOM      8  C   UNL     1      45.466   7.609  12.511  0.00  0.00    +0.000 A 
ATOM      9  C   UNL     1      46.866   7.652  12.632  0.00  0.00    +0.000 A 
BRANCH   8  10
ATOM     10  O   UNL     1      44.836   6.410  12.754  0.00  0.00    +0.000 OA
BRANCH  10  11
ATOM     11  C   UNL     1      44.480   5.635  11.573  0.00  0.00    +0.000 C 
ATOM     12  C   UNL     1      45.549   5.548  10.515  0.00  0.00    +0.000 C 
ATOM     13  C   UNL     1      43.637   4.415  11.878  0.00  0.00    +0.000 C 
ATOM     14  C   UNL     1      43.030   5.565  11.139  0.00  0.00    +0.000 C 
BRANCH  14  15
ATOM     15  O   UNL     1      42.065   6.342  11.865  0.00  0.00    +0.000 OA
ATOM     16  H   UNL     1      41.374   5.782  12.263  0.00  0.00    +0.000 HD
ENDBRANCH  14  15
ENDBRANCH  10  11
ENDBRANCH   8  10
ENDBRANCH   2   4
BRANCH   2  17
ATOM     17  C   UNL     1      49.721   9.063  13.774  0.00  0.00    +0.000 C 
BRANCH  17  18
ATOM     18  N   UNL     1      50.499   7.881  14.150  0.00  0.00    +0.000 N 
ATOM     19  H   UNL     1      50.951   7.384  13.389  0.00  0.00    +0.000 HD
BRANCH  18  20
ATOM     20  C   UNL     1      50.112   7.033  15.179  0.00  0.00    +0.000 A 
ATOM     21  C   UNL     1      48.791   6.641  15.409  0.00  0.00    +0.000 A 
ATOM     22  C   UNL     1      48.453   5.887  16.538  0.00  0.00    +0.000 A 
ATOM     23  C   UNL     1      49.431   5.527  17.469  0.00  0.00    +0.000 A 
ATOM     24  C   UNL     1      50.755   5.924  17.260  0.00  0.00    +0.000 A 
ATOM     25  C   UNL     1      51.081   6.674  16.127  0.00  0.00    +0.000 A 
BRANCH  23  26
ATOM     26  C   UNL     1      49.016   4.784  18.683  0.00  0.00    +0.000 C 
ATOM     27  N   UNL     1      49.635   3.596  18.943  0.00  0.00    +0.000 N 
ATOM     28  O   UNL     1      48.127   5.207  19.420  0.00  0.00    +0.000 OA
ATOM     29  H   UNL     1      50.236   3.128  18.284  0.00  0.00    +0.000 HD
ATOM     30  H   UNL     1      49.286   3.068  19.735  0.00  0.00    +0.000 HD
ENDBRANCH  23  26
ENDBRANCH  18  20
ENDBRANCH  17  18
ENDBRANCH   2  17
TORSDOF 8
ENDMDL
