MODEL 1
REMARK VINA RESULT:    -8.725      0.000      0.000
REMARK INTER + INTRA:         -11.674
REMARK INTER:                 -11.276
REMARK INTRA:                  -0.398
REMARK UNBOUND:                -0.398
REMARK  Name = 
REMARK  5 active torsions:
REMARK  status: ('A' for Active; 'I' for Inactive)
REMARK    1  A    between atoms: C_2  and  C_18
REMARK    2  A    between atoms: N_3  and  C_4
REMARK    3  A    between atoms: C_4  and  C_5
REMARK    4  A    between atoms: C_8  and  O_9
REMARK    5  A    between atoms: O_9  and  C_10
REMARK                            x       y       z     vdW  Elec       q    Type
REMARK                         _______ _______ _______ _____ _____    ______ ____
ROOT
ATOM      1  O   UNL     1      47.078   3.228  14.007  0.00  0.00    +0.000 OA
ATOM      2  C   UNL     1      46.847   4.395  14.297  0.00  0.00    +0.000 C 
ATOM      3  N   UNL     1      45.693   5.066  13.968  0.00  0.00    +0.000 N 
ATOM      4  H   UNL     1      45.514   5.958  14.402  0.00  0.00    +0.000 HD
ENDROOT
BRANCH   2   5
ATOM      5  C   UNL     1      47.668   5.177  15.212  0.00  0.00    +0.000 A 
ATOM      6  C   UNL     1      48.312   6.341  14.832  0.00  0.00    +0.000 A 
ATOM      7  S   UNL     1      49.592   6.736  15.903  0.00  0.00    +0.000 S 
ATOM      8  C   UNL     1      49.204   5.437  16.940  0.00  0.00    +0.000 A 
ATOM      9  N   UNL     1      49.986   5.082  17.990  0.00  0.00    +0.000 NA
ATOM     10  C   UNL     1      49.519   4.099  18.689  0.00  0.00    +0.000 A 
ATOM     11  N   UNL     1      48.317   3.471  18.460  0.00  0.00    +0.000 N 
ATOM     12  C   UNL     1      47.482   3.814  17.425  0.00  0.00    +0.000 A 
ATOM     13  O   UNL     1      46.367   3.320  17.294  0.00  0.00    +0.000 OA
ATOM     14  C   UNL     1      48.037   4.814  16.543  0.00  0.00    +0.000 A 
ATOM     15  H   UNL     1      47.968   2.772  19.097  0.00  0.00    +0.000 HD
ENDBRANCH   2   5
BRANCH   3  16
ATOM     16  C   UNL     1      44.543   4.413  13.407  0.00  0.00    +0.000 C 
BRANCH  16  17
ATOM     17  C   UNL     1      44.708   4.328  11.911  0.00  0.00    +0.000 A 
ATOM     18  C   UNL     1      45.439   5.309  11.233  0.00  0.00    +0.000 A 
ATOM     19  C   UNL     1      45.564   5.267   9.842  0.00  0.00    +0.000 A 
ATOM     20  C   UNL     1      44.978   4.229   9.112  0.00  0.00    +0.000 A 
ATOM     21  C   UNL     1      44.194   3.283   9.775  0.00  0.00    +0.000 A 
ATOM     22  C   UNL     1      44.057   3.331  11.166  0.00  0.00    +0.000 A 
BRANCH  20  23
ATOM     23  O   UNL     1      45.048   4.120   7.743  0.00  0.00    +0.000 OA
BRANCH  23  24
ATOM     24  C   UNL     1      46.001   3.269   7.198  0.00  0.00    +0.000 A 
ATOM     25  N   UNL     1      46.326   2.129   7.837  0.00  0.00    +0.000 NA
ATOM     26  C   UNL     1      47.282   1.377   7.264  0.00  0.00    +0.000 A 
ATOM     27  C   UNL     1      47.891   1.705   6.078  0.00  0.00    +0.000 A 
ATOM     28  C   UNL     1      47.454   2.867   5.487  0.00  0.00    +0.000 A 
ATOM     29  N   UNL     1      46.512   3.667   6.021  0.00  0.00    +0.000 NA
ENDBRANCH  23  24
ENDBRANCH  20  23
ENDBRANCH  16  17
ENDBRANCH   3  16
TORSDOF 5
ENDMDL
MODEL 2
REMARK VINA RESULT:    -8.014      1.716      2.923
REMARK INTER + INTRA:         -10.755
REMARK INTER:                 -10.029
REMARK INTRA:                  -0.725
REMARK UNBOUND:                -0.398
REMARK  Name = 
REMARK  5 active torsions:
REMARK  status: ('A' for Active; 'I' for Inactive)
REMARK    1  A    between atoms: C_2  and  C_18
REMARK    2  A    between atoms: N_3  and  C_4
REMARK    3  A    between atoms: C_4  and  C_5
REMARK    4  A    between atoms: C_8  and  O_9
REMARK    5  A    between atoms: O_9  and  C_10
REMARK                            x       y       z     vdW  Elec       q    Type
REMARK                         _______ _______ _______ _____ _____    ______ ____
ROOT
ATOM      1  O   UNL     1      47.137   3.404  14.509  0.00  0.00    +0.000 OA
ATOM      2  C   UNL     1      47.084   4.627  14.501  0.00  0.00    +0.000 C 
ATOM      3  N   UNL     1      46.035   5.358  13.995  0.00  0.00    +0.000 N 
ATOM      4  H   UNL     1      45.996   6.346  14.196  0.00  0.00    +0.000 HD
ENDROOT
BRANCH   2   5
ATOM      5  C   UNL     1      48.026   5.479  15.215  0.00  0.00    +0.000 A 
ATOM      6  C   UNL     1      48.353   5.284  16.545  0.00  0.00    +0.000 A 
ATOM      7  S   UNL     1      49.028   6.697  17.245  0.00  0.00    +0.000 S 
ATOM      8  C   UNL     1      49.007   7.519  15.750  0.00  0.00    +0.000 A 
ATOM      9  N   UNL     1      49.306   8.838  15.637  0.00  0.00    +0.000 NA
ATOM     10  C   UNL     1      49.275   9.286  14.425  0.00  0.00    +0.000 A 
ATOM     11  N   UNL     1      49.019   8.523  13.310  0.00  0.00    +0.000 N 
ATOM     12  C   UNL     1      48.738   7.180  13.374  0.00  0.00    +0.000 A 
ATOM     13  O   UNL     1      48.616   6.490  12.368  0.00  0.00    +0.000 OA
ATOM     14  C   UNL     1      48.626   6.678  14.723  0.00  0.00    +0.000 A 
ATOM     15  H   UNL     1      49.100   8.914  12.384  0.00  0.00    +0.000 HD
ENDBRANCH   2   5
BRANCH   3  16
ATOM     16  C   UNL     1      44.793   4.764  13.587  0.00  0.00    +0.000 C 
BRANCH  16  17
ATOM     17  C   UNL     1      44.797   4.600  12.089  0.00  0.00    +0.000 A 
ATOM     18  C   UNL     1      44.127   3.521  11.503  0.00  0.00    +0.000 A 
ATOM     19  C   UNL     1      44.158   3.332  10.119  0.00  0.00    +0.000 A 
ATOM     20  C   UNL     1      44.840   4.234   9.300  0.00  0.00    +0.000 A 
ATOM     21  C   UNL     1      45.564   5.277   9.881  0.00  0.00    +0.000 A 
ATOM     22  C   UNL     1      45.545   5.460  11.268  0.00  0.00    +0.000 A 
BRANCH  20  23
ATOM     23  O   UNL     1      44.924   4.115   7.932  0.00  0.00    +0.000 OA
BRANCH  23  24
ATOM     24  C   UNL     1      45.883   3.261   7.402  0.00  0.00    +0.000 A 
ATOM     25  N   UNL     1      46.106   2.064   7.978  0.00  0.00    +0.000 NA
ATOM     26  C   UNL     1      47.074   1.310   7.429  0.00  0.00    +0.000 A 
ATOM     27  C   UNL     1      47.794   1.693   6.324  0.00  0.00    +0.000 A 
ATOM     28  C   UNL     1      47.456   2.914   5.789  0.00  0.00    +0.000 A 
ATOM     29  N   UNL     1      46.507   3.717   6.304  0.00  0.00    +0.000 NA
ENDBRANCH  23  24
ENDBRANCH  20  23
ENDBRANCH  16  17
ENDBRANCH   3  16
TORSDOF 5
ENDMDL
MODEL 3
REMARK VINA RESULT:    -7.842      2.253      3.286
REMARK INTER + INTRA:         -10.533
REMARK INTER:                  -9.617
REMARK INTRA:                  -0.916
REMARK UNBOUND:                -0.398
REMARK  Name = 
REMARK  5 active torsions:
REMARK  status: ('A' for Active; 'I' for Inactive)
REMARK    1  A    between atoms: C_2  and  C_18
REMARK    2  A    between atoms: N_3  and  C_4
REMARK    3  A    between atoms: C_4  and  C_5
REMARK    4  A    between atoms: C_8  and  O_9
REMARK    5  A    between atoms: O_9  and  C_10
REMARK                            x       y       z     vdW  Elec       q    Type
REMARK                         _______ _______ _______ _____ _____    ______ ____
ROOT
ATOM      1  O   UNL     1      49.850   7.119  14.320  0.00  0.00    +0.000 OA
ATOM      2  C   UNL     1      48.930   7.369  15.088  0.00  0.00    +0.000 C 
ATOM      3  N   UNL     1      47.879   8.207  14.799  0.00  0.00    +0.000 N 
ATOM      4  H   UNL     1      47.081   8.210  15.415  0.00  0.00    +0.000 HD
ENDROOT
BRANCH   2   5
ATOM      5  C   UNL     1      48.703   6.652  16.337  0.00  0.00    +0.000 A 
ATOM      6  C   UNL     1      49.106   7.144  17.566  0.00  0.00    +0.000 A 
ATOM      7  S   UNL     1      49.202   5.902  18.745  0.00  0.00    +0.000 S 
ATOM      8  C   UNL     1      48.581   4.742  17.658  0.00  0.00    +0.000 A 
ATOM      9  N   UNL     1      48.533   3.418  17.951  0.00  0.00    +0.000 NA
ATOM     10  C   UNL     1      47.999   2.690  17.026  0.00  0.00    +0.000 A 
ATOM     11  N   UNL     1      47.464   3.172  15.855  0.00  0.00    +0.000 N 
ATOM     12  C   UNL     1      47.467   4.506  15.528  0.00  0.00    +0.000 A 
ATOM     13  O   UNL     1      46.895   4.936  14.532  0.00  0.00    +0.000 OA
ATOM     14  C   UNL     1      48.181   5.331  16.474  0.00  0.00    +0.000 A 
ATOM     15  H   UNL     1      46.979   2.562  15.216  0.00  0.00    +0.000 HD
ENDBRANCH   2   5
BRANCH   3  16
ATOM     16  C   UNL     1      47.644   8.740  13.486  0.00  0.00    +0.000 C 
BRANCH  16  17
ATOM     17  C   UNL     1      46.791   7.771  12.708  0.00  0.00    +0.000 A 
ATOM     18  C   UNL     1      47.384   6.914  11.774  0.00  0.00    +0.000 A 
ATOM     19  C   UNL     1      46.602   6.041  11.015  0.00  0.00    +0.000 A 
ATOM     20  C   UNL     1      45.217   5.996  11.196  0.00  0.00    +0.000 A 
ATOM     21  C   UNL     1      44.611   6.892  12.080  0.00  0.00    +0.000 A 
ATOM     22  C   UNL     1      45.392   7.776  12.831  0.00  0.00    +0.000 A 
BRANCH  20  23
ATOM     23  O   UNL     1      44.377   5.171  10.484  0.00  0.00    +0.000 OA
BRANCH  23  24
ATOM     24  C   UNL     1      44.941   4.270   9.591  0.00  0.00    +0.000 A 
ATOM     25  N   UNL     1      45.558   4.721   8.482  0.00  0.00    +0.000 NA
ATOM     26  C   UNL     1      46.045   3.785   7.649  0.00  0.00    +0.000 A 
ATOM     27  C   UNL     1      45.966   2.437   7.898  0.00  0.00    +0.000 A 
ATOM     28  C   UNL     1      45.355   2.086   9.079  0.00  0.00    +0.000 A 
ATOM     29  N   UNL     1      44.835   2.978   9.943  0.00  0.00    +0.000 NA
ENDBRANCH  23  24
ENDBRANCH  20  23
ENDBRANCH  16  17
ENDBRANCH   3  16
TORSDOF 5
ENDMDL
MODEL 4
REMARK VINA RESULT:    -7.784      2.567      3.959
REMARK INTER + INTRA:         -10.457
REMARK INTER:                  -9.573
REMARK INTRA:                  -0.884
REMARK UNBOUND:                -0.398
REMARK  Name = 
REMARK  5 active torsions:
REMARK  status: ('A' for Active; 'I' for Inactive)
REMARK    1  A    between atoms: C_2  and  C_18
REMARK    2  A    between atoms: N_3  and  C_4
REMARK    3  A    between atoms: C_4  and  C_5
REMARK    4  A    between atoms: C_8  and  O_9
REMARK    5  A    between atoms: O_9  and  C_10
REMARK                            x       y       z     vdW  Elec       q    Type
REMARK                         _______ _______ _______ _____ _____    ______ ____
ROOT
ATOM      1  O   UNL     1      47.899   4.851  14.314  0.00  0.00    +0.000 OA
ATOM      2  C   UNL     1      47.573   5.992  14.015  0.00  0.00    +0.000 C 
ATOM      3  N   UNL     1      46.343   6.345  13.512  0.00  0.00    +0.000 N 
ATOM      4  H   UNL     1      46.103   7.324  13.468  0.00  0.00    +0.000 HD
ENDROOT
BRANCH   2   5
ATOM      5  C   UNL     1      48.364   7.170  14.346  0.00  0.00    +0.000 A 
ATOM      6  C   UNL     1      48.840   7.418  15.622  0.00  0.00    +0.000 A 
ATOM      7  S   UNL     1      49.249   9.071  15.835  0.00  0.00    +0.000 S 
ATOM      8  C   UNL     1      48.919   9.424  14.198  0.00  0.00    +0.000 A 
ATOM      9  N   UNL     1      48.913  10.691  13.712  0.00  0.00    +0.000 NA
ATOM     10  C   UNL     1      48.680  10.769  12.442  0.00  0.00    +0.000 A 
ATOM     11  N   UNL     1      48.501   9.691  11.607  0.00  0.00    +0.000 N 
ATOM     12  C   UNL     1      48.526   8.392  12.050  0.00  0.00    +0.000 A 
ATOM     13  O   UNL     1      48.471   7.438  11.282  0.00  0.00    +0.000 OA
ATOM     14  C   UNL     1      48.644   8.274  13.485  0.00  0.00    +0.000 A 
ATOM     15  H   UNL     1      48.415   9.816  10.610  0.00  0.00    +0.000 HD
ENDBRANCH   2   5
BRANCH   3  16
ATOM     16  C   UNL     1      45.232   5.436  13.456  0.00  0.00    +0.000 C 
BRANCH  16  17
ATOM     17  C   UNL     1      45.046   4.976  12.032  0.00  0.00    +0.000 A 
ATOM     18  C   UNL     1      44.351   3.791  11.767  0.00  0.00    +0.000 A 
ATOM     19  C   UNL     1      44.208   3.330  10.456  0.00  0.00    +0.000 A 
ATOM     20  C   UNL     1      44.739   4.060   9.390  0.00  0.00    +0.000 A 
ATOM     21  C   UNL     1      45.488   5.209   9.651  0.00  0.00    +0.000 A 
ATOM     22  C   UNL     1      45.644   5.665  10.964  0.00  0.00    +0.000 A 
BRANCH  20  23
ATOM     23  O   UNL     1      44.648   3.671   8.074  0.00  0.00    +0.000 OA
BRANCH  23  24
ATOM     24  C   UNL     1      45.718   2.985   7.514  0.00  0.00    +0.000 A 
ATOM     25  N   UNL     1      46.081   1.787   8.011  0.00  0.00    +0.000 NA
ATOM     26  C   UNL     1      47.148   1.204   7.439  0.00  0.00    +0.000 A 
ATOM     27  C   UNL     1      47.834   1.754   6.383  0.00  0.00    +0.000 A 
ATOM     28  C   UNL     1      47.354   2.958   5.925  0.00  0.00    +0.000 A 
ATOM     29  N   UNL     1      46.300   3.596   6.468  0.00  0.00    +0.000 NA
ENDBRANCH  23  24
ENDBRANCH  20  23
ENDBRANCH  16  17
ENDBRANCH   3  16
TORSDOF 5
ENDMDL
MODEL 5
REMARK VINA RESULT:    -7.310      1.766      2.551
REMARK INTER + INTRA:          -9.845
REMARK INTER:                  -9.009
REMARK INTRA:                  -0.835
REMARK UNBOUND:                -0.398
REMARK  Name = 
REMARK  5 active torsions:
REMARK  status: ('A' for Active; 'I' for Inactive)
REMARK    1  A    between atoms: C_2  and  C_18
REMARK    2  A    between atoms: N_3  and  C_4
REMARK    3  A    between atoms: C_4  and  C_5
REMARK    4  A    between atoms: C_8  and  O_9
REMARK    5  A    between atoms: O_9  and  C_10
REMARK                            x       y       z     vdW  Elec       q    Type
REMARK                         _______ _______ _______ _____ _____    ______ ____
ROOT
ATOM      1  O   UNL     1      46.103   4.022  16.321  0.00  0.00    +0.000 OA
ATOM      2  C   UNL     1      47.163   4.169  15.728  0.00  0.00    +0.000 C 
ATOM      3  N   UNL     1      47.310   4.877  14.558  0.00  0.00    +0.000 N 
ATOM      4  H   UNL     1      48.242   5.098  14.241  0.00  0.00    +0.000 HD
ENDROOT
BRANCH   2   5
ATOM      5  C   UNL     1      48.458   3.797  16.284  0.00  0.00    +0.000 A 
ATOM      6  C   UNL     1      48.928   2.496  16.281  0.00  0.00    +0.000 A 
ATOM      7  S   UNL     1      50.174   2.270  17.439  0.00  0.00    +0.000 S 
ATOM      8  C   UNL     1      50.178   3.928  17.844  0.00  0.00    +0.000 A 
ATOM      9  N   UNL     1      50.899   4.424  18.881  0.00  0.00    +0.000 NA
ATOM     10  C   UNL     1      50.812   5.707  19.020  0.00  0.00    +0.000 A 
ATOM     11  N   UNL     1      50.107   6.543  18.186  0.00  0.00    +0.000 N 
ATOM     12  C   UNL     1      49.384   6.088  17.111  0.00  0.00    +0.000 A 
ATOM     13  O   UNL     1      48.847   6.851  16.315  0.00  0.00    +0.000 OA
ATOM     14  C   UNL     1      49.346   4.648  17.010  0.00  0.00    +0.000 A 
ATOM     15  H   UNL     1      50.154   7.544  18.295  0.00  0.00    +0.000 HD
ENDBRANCH   2   5
BRANCH   3  16
ATOM     16  C   UNL     1      46.263   5.684  13.997  0.00  0.00    +0.000 C 
BRANCH  16  17
ATOM     17  C   UNL     1      45.771   5.036  12.727  0.00  0.00    +0.000 A 
ATOM     18  C   UNL     1      45.414   3.684  12.726  0.00  0.00    +0.000 A 
ATOM     19  C   UNL     1      44.998   3.059  11.547  0.00  0.00    +0.000 A 
ATOM     20  C   UNL     1      44.911   3.787  10.357  0.00  0.00    +0.000 A 
ATOM     21  C   UNL     1      45.327   5.120  10.336  0.00  0.00    +0.000 A 
ATOM     22  C   UNL     1      45.756   5.742  11.513  0.00  0.00    +0.000 A 
BRANCH  20  23
ATOM     23  O   UNL     1      44.519   3.245   9.155  0.00  0.00    +0.000 OA
BRANCH  23  24
ATOM     24  C   UNL     1      45.502   2.810   8.276  0.00  0.00    +0.000 A 
ATOM     25  N   UNL     1      45.947   3.632   7.307  0.00  0.00    +0.000 NA
ATOM     26  C   UNL     1      46.873   3.125   6.474  0.00  0.00    +0.000 A 
ATOM     27  C   UNL     1      47.383   1.856   6.595  0.00  0.00    +0.000 A 
ATOM     28  C   UNL     1      46.891   1.116   7.645  0.00  0.00    +0.000 A 
ATOM     29  N   UNL     1      45.954   1.565   8.500  0.00  0.00    +0.000 NA
ENDBRANCH  23  24
ENDBRANCH  20  23
ENDBRANCH  16  17
ENDBRANCH   3  16
TORSDOF 5
ENDMDL
MODEL 6
REMARK VINA RESULT:    -7.170      2.739      8.876
REMARK INTER + INTRA:          -9.664
REMARK INTER:                  -8.799
REMARK INTRA:                  -0.864
REMARK UNBOUND:                -0.398
REMARK  Name = 
REMARK  5 active torsions:
REMARK  status: ('A' for Active; 'I' for Inactive)
REMARK    1  A    between atoms: C_2  and  C_18
REMARK    2  A    between atoms: N_3  and  C_4
REMARK    3  A    between atoms: C_4  and  C_5
REMARK    4  A    between atoms: C_8  and  O_9
REMARK    5  A    between atoms: O_9  and  C_10
REMARK                            x       y       z     vdW  Elec       q    Type
REMARK                         _______ _______ _______ _____ _____    ______ ____
ROOT
ATOM      1  O   UNL     1      45.458   8.095  11.544  0.00  0.00    +0.000 OA
ATOM      2  C   UNL     1      45.692   6.896  11.462  0.00  0.00    +0.000 C 
ATOM      3  N   UNL     1      46.898   6.315  11.773  0.00  0.00    +0.000 N 
ATOM      4  H   UNL     1      46.943   5.310  11.851  0.00  0.00    +0.000 HD
ENDROOT
BRANCH   2   5
ATOM      5  C   UNL     1      44.666   5.888  11.227  0.00  0.00    +0.000 A 
ATOM      6  C   UNL     1      43.541   5.763  12.024  0.00  0.00    +0.000 A 
ATOM      7  S   UNL     1      42.817   4.217  11.860  0.00  0.00    +0.000 S 
ATOM      8  C   UNL     1      43.917   3.766  10.636  0.00  0.00    +0.000 A 
ATOM      9  N   UNL     1      43.977   2.506  10.136  0.00  0.00    +0.000 NA
ATOM     10  C   UNL     1      44.844   2.354   9.188  0.00  0.00    +0.000 A 
ATOM     11  N   UNL     1      45.622   3.359   8.664  0.00  0.00    +0.000 N 
ATOM     12  C   UNL     1      45.575   4.654   9.120  0.00  0.00    +0.000 A 
ATOM     13  O   UNL     1      46.194   5.561   8.575  0.00  0.00    +0.000 OA
ATOM     14  C   UNL     1      44.720   4.829  10.271  0.00  0.00    +0.000 A 
ATOM     15  H   UNL     1      46.212   3.194   7.863  0.00  0.00    +0.000 HD
ENDBRANCH   2   5
BRANCH   3  16
ATOM     16  C   UNL     1      47.968   7.029  12.411  0.00  0.00    +0.000 C 
BRANCH  16  17
ATOM     17  C   UNL     1      48.166   6.479  13.800  0.00  0.00    +0.000 A 
ATOM     18  C   UNL     1      47.405   5.389  14.234  0.00  0.00    +0.000 A 
ATOM     19  C   UNL     1      47.546   4.895  15.533  0.00  0.00    +0.000 A 
ATOM     20  C   UNL     1      48.469   5.472  16.410  0.00  0.00    +0.000 A 
ATOM     21  C   UNL     1      49.186   6.600  16.006  0.00  0.00    +0.000 A 
ATOM     22  C   UNL     1      49.036   7.103  14.709  0.00  0.00    +0.000 A 
BRANCH  20  23
ATOM     23  O   UNL     1      48.663   5.050  17.704  0.00  0.00    +0.000 OA
BRANCH  23  24
ATOM     24  C   UNL     1      49.914   4.561  18.058  0.00  0.00    +0.000 A 
ATOM     25  N   UNL     1      50.568   5.088  19.110  0.00  0.00    +0.000 NA
ATOM     26  C   UNL     1      51.789   4.585  19.365  0.00  0.00    +0.000 A 
ATOM     27  C   UNL     1      52.354   3.568  18.635  0.00  0.00    +0.000 A 
ATOM     28  C   UNL     1      51.583   3.072  17.610  0.00  0.00    +0.000 A 
ATOM     29  N   UNL     1      50.362   3.547  17.299  0.00  0.00    +0.000 NA
ENDBRANCH  23  24
ENDBRANCH  20  23
ENDBRANCH  16  17
ENDBRANCH   3  16
TORSDOF 5
ENDMDL
MODEL 7
REMARK VINA RESULT:    -7.058      3.773      9.273
REMARK INTER + INTRA:          -9.519
REMARK INTER:                  -8.769
REMARK INTRA:                  -0.750
REMARK UNBOUND:                -0.398
REMARK  Name = 
REMARK  5 active torsions:
REMARK  status: ('A' for Active; 'I' for Inactive)
REMARK    1  A    between atoms: C_2  and  C_18
REMARK    2  A    between atoms: N_3  and  C_4
REMARK    3  A    between atoms: C_4  and  C_5
REMARK    4  A    between atoms: C_8  and  O_9
REMARK    5  A    between atoms: O_9  and  C_10
REMARK                            x       y       z     vdW  Elec       q    Type
REMARK                         _______ _______ _______ _____ _____    ______ ____
ROOT
ATOM      1  O   UNL     1      47.509   2.892  14.428  0.00  0.00    +0.000 OA
ATOM      2  C   UNL     1      47.008   3.981  14.675  0.00  0.00    +0.000 C 
ATOM      3  N   UNL     1      46.754   4.452  15.942  0.00  0.00    +0.000 N 
ATOM      4  H   UNL     1      46.512   5.425  16.055  0.00  0.00    +0.000 HD
ENDROOT
BRANCH   2   5
ATOM      5  C   UNL     1      46.802   5.021  13.675  0.00  0.00    +0.000 A 
ATOM      6  C   UNL     1      47.630   6.124  13.560  0.00  0.00    +0.000 A 
ATOM      7  S   UNL     1      46.868   7.400  12.704  0.00  0.00    +0.000 S 
ATOM      8  C   UNL     1      45.497   6.440  12.374  0.00  0.00    +0.000 A 
ATOM      9  N   UNL     1      44.373   6.943  11.802  0.00  0.00    +0.000 NA
ATOM     10  C   UNL     1      43.448   6.065  11.592  0.00  0.00    +0.000 A 
ATOM     11  N   UNL     1      43.563   4.721  11.859  0.00  0.00    +0.000 N 
ATOM     12  C   UNL     1      44.689   4.164  12.412  0.00  0.00    +0.000 A 
ATOM     13  O   UNL     1      44.821   2.952  12.547  0.00  0.00    +0.000 OA
ATOM     14  C   UNL     1      45.689   5.137  12.788  0.00  0.00    +0.000 A 
ATOM     15  H   UNL     1      42.838   4.074  11.587  0.00  0.00    +0.000 HD
ENDBRANCH   2   5
BRANCH   3  16
ATOM     16  C   UNL     1      47.224   3.794  17.128  0.00  0.00    +0.000 C 
BRANCH  16  17
ATOM     17  C   UNL     1      48.719   3.970  17.227  0.00  0.00    +0.000 A 
ATOM     18  C   UNL     1      49.543   2.851  17.387  0.00  0.00    +0.000 A 
ATOM     19  C   UNL     1      50.926   3.001  17.524  0.00  0.00    +0.000 A 
ATOM     20  C   UNL     1      51.504   4.273  17.479  0.00  0.00    +0.000 A 
ATOM     21  C   UNL     1      50.682   5.398  17.384  0.00  0.00    +0.000 A 
ATOM     22  C   UNL     1      49.297   5.249  17.261  0.00  0.00    +0.000 A 
BRANCH  20  23
ATOM     23  O   UNL     1      52.853   4.506  17.613  0.00  0.00    +0.000 OA
BRANCH  23  24
ATOM     24  C   UNL     1      53.603   3.617  18.374  0.00  0.00    +0.000 A 
ATOM     25  N   UNL     1      54.325   2.657  17.766  0.00  0.00    +0.000 NA
ATOM     26  C   UNL     1      54.994   1.815  18.573  0.00  0.00    +0.000 A 
ATOM     27  C   UNL     1      54.990   1.918  19.942  0.00  0.00    +0.000 A 
ATOM     28  C   UNL     1      54.255   2.960  20.457  0.00  0.00    +0.000 A 
ATOM     29  N   UNL     1      53.554   3.824  19.700  0.00  0.00    +0.000 NA
ENDBRANCH  23  24
ENDBRANCH  20  23
ENDBRANCH  16  17
ENDBRANCH   3  16
TORSDOF 5
ENDMDL
MODEL 8
REMARK VINA RESULT:    -7.054      2.828      3.665
REMARK INTER + INTRA:          -9.514
REMARK INTER:                  -8.589
REMARK INTRA:                  -0.926
REMARK UNBOUND:                -0.398
REMARK  Name = 
REMARK  5 active torsions:
REMARK  status: ('A' for Active; 'I' for Inactive)
REMARK    1  A    between atoms: C_2  and  C_18
REMARK    2  A    between atoms: N_3  and  C_4
REMARK    3  A    between atoms: C_4  and  C_5
REMARK    4  A    between atoms: C_8  and  O_9
REMARK    5  A    between atoms: O_9  and  C_10
REMARK                            x       y       z     vdW  Elec       q    Type
REMARK                         _______ _______ _______ _____ _____    ______ ____
ROOT
ATOM      1  O   UNL     1      49.694   9.406  15.439  0.00  0.00    +0.000 OA
ATOM      2  C   UNL     1      48.612   8.919  15.740  0.00  0.00    +0.000 C 
ATOM      3  N   UNL     1      47.587   8.688  14.853  0.00  0.00    +0.000 N 
ATOM      4  H   UNL     1      46.809   8.120  15.153  0.00  0.00    +0.000 HD
ENDROOT
BRANCH   2   5
ATOM      5  C   UNL     1      48.330   8.320  17.038  0.00  0.00    +0.000 A 
ATOM      6  C   UNL     1      47.795   9.037  18.094  0.00  0.00    +0.000 A 
ATOM      7  S   UNL     1      48.070   8.254  19.595  0.00  0.00    +0.000 S 
ATOM      8  C   UNL     1      48.778   6.904  18.829  0.00  0.00    +0.000 A 
ATOM      9  N   UNL     1      49.383   5.905  19.520  0.00  0.00    +0.000 NA
ATOM     10  C   UNL     1      49.831   4.945  18.780  0.00  0.00    +0.000 A 
ATOM     11  N   UNL     1      49.687   4.871  17.414  0.00  0.00    +0.000 N 
ATOM     12  C   UNL     1      49.060   5.844  16.676  0.00  0.00    +0.000 A 
ATOM     13  O   UNL     1      48.845   5.718  15.476  0.00  0.00    +0.000 OA
ATOM     14  C   UNL     1      48.672   6.997  17.455  0.00  0.00    +0.000 A 
ATOM     15  H   UNL     1      49.979   4.050  16.905  0.00  0.00    +0.000 HD
ENDBRANCH   2   5
BRANCH   3  16
ATOM     16  C   UNL     1      47.740   8.820  13.431  0.00  0.00    +0.000 C 
BRANCH  16  17
ATOM     17  C   UNL     1      46.827   7.835  12.746  0.00  0.00    +0.000 A 
ATOM     18  C   UNL     1      45.731   8.295  12.009  0.00  0.00    +0.000 A 
ATOM     19  C   UNL     1      44.852   7.393  11.405  0.00  0.00    +0.000 A 
ATOM     20  C   UNL     1      45.071   6.017  11.510  0.00  0.00    +0.000 A 
ATOM     21  C   UNL     1      46.125   5.549  12.297  0.00  0.00    +0.000 A 
ATOM     22  C   UNL     1      46.998   6.451  12.913  0.00  0.00    +0.000 A 
BRANCH  20  23
ATOM     23  O   UNL     1      44.249   5.066  10.952  0.00  0.00    +0.000 OA
BRANCH  23  24
ATOM     24  C   UNL     1      44.778   4.230   9.976  0.00  0.00    +0.000 A 
ATOM     25  N   UNL     1      44.670   2.894  10.108  0.00  0.00    +0.000 NA
ATOM     26  C   UNL     1      45.238   2.153   9.140  0.00  0.00    +0.000 A 
ATOM     27  C   UNL     1      45.872   2.695   8.048  0.00  0.00    +0.000 A 
ATOM     28  C   UNL     1      45.887   4.069   7.991  0.00  0.00    +0.000 A 
ATOM     29  N   UNL     1      45.348   4.860   8.937  0.00  0.00    +0.000 NA
ENDBRANCH  23  24
ENDBRANCH  20  23
ENDBRANCH  16  17
ENDBRANCH   3  16
TORSDOF 5
ENDMDL
MODEL 9
REMARK VINA RESULT:    -6.872      3.801      8.597
REMARK INTER + INTRA:          -9.280
REMARK INTER:                  -8.343
REMARK INTRA:                  -0.937
REMARK UNBOUND:                -0.398
REMARK  Name = 
REMARK  5 active torsions:
REMARK  status: ('A' for Active; 'I' for Inactive)
REMARK    1  A    between atoms: C_2  and  C_18
REMARK    2  A    between atoms: N_3  and  C_4
REMARK    3  A    between atoms: C_4  and  C_5
REMARK    4  A    between atoms: C_8  and  O_9
REMARK    5  A    between atoms: O_9  and  C_10
REMARK                            x       y       z     vdW  Elec       q    Type
REMARK                         _______ _______ _______ _____ _____    ______ ____
ROOT
ATOM      1  O   UNL     1      47.523   2.889  14.273  0.00  0.00    +0.000 OA
ATOM      2  C   UNL     1      46.983   3.962  14.509  0.00  0.00    +0.000 C 
ATOM      3  N   UNL     1      46.750   4.456  15.771  0.00  0.00    +0.000 N 
ATOM      4  H   UNL     1      46.470   5.420  15.867  0.00  0.00    +0.000 HD
ENDROOT
BRANCH   2   5
ATOM      5  C   UNL     1      46.701   4.965  13.490  0.00  0.00    +0.000 A 
ATOM      6  C   UNL     1      47.506   6.072  13.286  0.00  0.00    +0.000 A 
ATOM      7  S   UNL     1      46.676   7.310  12.438  0.00  0.00    +0.000 S 
ATOM      8  C   UNL     1      45.299   6.325  12.228  0.00  0.00    +0.000 A 
ATOM      9  N   UNL     1      44.136   6.796  11.712  0.00  0.00    +0.000 NA
ATOM     10  C   UNL     1      43.210   5.902  11.591  0.00  0.00    +0.000 A 
ATOM     11  N   UNL     1      43.358   4.569  11.894  0.00  0.00    +0.000 N 
ATOM     12  C   UNL     1      44.525   4.043  12.393  0.00  0.00    +0.000 A 
ATOM     13  O   UNL     1      44.680   2.838  12.559  0.00  0.00    +0.000 OA
ATOM     14  C   UNL     1      45.533   5.039  12.672  0.00  0.00    +0.000 A 
ATOM     15  H   UNL     1      42.627   3.906  11.690  0.00  0.00    +0.000 HD
ENDBRANCH   2   5
BRANCH   3  16
ATOM     16  C   UNL     1      47.285   3.850  16.958  0.00  0.00    +0.000 C 
BRANCH  16  17
ATOM     17  C   UNL     1      48.674   4.387  17.199  0.00  0.00    +0.000 A 
ATOM     18  C   UNL     1      49.729   3.504  17.453  0.00  0.00    +0.000 A 
ATOM     19  C   UNL     1      51.011   3.988  17.721  0.00  0.00    +0.000 A 
ATOM     20  C   UNL     1      51.261   5.363  17.716  0.00  0.00    +0.000 A 
ATOM     21  C   UNL     1      50.201   6.252  17.527  0.00  0.00    +0.000 A 
ATOM     22  C   UNL     1      48.914   5.768  17.271  0.00  0.00    +0.000 A 
BRANCH  20  23
ATOM     23  O   UNL     1      52.492   5.919  17.977  0.00  0.00    +0.000 OA
BRANCH  23  24
ATOM     24  C   UNL     1      53.478   5.823  17.004  0.00  0.00    +0.000 A 
ATOM     25  N   UNL     1      54.465   4.916  17.135  0.00  0.00    +0.000 NA
ATOM     26  C   UNL     1      55.400   4.911  16.170  0.00  0.00    +0.000 A 
ATOM     27  C   UNL     1      55.367   5.746  15.080  0.00  0.00    +0.000 A 
ATOM     28  C   UNL     1      54.293   6.603  15.022  0.00  0.00    +0.000 A 
ATOM     29  N   UNL     1      53.335   6.664  15.966  0.00  0.00    +0.000 NA
ENDBRANCH  23  24
ENDBRANCH  20  23
ENDBRANCH  16  17
ENDBRANCH   3  16
TORSDOF 5
ENDMDL
