MODEL 1
REMARK VINA RESULT:    -8.254      0.000      0.000
REMARK INTER + INTRA:         -13.286
REMARK INTER:                 -12.115
REMARK INTRA:                  -1.171
REMARK UNBOUND:                -1.171
REMARK  Name = 
REMARK  9 active torsions:
REMARK  status: ('A' for Active; 'I' for Inactive)
REMARK    1  A    between atoms: C_1  and  O_2
REMARK    2  A    between atoms: O_2  and  C_3
REMARK    3  A    between atoms: C_10  and  C_11
REMARK    4  A    between atoms: N_13  and  C_14
REMARK    5  A    between atoms: C_14  and  C_15
REMARK    6  A    between atoms: C_18  and  C_19
REMARK    7  A    between atoms: C_19  and  N_20
REMARK    8  A    between atoms: N_20  and  C_21
REMARK    9  A    between atoms: C_21  and  C_22
REMARK                            x       y       z     vdW  Elec       q    Type
REMARK                         _______ _______ _______ _____ _____    ______ ____
ROOT
ATOM      1  C   UNL     1      48.136   6.595  13.271  0.00  0.00    +0.000 C 
ENDROOT
BRANCH   1   2
ATOM      2  C   UNL     1      46.926   5.917  12.678  0.00  0.00    +0.000 A 
ATOM      3  C   UNL     1      46.416   6.318  11.436  0.00  0.00    +0.000 A 
ATOM      4  C   UNL     1      45.297   5.683  10.888  0.00  0.00    +0.000 A 
ATOM      5  C   UNL     1      44.657   4.638  11.570  0.00  0.00    +0.000 A 
ATOM      6  C   UNL     1      45.142   4.266  12.831  0.00  0.00    +0.000 A 
ATOM      7  C   UNL     1      46.261   4.903  13.381  0.00  0.00    +0.000 A 
BRANCH   5   8
ATOM      8  C   UNL     1      43.464   3.931  10.959  0.00  0.00    +0.000 C 
BRANCH   8   9
ATOM      9  N   UNL     1      43.761   3.492   9.596  0.00  0.00    +0.000 NA
ATOM     10  H   UNL     1      44.311   4.216   9.132  0.00  0.00    +0.000 HD
BRANCH   9  11
ATOM     11  C   UNL     1      44.547   2.251   9.587  0.00  0.00    +0.000 C 
BRANCH  11  12
ATOM     12  C   UNL     1      45.573   2.245   8.468  0.00  0.00    +0.000 A 
ATOM     13  C   UNL     1      45.807   3.404   7.727  0.00  0.00    +0.000 A 
ATOM     14  C   UNL     1      46.776   3.385   6.729  0.00  0.00    +0.000 A 
ATOM     15  C   UNL     1      47.480   2.213   6.489  0.00  0.00    +0.000 A 
ATOM     16  C   UNL     1      47.183   1.103   7.261  0.00  0.00    +0.000 A 
ATOM     17  N   UNL     1      46.253   1.091   8.242  0.00  0.00    +0.000 NA
ENDBRANCH  11  12
ENDBRANCH   9  11
ENDBRANCH   8   9
ENDBRANCH   5   8
ENDBRANCH   1   2
BRANCH   1  20
ATOM     18  C   UNL     1      49.129   6.829  15.514  0.00  0.00    +0.000 C 
ATOM     19  O   UNL     1      50.262   6.927  15.047  0.00  0.00    +0.000 OA
ATOM     20  N   UNL     1      48.038   6.659  14.707  0.00  0.00    +0.000 N 
ATOM     21  H   UNL     1      47.123   6.524  15.112  0.00  0.00    +0.000 HD
BRANCH  18  29
ATOM     22  C   UNL     1      48.884   4.436  17.977  0.00  0.00    +0.000 A 
ATOM     23  N   UNL     1      48.740   3.724  19.112  0.00  0.00    +0.000 NA
ATOM     24  C   UNL     1      48.490   4.390  20.243  0.00  0.00    +0.000 A 
ATOM     25  N   UNL     1      48.366   5.707  20.385  0.00  0.00    +0.000 NA
ATOM     26  C   UNL     1      48.526   6.378  19.232  0.00  0.00    +0.000 A 
ATOM     27  S   UNL     1      48.402   8.072  19.226  0.00  0.00    +0.000 S 
ATOM     28  C   UNL     1      48.694   8.137  17.553  0.00  0.00    +0.000 A 
ATOM     29  C   UNL     1      48.888   6.891  16.966  0.00  0.00    +0.000 A 
ATOM     30  C   UNL     1      48.791   5.839  17.977  0.00  0.00    +0.000 A 
BRANCH  22  32
ATOM     31  C   UNL     1      48.108   2.928  16.362  0.00  0.00    +0.000 C 
ATOM     32  O   UNL     1      49.179   3.751  16.818  0.00  0.00    +0.000 OA
ENDBRANCH  22  32
ENDBRANCH  18  29
ENDBRANCH   1  20
TORSDOF 8
ENDMDL
MODEL 2
REMARK VINA RESULT:    -7.652      1.936      2.423
REMARK INTER + INTRA:         -12.402
REMARK INTER:                 -10.941
REMARK INTRA:                  -1.461
REMARK UNBOUND:                -1.171
REMARK  Name = 
REMARK  9 active torsions:
REMARK  status: ('A' for Active; 'I' for Inactive)
REMARK    1  A    between atoms: C_1  and  O_2
REMARK    2  A    between atoms: O_2  and  C_3
REMARK    3  A    between atoms: C_10  and  C_11
REMARK    4  A    between atoms: N_13  and  C_14
REMARK    5  A    between atoms: C_14  and  C_15
REMARK    6  A    between atoms: C_18  and  C_19
REMARK    7  A    between atoms: C_19  and  N_20
REMARK    8  A    between atoms: N_20  and  C_21
REMARK    9  A    between atoms: C_21  and  C_22
REMARK                            x       y       z     vdW  Elec       q    Type
REMARK                         _______ _______ _______ _____ _____    ______ ____
ROOT
ATOM      1  C   UNL     1      45.866   8.315  12.700  0.00  0.00    +0.000 C 
ENDROOT
BRANCH   1   2
ATOM      2  C   UNL     1      45.307   6.983  12.266  0.00  0.00    +0.000 A 
ATOM      3  C   UNL     1      44.556   6.198  13.150  0.00  0.00    +0.000 A 
ATOM      4  C   UNL     1      44.035   4.966  12.742  0.00  0.00    +0.000 A 
ATOM      5  C   UNL     1      44.257   4.486  11.443  0.00  0.00    +0.000 A 
ATOM      6  C   UNL     1      45.043   5.253  10.573  0.00  0.00    +0.000 A 
ATOM      7  C   UNL     1      45.567   6.485  10.982  0.00  0.00    +0.000 A 
BRANCH   5   8
ATOM      8  C   UNL     1      43.664   3.166  10.994  0.00  0.00    +0.000 C 
BRANCH   8   9
ATOM      9  N   UNL     1      43.890   2.952   9.566  0.00  0.00    +0.000 NA
ATOM     10  H   UNL     1      44.394   3.756   9.190  0.00  0.00    +0.000 HD
BRANCH   9  11
ATOM     11  C   UNL     1      44.704   1.754   9.321  0.00  0.00    +0.000 C 
BRANCH  11  12
ATOM     12  C   UNL     1      45.758   1.999   8.256  0.00  0.00    +0.000 A 
ATOM     13  C   UNL     1      45.844   3.244   7.631  0.00  0.00    +0.000 A 
ATOM     14  C   UNL     1      46.839   3.458   6.683  0.00  0.00    +0.000 A 
ATOM     15  C   UNL     1      47.717   2.427   6.376  0.00  0.00    +0.000 A 
ATOM     16  C   UNL     1      47.560   1.218   7.032  0.00  0.00    +0.000 A 
ATOM     17  N   UNL     1      46.607   0.982   7.963  0.00  0.00    +0.000 NA
ENDBRANCH  11  12
ENDBRANCH   9  11
ENDBRANCH   8   9
ENDBRANCH   5   8
ENDBRANCH   1   2
BRANCH   1  20
ATOM     18  C   UNL     1      48.219   8.354  13.432  0.00  0.00    +0.000 C 
ATOM     19  O   UNL     1      48.603   8.699  12.316  0.00  0.00    +0.000 OA
ATOM     20  N   UNL     1      46.894   8.142  13.695  0.00  0.00    +0.000 N 
ATOM     21  H   UNL     1      46.604   7.805  14.601  0.00  0.00    +0.000 HD
BRANCH  18  29
ATOM     22  C   UNL     1      48.706   5.806  15.695  0.00  0.00    +0.000 A 
ATOM     23  N   UNL     1      49.103   4.981  16.684  0.00  0.00    +0.000 NA
ATOM     24  C   UNL     1      50.106   5.381  17.472  0.00  0.00    +0.000 A 
ATOM     25  N   UNL     1      50.778   6.527  17.392  0.00  0.00    +0.000 NA
ATOM     26  C   UNL     1      50.356   7.315  16.389  0.00  0.00    +0.000 A 
ATOM     27  S   UNL     1      51.103   8.819  16.137  0.00  0.00    +0.000 S 
ATOM     28  C   UNL     1      50.086   9.160  14.819  0.00  0.00    +0.000 A 
ATOM     29  C   UNL     1      49.165   8.155  14.543  0.00  0.00    +0.000 A 
ATOM     30  C   UNL     1      49.334   7.048  15.484  0.00  0.00    +0.000 A 
BRANCH  22  32
ATOM     31  C   UNL     1      47.163   4.109  15.230  0.00  0.00    +0.000 C 
ATOM     32  O   UNL     1      47.699   5.377  14.861  0.00  0.00    +0.000 OA
ENDBRANCH  22  32
ENDBRANCH  18  29
ENDBRANCH   1  20
TORSDOF 8
ENDMDL
MODEL 3
REMARK VINA RESULT:    -7.389      2.508      3.265
REMARK INTER + INTRA:         -12.016
REMARK INTER:                 -11.030
REMARK INTRA:                  -0.985
REMARK UNBOUND:                -1.171
REMARK  Name = 
REMARK  9 active torsions:
REMARK  status: ('A' for Active; 'I' for Inactive)
REMARK    1  A    between atoms: C_1  and  O_2
REMARK    2  A    between atoms: O_2  and  C_3
REMARK    3  A    between atoms: C_10  and  C_11
REMARK    4  A    between atoms: N_13  and  C_14
REMARK    5  A    between atoms: C_14  and  C_15
REMARK    6  A    between atoms: C_18  and  C_19
REMARK    7  A    between atoms: C_19  and  N_20
REMARK    8  A    between atoms: N_20  and  C_21
REMARK    9  A    between atoms: C_21  and  C_22
REMARK                            x       y       z     vdW  Elec       q    Type
REMARK                         _______ _______ _______ _____ _____    ______ ____
ROOT
ATOM      1  C   UNL     1      48.694   6.887  15.642  0.00  0.00    +0.000 C 
ENDROOT
BRANCH   1   2
ATOM      2  C   UNL     1      47.812   6.160  14.658  0.00  0.00    +0.000 A 
ATOM      3  C   UNL     1      47.204   4.945  15.000  0.00  0.00    +0.000 A 
ATOM      4  C   UNL     1      46.383   4.277  14.086  0.00  0.00    +0.000 A 
ATOM      5  C   UNL     1      46.155   4.804  12.806  0.00  0.00    +0.000 A 
ATOM      6  C   UNL     1      46.796   5.997  12.451  0.00  0.00    +0.000 A 
ATOM      7  C   UNL     1      47.620   6.665  13.364  0.00  0.00    +0.000 A 
BRANCH   5   8
ATOM      8  C   UNL     1      45.239   4.094  11.830  0.00  0.00    +0.000 C 
BRANCH   8   9
ATOM      9  N   UNL     1      44.815   4.997  10.762  0.00  0.00    +0.000 NA
ATOM     10  H   UNL     1      45.637   5.476  10.393  0.00  0.00    +0.000 HD
BRANCH   9  11
ATOM     11  C   UNL     1      44.181   4.267   9.656  0.00  0.00    +0.000 C 
BRANCH  11  12
ATOM     12  C   UNL     1      45.207   3.551   8.796  0.00  0.00    +0.000 A 
ATOM     13  C   UNL     1      45.346   2.165   8.880  0.00  0.00    +0.000 A 
ATOM     14  C   UNL     1      46.268   1.525   8.058  0.00  0.00    +0.000 A 
ATOM     15  C   UNL     1      47.033   2.282   7.180  0.00  0.00    +0.000 A 
ATOM     16  C   UNL     1      46.843   3.653   7.162  0.00  0.00    +0.000 A 
ATOM     17  N   UNL     1      45.950   4.302   7.944  0.00  0.00    +0.000 NA
ENDBRANCH  11  12
ENDBRANCH   9  11
ENDBRANCH   8   9
ENDBRANCH   5   8
ENDBRANCH   1   2
BRANCH   1  20
ATOM     18  C   UNL     1      50.046   5.918  17.460  0.00  0.00    +0.000 C 
ATOM     19  O   UNL     1      49.443   6.570  18.311  0.00  0.00    +0.000 OA
ATOM     20  N   UNL     1      49.738   6.024  16.132  0.00  0.00    +0.000 N 
ATOM     21  H   UNL     1      50.282   5.523  15.444  0.00  0.00    +0.000 HD
BRANCH  18  29
ATOM     22  C   UNL     1      50.431   2.509  17.180  0.00  0.00    +0.000 A 
ATOM     23  N   UNL     1      50.835   1.223  17.198  0.00  0.00    +0.000 NA
ATOM     24  C   UNL     1      52.030   0.948  17.728  0.00  0.00    +0.000 A 
ATOM     25  N   UNL     1      52.892   1.815  18.252  0.00  0.00    +0.000 NA
ATOM     26  C   UNL     1      52.455   3.085  18.206  0.00  0.00    +0.000 A 
ATOM     27  S   UNL     1      53.429   4.328  18.830  0.00  0.00    +0.000 S 
ATOM     28  C   UNL     1      52.268   5.505  18.433  0.00  0.00    +0.000 A 
ATOM     29  C   UNL     1      51.127   4.989  17.828  0.00  0.00    +0.000 A 
ATOM     30  C   UNL     1      51.245   3.537  17.689  0.00  0.00    +0.000 A 
BRANCH  22  32
ATOM     31  C   UNL     1      48.138   2.824  17.532  0.00  0.00    +0.000 C 
ATOM     32  O   UNL     1      49.216   2.797  16.599  0.00  0.00    +0.000 OA
ENDBRANCH  22  32
ENDBRANCH  18  29
ENDBRANCH   1  20
TORSDOF 8
ENDMDL
MODEL 4
REMARK VINA RESULT:    -7.232      1.607      2.181
REMARK INTER + INTRA:         -11.785
REMARK INTER:                 -10.684
REMARK INTRA:                  -1.101
REMARK UNBOUND:                -1.171
REMARK  Name = 
REMARK  9 active torsions:
REMARK  status: ('A' for Active; 'I' for Inactive)
REMARK    1  A    between atoms: C_1  and  O_2
REMARK    2  A    between atoms: O_2  and  C_3
REMARK    3  A    between atoms: C_10  and  C_11
REMARK    4  A    between atoms: N_13  and  C_14
REMARK    5  A    between atoms: C_14  and  C_15
REMARK    6  A    between atoms: C_18  and  C_19
REMARK    7  A    between atoms: C_19  and  N_20
REMARK    8  A    between atoms: N_20  and  C_21
REMARK    9  A    between atoms: C_21  and  C_22
REMARK                            x       y       z     vdW  Elec       q    Type
REMARK                         _______ _______ _______ _____ _____    ______ ____
ROOT
ATOM      1  C   UNL     1      47.929   7.386  13.833  0.00  0.00    +0.000 C 
ENDROOT
BRANCH   1   2
ATOM      2  C   UNL     1      46.997   6.472  13.079  0.00  0.00    +0.000 A 
ATOM      3  C   UNL     1      46.550   5.273  13.651  0.00  0.00    +0.000 A 
ATOM      4  C   UNL     1      45.682   4.430  12.950  0.00  0.00    +0.000 A 
ATOM      5  C   UNL     1      45.243   4.761  11.659  0.00  0.00    +0.000 A 
ATOM      6  C   UNL     1      45.723   5.939  11.073  0.00  0.00    +0.000 A 
ATOM      7  C   UNL     1      46.595   6.782  11.772  0.00  0.00    +0.000 A 
BRANCH   5   8
ATOM      8  C   UNL     1      44.277   3.861  10.916  0.00  0.00    +0.000 C 
BRANCH   8   9
ATOM      9  N   UNL     1      44.879   2.555  10.654  0.00  0.00    +0.000 NA
ATOM     10  H   UNL     1      44.531   1.890  11.345  0.00  0.00    +0.000 HD
BRANCH   9  11
ATOM     11  C   UNL     1      44.519   2.052   9.321  0.00  0.00    +0.000 C 
BRANCH  11  12
ATOM     12  C   UNL     1      45.670   2.193   8.340  0.00  0.00    +0.000 A 
ATOM     13  C   UNL     1      45.940   3.429   7.751  0.00  0.00    +0.000 A 
ATOM     14  C   UNL     1      47.019   3.543   6.881  0.00  0.00    +0.000 A 
ATOM     15  C   UNL     1      47.796   2.423   6.613  0.00  0.00    +0.000 A 
ATOM     16  C   UNL     1      47.458   1.231   7.230  0.00  0.00    +0.000 A 
ATOM     17  N   UNL     1      46.419   1.090   8.085  0.00  0.00    +0.000 NA
ENDBRANCH  11  12
ENDBRANCH   9  11
ENDBRANCH   8   9
ENDBRANCH   5   8
ENDBRANCH   1   2
BRANCH   1  20
ATOM     18  C   UNL     1      48.473   7.585  16.228  0.00  0.00    +0.000 C 
ATOM     19  O   UNL     1      48.357   8.809  16.195  0.00  0.00    +0.000 OA
ATOM     20  N   UNL     1      48.284   6.821  15.110  0.00  0.00    +0.000 N 
ATOM     21  H   UNL     1      48.438   5.824  15.144  0.00  0.00    +0.000 HD
BRANCH  18  29
ATOM     22  C   UNL     1      51.181   5.695  17.202  0.00  0.00    +0.000 A 
ATOM     23  N   UNL     1      52.094   4.927  17.828  0.00  0.00    +0.000 NA
ATOM     24  C   UNL     1      51.830   4.530  19.076  0.00  0.00    +0.000 A 
ATOM     25  N   UNL     1      50.746   4.812  19.793  0.00  0.00    +0.000 NA
ATOM     26  C   UNL     1      49.866   5.586  19.135  0.00  0.00    +0.000 A 
ATOM     27  S   UNL     1      48.422   6.047  19.900  0.00  0.00    +0.000 S 
ATOM     28  C   UNL     1      47.917   6.918  18.531  0.00  0.00    +0.000 A 
ATOM     29  C   UNL     1      48.819   6.879  17.473  0.00  0.00    +0.000 A 
ATOM     30  C   UNL     1      49.990   6.083  17.842  0.00  0.00    +0.000 A 
BRANCH  22  32
ATOM     31  C   UNL     1      52.392   7.223  15.905  0.00  0.00    +0.000 C 
ATOM     32  O   UNL     1      51.470   6.136  15.929  0.00  0.00    +0.000 OA
ENDBRANCH  22  32
ENDBRANCH  18  29
ENDBRANCH   1  20
TORSDOF 8
ENDMDL
MODEL 5
REMARK VINA RESULT:    -7.016      4.492      9.344
REMARK INTER + INTRA:         -11.468
REMARK INTER:                 -10.520
REMARK INTRA:                  -0.948
REMARK UNBOUND:                -1.171
REMARK  Name = 
REMARK  9 active torsions:
REMARK  status: ('A' for Active; 'I' for Inactive)
REMARK    1  A    between atoms: C_1  and  O_2
REMARK    2  A    between atoms: O_2  and  C_3
REMARK    3  A    between atoms: C_10  and  C_11
REMARK    4  A    between atoms: N_13  and  C_14
REMARK    5  A    between atoms: C_14  and  C_15
REMARK    6  A    between atoms: C_18  and  C_19
REMARK    7  A    between atoms: C_19  and  N_20
REMARK    8  A    between atoms: N_20  and  C_21
REMARK    9  A    between atoms: C_21  and  C_22
REMARK                            x       y       z     vdW  Elec       q    Type
REMARK                         _______ _______ _______ _____ _____    ______ ____
ROOT
ATOM      1  C   UNL     1      47.171   3.387  16.829  0.00  0.00    +0.000 C 
ENDROOT
BRANCH   1   2
ATOM      2  C   UNL     1      48.645   3.409  17.143  0.00  0.00    +0.000 A 
ATOM      3  C   UNL     1      49.276   4.595  17.544  0.00  0.00    +0.000 A 
ATOM      4  C   UNL     1      50.643   4.609  17.839  0.00  0.00    +0.000 A 
ATOM      5  C   UNL     1      51.414   3.442  17.736  0.00  0.00    +0.000 A 
ATOM      6  C   UNL     1      50.791   2.267  17.295  0.00  0.00    +0.000 A 
ATOM      7  C   UNL     1      49.423   2.252  16.996  0.00  0.00    +0.000 A 
BRANCH   5   8
ATOM      8  C   UNL     1      52.887   3.455  18.087  0.00  0.00    +0.000 C 
BRANCH   8   9
ATOM      9  N   UNL     1      53.183   2.471  19.127  0.00  0.00    +0.000 NA
ATOM     10  H   UNL     1      52.570   1.665  18.998  0.00  0.00    +0.000 HD
BRANCH   9  11
ATOM     11  C   UNL     1      54.572   2.001  19.048  0.00  0.00    +0.000 C 
BRANCH  11  12
ATOM     12  C   UNL     1      54.669   0.649  18.362  0.00  0.00    +0.000 A 
ATOM     13  C   UNL     1      55.044   0.571  17.020  0.00  0.00    +0.000 A 
ATOM     14  C   UNL     1      55.159  -0.679  16.421  0.00  0.00    +0.000 A 
ATOM     15  C   UNL     1      54.891  -1.817  17.170  0.00  0.00    +0.000 A 
ATOM     16  C   UNL     1      54.516  -1.656  18.493  0.00  0.00    +0.000 A 
ATOM     17  N   UNL     1      54.402  -0.455  19.105  0.00  0.00    +0.000 NA
ENDBRANCH  11  12
ENDBRANCH   9  11
ENDBRANCH   8   9
ENDBRANCH   5   8
ENDBRANCH   1   2
BRANCH   1  20
ATOM     18  C   UNL     1      46.884   4.254  14.540  0.00  0.00    +0.000 C 
ATOM     19  O   UNL     1      47.243   3.186  14.047  0.00  0.00    +0.000 OA
ATOM     20  N   UNL     1      46.828   4.430  15.895  0.00  0.00    +0.000 N 
ATOM     21  H   UNL     1      46.584   5.330  16.280  0.00  0.00    +0.000 HD
BRANCH  18  29
ATOM     22  C   UNL     1      44.095   4.953  12.646  0.00  0.00    +0.000 A 
ATOM     23  N   UNL     1      43.145   5.468  11.840  0.00  0.00    +0.000 NA
ATOM     24  C   UNL     1      43.375   6.659  11.280  0.00  0.00    +0.000 A 
ATOM     25  N   UNL     1      44.458   7.418  11.429  0.00  0.00    +0.000 NA
ATOM     26  C   UNL     1      45.375   6.872  12.246  0.00  0.00    +0.000 A 
ATOM     27  S   UNL     1      46.822   7.704  12.553  0.00  0.00    +0.000 S 
ATOM     28  C   UNL     1      47.380   6.461  13.570  0.00  0.00    +0.000 A 
ATOM     29  C   UNL     1      46.493   5.397  13.697  0.00  0.00    +0.000 A 
ATOM     30  C   UNL     1      45.289   5.650  12.905  0.00  0.00    +0.000 A 
BRANCH  22  32
ATOM     31  C   UNL     1      43.544   2.700  12.327  0.00  0.00    +0.000 C 
ATOM     32  O   UNL     1      43.842   3.743  13.252  0.00  0.00    +0.000 OA
ENDBRANCH  22  32
ENDBRANCH  18  29
ENDBRANCH   1  20
TORSDOF 8
ENDMDL
MODEL 6
REMARK VINA RESULT:    -6.216      3.042      4.057
REMARK INTER + INTRA:         -10.295
REMARK INTER:                  -9.544
REMARK INTRA:                  -0.751
REMARK UNBOUND:                -1.171
REMARK  Name = 
REMARK  9 active torsions:
REMARK  status: ('A' for Active; 'I' for Inactive)
REMARK    1  A    between atoms: C_1  and  O_2
REMARK    2  A    between atoms: O_2  and  C_3
REMARK    3  A    between atoms: C_10  and  C_11
REMARK    4  A    between atoms: N_13  and  C_14
REMARK    5  A    between atoms: C_14  and  C_15
REMARK    6  A    between atoms: C_18  and  C_19
REMARK    7  A    between atoms: C_19  and  N_20
REMARK    8  A    between atoms: N_20  and  C_21
REMARK    9  A    between atoms: C_21  and  C_22
REMARK                            x       y       z     vdW  Elec       q    Type
REMARK                         _______ _______ _______ _____ _____    ______ ____
ROOT
ATOM      1  C   UNL     1      45.897   8.078  13.007  0.00  0.00    +0.000 C 
ENDROOT
BRANCH   1   2
ATOM      2  C   UNL     1      45.303   6.816  12.435  0.00  0.00    +0.000 A 
ATOM      3  C   UNL     1      44.879   5.777  13.274  0.00  0.00    +0.000 A 
ATOM      4  C   UNL     1      44.323   4.611  12.739  0.00  0.00    +0.000 A 
ATOM      5  C   UNL     1      44.183   4.451  11.352  0.00  0.00    +0.000 A 
ATOM      6  C   UNL     1      44.645   5.473  10.513  0.00  0.00    +0.000 A 
ATOM      7  C   UNL     1      45.204   6.640  11.047  0.00  0.00    +0.000 A 
BRANCH   5   8
ATOM      8  C   UNL     1      43.551   3.200  10.778  0.00  0.00    +0.000 C 
BRANCH   8   9
ATOM      9  N   UNL     1      44.014   2.963   9.411  0.00  0.00    +0.000 NA
ATOM     10  H   UNL     1      44.295   3.855   9.002  0.00  0.00    +0.000 HD
BRANCH   9  11
ATOM     11  C   UNL     1      45.176   2.065   9.382  0.00  0.00    +0.000 C 
BRANCH  11  12
ATOM     12  C   UNL     1      45.997   2.252   8.118  0.00  0.00    +0.000 A 
ATOM     13  C   UNL     1      46.838   1.231   7.673  0.00  0.00    +0.000 A 
ATOM     14  C   UNL     1      47.556   1.410   6.495  0.00  0.00    +0.000 A 
ATOM     15  C   UNL     1      47.424   2.602   5.795  0.00  0.00    +0.000 A 
ATOM     16  C   UNL     1      46.577   3.570   6.307  0.00  0.00    +0.000 A 
ATOM     17  N   UNL     1      45.862   3.423   7.445  0.00  0.00    +0.000 NA
ENDBRANCH  11  12
ENDBRANCH   9  11
ENDBRANCH   8   9
ENDBRANCH   5   8
ENDBRANCH   1   2
BRANCH   1  20
ATOM     18  C   UNL     1      48.197   8.532  13.766  0.00  0.00    +0.000 C 
ATOM     19  O   UNL     1      48.295   9.504  13.018  0.00  0.00    +0.000 OA
ATOM     20  N   UNL     1      47.055   7.782  13.812  0.00  0.00    +0.000 N 
ATOM     21  H   UNL     1      47.014   6.956  14.391  0.00  0.00    +0.000 HD
BRANCH  18  29
ATOM     22  C   UNL     1      51.619   8.457  13.393  0.00  0.00    +0.000 A 
ATOM     23  N   UNL     1      52.954   8.321  13.513  0.00  0.00    +0.000 NA
ATOM     24  C   UNL     1      53.434   7.835  14.662  0.00  0.00    +0.000 A 
ATOM     25  N   UNL     1      52.733   7.463  15.729  0.00  0.00    +0.000 NA
ATOM     26  C   UNL     1      51.408   7.623  15.570  0.00  0.00    +0.000 A 
ATOM     27  S   UNL     1      50.357   7.200  16.834  0.00  0.00    +0.000 S 
ATOM     28  C   UNL     1      48.996   7.654  15.921  0.00  0.00    +0.000 A 
ATOM     29  C   UNL     1      49.303   8.129  14.651  0.00  0.00    +0.000 A 
ATOM     30  C   UNL     1      50.751   8.114  14.446  0.00  0.00    +0.000 A 
BRANCH  22  32
ATOM     31  C   UNL     1      50.867   8.013  11.220  0.00  0.00    +0.000 C 
ATOM     32  O   UNL     1      51.126   8.993  12.223  0.00  0.00    +0.000 OA
ENDBRANCH  22  32
ENDBRANCH  18  29
ENDBRANCH   1  20
TORSDOF 8
ENDMDL
MODEL 7
REMARK VINA RESULT:    -6.023      4.846      9.487
REMARK INTER + INTRA:         -10.012
REMARK INTER:                  -8.902
REMARK INTRA:                  -1.110
REMARK UNBOUND:                -1.171
REMARK  Name = 
REMARK  9 active torsions:
REMARK  status: ('A' for Active; 'I' for Inactive)
REMARK    1  A    between atoms: C_1  and  O_2
REMARK    2  A    between atoms: O_2  and  C_3
REMARK    3  A    between atoms: C_10  and  C_11
REMARK    4  A    between atoms: N_13  and  C_14
REMARK    5  A    between atoms: C_14  and  C_15
REMARK    6  A    between atoms: C_18  and  C_19
REMARK    7  A    between atoms: C_19  and  N_20
REMARK    8  A    between atoms: N_20  and  C_21
REMARK    9  A    between atoms: C_21  and  C_22
REMARK                            x       y       z     vdW  Elec       q    Type
REMARK                         _______ _______ _______ _____ _____    ______ ____
ROOT
ATOM      1  C   UNL     1      47.837   4.513  17.414  0.00  0.00    +0.000 C 
ENDROOT
BRANCH   1   2
ATOM      2  C   UNL     1      49.190   3.857  17.523  0.00  0.00    +0.000 A 
ATOM      3  C   UNL     1      49.363   2.508  17.187  0.00  0.00    +0.000 A 
ATOM      4  C   UNL     1      50.621   1.905  17.285  0.00  0.00    +0.000 A 
ATOM      5  C   UNL     1      51.736   2.634  17.726  0.00  0.00    +0.000 A 
ATOM      6  C   UNL     1      51.553   3.972  18.100  0.00  0.00    +0.000 A 
ATOM      7  C   UNL     1      50.293   4.575  18.005  0.00  0.00    +0.000 A 
BRANCH   5   8
ATOM      8  C   UNL     1      53.103   1.987  17.799  0.00  0.00    +0.000 C 
BRANCH   8   9
ATOM      9  N   UNL     1      53.014   0.647  18.376  0.00  0.00    +0.000 NA
ATOM     10  H   UNL     1      52.333   0.105  17.842  0.00  0.00    +0.000 HD
BRANCH   9  11
ATOM     11  C   UNL     1      54.303  -0.057  18.311  0.00  0.00    +0.000 C 
BRANCH  11  12
ATOM     12  C   UNL     1      54.143  -1.545  18.564  0.00  0.00    +0.000 A 
ATOM     13  C   UNL     1      54.886  -2.464  17.822  0.00  0.00    +0.000 A 
ATOM     14  C   UNL     1      54.749  -3.822  18.093  0.00  0.00    +0.000 A 
ATOM     15  C   UNL     1      53.871  -4.230  19.089  0.00  0.00    +0.000 A 
ATOM     16  C   UNL     1      53.163  -3.257  19.773  0.00  0.00    +0.000 A 
ATOM     17  N   UNL     1      53.279  -1.930  19.538  0.00  0.00    +0.000 NA
ENDBRANCH  11  12
ENDBRANCH   9  11
ENDBRANCH   8   9
ENDBRANCH   5   8
ENDBRANCH   1   2
BRANCH   1  20
ATOM     18  C   UNL     1      47.223   4.656  15.031  0.00  0.00    +0.000 C 
ATOM     19  O   UNL     1      46.871   3.477  15.010  0.00  0.00    +0.000 OA
ATOM     20  N   UNL     1      47.712   5.232  16.171  0.00  0.00    +0.000 N 
ATOM     21  H   UNL     1      48.048   6.183  16.155  0.00  0.00    +0.000 HD
BRANCH  18  29
ATOM     22  C   UNL     1      49.232   7.133  13.737  0.00  0.00    +0.000 A 
ATOM     23  N   UNL     1      49.817   8.118  13.026  0.00  0.00    +0.000 NA
ATOM     24  C   UNL     1      49.203   8.541  11.917  0.00  0.00    +0.000 A 
ATOM     25  N   UNL     1      48.055   8.093  11.417  0.00  0.00    +0.000 NA
ATOM     26  C   UNL     1      47.511   7.107  12.151  0.00  0.00    +0.000 A 
ATOM     27  S   UNL     1      46.041   6.412  11.660  0.00  0.00    +0.000 S 
ATOM     28  C   UNL     1      46.037   5.357  12.993  0.00  0.00    +0.000 A 
ATOM     29  C   UNL     1      47.135   5.506  13.833  0.00  0.00    +0.000 A 
ATOM     30  C   UNL     1      48.019   6.553  13.322  0.00  0.00    +0.000 A 
BRANCH  22  32
ATOM     31  C   UNL     1      50.409   7.716  15.675  0.00  0.00    +0.000 C 
ATOM     32  O   UNL     1      49.884   6.672  14.859  0.00  0.00    +0.000 OA
ENDBRANCH  22  32
ENDBRANCH  18  29
ENDBRANCH   1  20
TORSDOF 8
ENDMDL
MODEL 8
REMARK VINA RESULT:    -5.902      2.935      4.813
REMARK INTER + INTRA:          -9.834
REMARK INTER:                  -8.541
REMARK INTRA:                  -1.293
REMARK UNBOUND:                -1.171
REMARK  Name = 
REMARK  9 active torsions:
REMARK  status: ('A' for Active; 'I' for Inactive)
REMARK    1  A    between atoms: C_1  and  O_2
REMARK    2  A    between atoms: O_2  and  C_3
REMARK    3  A    between atoms: C_10  and  C_11
REMARK    4  A    between atoms: N_13  and  C_14
REMARK    5  A    between atoms: C_14  and  C_15
REMARK    6  A    between atoms: C_18  and  C_19
REMARK    7  A    between atoms: C_19  and  N_20
REMARK    8  A    between atoms: N_20  and  C_21
REMARK    9  A    between atoms: C_21  and  C_22
REMARK                            x       y       z     vdW  Elec       q    Type
REMARK                         _______ _______ _______ _____ _____    ______ ____
ROOT
ATOM      1  C   UNL     1      49.242   7.515  17.442  0.00  0.00    +0.000 C 
ENDROOT
BRANCH   1   2
ATOM      2  C   UNL     1      48.800   7.597  16.002  0.00  0.00    +0.000 A 
ATOM      3  C   UNL     1      48.513   8.833  15.409  0.00  0.00    +0.000 A 
ATOM      4  C   UNL     1      48.108   8.905  14.072  0.00  0.00    +0.000 A 
ATOM      5  C   UNL     1      47.976   7.743  13.298  0.00  0.00    +0.000 A 
ATOM      6  C   UNL     1      48.224   6.504  13.904  0.00  0.00    +0.000 A 
ATOM      7  C   UNL     1      48.626   6.432  15.243  0.00  0.00    +0.000 A 
BRANCH   5   8
ATOM      8  C   UNL     1      47.569   7.827  11.841  0.00  0.00    +0.000 C 
BRANCH   8   9
ATOM      9  N   UNL     1      46.873   6.611  11.423  0.00  0.00    +0.000 NA
ATOM     10  H   UNL     1      47.134   5.852  12.054  0.00  0.00    +0.000 HD
BRANCH   9  11
ATOM     11  C   UNL     1      45.415   6.773  11.488  0.00  0.00    +0.000 C 
BRANCH  11  12
ATOM     12  C   UNL     1      44.705   5.434  11.583  0.00  0.00    +0.000 A 
ATOM     13  C   UNL     1      44.103   5.045  12.781  0.00  0.00    +0.000 A 
ATOM     14  C   UNL     1      43.429   3.829  12.836  0.00  0.00    +0.000 A 
ATOM     15  C   UNL     1      43.378   3.030  11.701  0.00  0.00    +0.000 A 
ATOM     16  C   UNL     1      44.008   3.482  10.554  0.00  0.00    +0.000 A 
ATOM     17  N   UNL     1      44.665   4.661  10.468  0.00  0.00    +0.000 NA
ENDBRANCH  11  12
ENDBRANCH   9  11
ENDBRANCH   8   9
ENDBRANCH   5   8
ENDBRANCH   1   2
BRANCH   1  20
ATOM     18  C   UNL     1      50.581   6.020  18.872  0.00  0.00    +0.000 C 
ATOM     19  O   UNL     1      50.174   6.568  19.895  0.00  0.00    +0.000 OA
ATOM     20  N   UNL     1      50.173   6.432  17.634  0.00  0.00    +0.000 N 
ATOM     21  H   UNL     1      50.560   6.006  16.804  0.00  0.00    +0.000 HD
BRANCH  18  29
ATOM     22  C   UNL     1      50.620   2.895  17.428  0.00  0.00    +0.000 A 
ATOM     23  N   UNL     1      50.881   1.641  17.008  0.00  0.00    +0.000 NA
ATOM     24  C   UNL     1      51.995   1.051  17.449  0.00  0.00    +0.000 A 
ATOM     25  N   UNL     1      52.903   1.568  18.273  0.00  0.00    +0.000 NA
ATOM     26  C   UNL     1      52.609   2.821  18.660  0.00  0.00    +0.000 A 
ATOM     27  S   UNL     1      53.660   3.639  19.713  0.00  0.00    +0.000 S 
ATOM     28  C   UNL     1      52.665   5.018  19.714  0.00  0.00    +0.000 A 
ATOM     29  C   UNL     1      51.525   4.891  18.928  0.00  0.00    +0.000 A 
ATOM     30  C   UNL     1      51.498   3.574  18.293  0.00  0.00    +0.000 A 
BRANCH  22  32
ATOM     31  C   UNL     1      48.324   3.249  17.717  0.00  0.00    +0.000 C 
ATOM     32  O   UNL     1      49.490   3.517  16.943  0.00  0.00    +0.000 OA
ENDBRANCH  22  32
ENDBRANCH  18  29
ENDBRANCH   1  20
TORSDOF 8
ENDMDL
