MODEL 1
REMARK VINA RESULT:    -8.524      0.000      0.000
REMARK INTER + INTRA:         -13.393
REMARK INTER:                 -12.012
REMARK INTRA:                  -1.381
REMARK UNBOUND:                -1.381
REMARK  Name = 
REMARK  7 active torsions:
REMARK  status: ('A' for Active; 'I' for Inactive)
REMARK    1  A    between atoms: C_2  and  C_20
REMARK    2  A    between atoms: N_3  and  C_4
REMARK    3  A    between atoms: C_4  and  C_5
REMARK    4  A    between atoms: C_8  and  C_9
REMARK    5  A    between atoms: C_9  and  N_10
REMARK    6  A    between atoms: N_10  and  C_11
REMARK    7  A    between atoms: C_11  and  C_12
REMARK                            x       y       z     vdW  Elec       q    Type
REMARK                         _______ _______ _______ _____ _____    ______ ____
ROOT
ATOM      1  C   UNL     1      46.724   8.155  12.512  0.00  0.00    +0.000 C 
ENDROOT
BRANCH   1   2
ATOM      2  C   UNL     1      45.715   7.195  11.880  0.00  0.00    +0.000 C 
ATOM      3  C   UNL     1      44.959   6.383  12.947  0.00  0.00    +0.000 C 
ATOM      4  C   UNL     1      43.998   5.375  12.319  0.00  0.00    +0.000 C 
ATOM      5  C   UNL     1      44.732   4.442  11.340  0.00  0.00    +0.000 C 
ATOM      6  C   UNL     1      45.465   5.269  10.270  0.00  0.00    +0.000 C 
ATOM      7  C   UNL     1      46.426   6.276  10.890  0.00  0.00    +0.000 C 
BRANCH   5   8
ATOM      8  C   UNL     1      43.754   3.438  10.703  0.00  0.00    +0.000 C 
BRANCH   8   9
ATOM      9  N   UNL     1      44.130   3.205   9.310  0.00  0.00    +0.000 NA
ATOM     10  H   UNL     1      44.685   3.985   8.960  0.00  0.00    +0.000 HD
BRANCH   9  11
ATOM     11  C   UNL     1      44.868   1.961   9.129  0.00  0.00    +0.000 C 
BRANCH  11  12
ATOM     12  C   UNL     1      45.892   2.108   8.036  0.00  0.00    +0.000 A 
ATOM     13  C   UNL     1      45.969   3.266   7.255  0.00  0.00    +0.000 A 
ATOM     14  C   UNL     1      46.937   3.370   6.261  0.00  0.00    +0.000 A 
ATOM     15  C   UNL     1      47.799   2.302   6.075  0.00  0.00    +0.000 A 
ATOM     16  N   UNL     1      47.754   1.165   6.799  0.00  0.00    +0.000 NA
ATOM     17  C   UNL     1      46.804   1.095   7.761  0.00  0.00    +0.000 A 
ENDBRANCH  11  12
ENDBRANCH   9  11
ENDBRANCH   8   9
ENDBRANCH   5   8
ENDBRANCH   1   2
BRANCH   1  20
ATOM     18  O   UNL     1      49.307   7.229  13.266  0.00  0.00    +0.000 OA
ATOM     19  C   UNL     1      48.386   7.198  14.076  0.00  0.00    +0.000 C 
ATOM     20  N   UNL     1      47.137   7.688  13.812  0.00  0.00    +0.000 N 
ATOM     21  H   UNL     1      46.440   7.698  14.546  0.00  0.00    +0.000 HD
BRANCH  19  22
ATOM     22  C   UNL     1      48.566   6.683  15.431  0.00  0.00    +0.000 A 
ATOM     23  C   UNL     1      49.251   7.412  16.391  0.00  0.00    +0.000 A 
ATOM     24  S   UNL     1      49.314   6.626  17.906  0.00  0.00    +0.000 S 
ATOM     25  C   UNL     1      48.462   5.279  17.313  0.00  0.00    +0.000 A 
ATOM     26  N   UNL     1      48.169   4.217  18.107  0.00  0.00    +0.000 NA
ATOM     27  C   UNL     1      47.519   3.268  17.521  0.00  0.00    +0.000 A 
ATOM     28  N   UNL     1      47.140   3.280  16.204  0.00  0.00    +0.000 N 
ATOM     29  C   UNL     1      47.436   4.313  15.349  0.00  0.00    +0.000 A 
ATOM     30  O   UNL     1      47.095   4.272  14.174  0.00  0.00    +0.000 OA
ATOM     31  C   UNL     1      48.134   5.422  15.975  0.00  0.00    +0.000 A 
ATOM     32  H   UNL     1      46.636   2.505  15.797  0.00  0.00    +0.000 HD
ENDBRANCH  19  22
ENDBRANCH   1  20
TORSDOF 7
ENDMDL
MODEL 2
REMARK VINA RESULT:    -8.193      1.615      1.947
REMARK INTER + INTRA:         -12.928
REMARK INTER:                 -11.900
REMARK INTRA:                  -1.028
REMARK UNBOUND:                -1.381
REMARK  Name = 
REMARK  7 active torsions:
REMARK  status: ('A' for Active; 'I' for Inactive)
REMARK    1  A    between atoms: C_2  and  C_20
REMARK    2  A    between atoms: N_3  and  C_4
REMARK    3  A    between atoms: C_4  and  C_5
REMARK    4  A    between atoms: C_8  and  C_9
REMARK    5  A    between atoms: C_9  and  N_10
REMARK    6  A    between atoms: N_10  and  C_11
REMARK    7  A    between atoms: C_11  and  C_12
REMARK                            x       y       z     vdW  Elec       q    Type
REMARK                         _______ _______ _______ _____ _____    ______ ____
ROOT
ATOM      1  C   UNL     1      48.074   6.671  13.500  0.00  0.00    +0.000 C 
ENDROOT
BRANCH   1   2
ATOM      2  C   UNL     1      46.706   6.267  12.947  0.00  0.00    +0.000 C 
ATOM      3  C   UNL     1      46.325   4.835  13.366  0.00  0.00    +0.000 C 
ATOM      4  C   UNL     1      44.990   4.402  12.761  0.00  0.00    +0.000 C 
ATOM      5  C   UNL     1      45.004   4.538  11.228  0.00  0.00    +0.000 C 
ATOM      6  C   UNL     1      45.367   5.978  10.828  0.00  0.00    +0.000 C 
ATOM      7  C   UNL     1      46.698   6.417  11.428  0.00  0.00    +0.000 C 
BRANCH   5   8
ATOM      8  C   UNL     1      43.652   4.112  10.629  0.00  0.00    +0.000 C 
BRANCH   8   9
ATOM      9  N   UNL     1      43.877   3.388   9.379  0.00  0.00    +0.000 NA
ATOM     10  H   UNL     1      44.138   4.037   8.638  0.00  0.00    +0.000 HD
BRANCH   9  11
ATOM     11  C   UNL     1      44.899   2.355   9.505  0.00  0.00    +0.000 C 
BRANCH  11  12
ATOM     12  C   UNL     1      45.788   2.341   8.292  0.00  0.00    +0.000 A 
ATOM     13  C   UNL     1      45.935   3.470   7.477  0.00  0.00    +0.000 A 
ATOM     14  C   UNL     1      46.776   3.421   6.370  0.00  0.00    +0.000 A 
ATOM     15  C   UNL     1      47.443   2.236   6.107  0.00  0.00    +0.000 A 
ATOM     16  N   UNL     1      47.323   1.124   6.860  0.00  0.00    +0.000 NA
ATOM     17  C   UNL     1      46.501   1.202   7.933  0.00  0.00    +0.000 A 
ENDBRANCH  11  12
ENDBRANCH   9  11
ENDBRANCH   8   9
ENDBRANCH   5   8
ENDBRANCH   1   2
BRANCH   1  20
ATOM     18  O   UNL     1      50.267   6.704  15.313  0.00  0.00    +0.000 OA
ATOM     19  C   UNL     1      49.119   6.792  15.739  0.00  0.00    +0.000 C 
ATOM     20  N   UNL     1      48.020   6.852  14.929  0.00  0.00    +0.000 N 
ATOM     21  H   UNL     1      47.106   6.997  15.339  0.00  0.00    +0.000 HD
BRANCH  19  22
ATOM     22  C   UNL     1      48.833   6.902  17.167  0.00  0.00    +0.000 A 
ATOM     23  C   UNL     1      48.479   8.115  17.738  0.00  0.00    +0.000 A 
ATOM     24  S   UNL     1      48.165   7.998  19.413  0.00  0.00    +0.000 S 
ATOM     25  C   UNL     1      48.527   6.337  19.428  0.00  0.00    +0.000 A 
ATOM     26  N   UNL     1      48.455   5.604  20.570  0.00  0.00    +0.000 NA
ATOM     27  C   UNL     1      48.758   4.357  20.430  0.00  0.00    +0.000 A 
ATOM     28  N   UNL     1      49.137   3.774  19.249  0.00  0.00    +0.000 N 
ATOM     29  C   UNL     1      49.255   4.472  18.072  0.00  0.00    +0.000 A 
ATOM     30  O   UNL     1      49.616   3.914  17.045  0.00  0.00    +0.000 OA
ATOM     31  C   UNL     1      48.886   5.873  18.173  0.00  0.00    +0.000 A 
ATOM     32  H   UNL     1      49.368   2.791  19.201  0.00  0.00    +0.000 HD
ENDBRANCH  19  22
ENDBRANCH   1  20
TORSDOF 7
ENDMDL
MODEL 3
REMARK VINA RESULT:    -8.015      2.026      2.726
REMARK INTER + INTRA:         -12.676
REMARK INTER:                 -11.538
REMARK INTRA:                  -1.139
REMARK UNBOUND:                -1.381
REMARK  Name = 
REMARK  7 active torsions:
REMARK  status: ('A' for Active; 'I' for Inactive)
REMARK    1  A    between atoms: C_2  and  C_20
REMARK    2  A    between atoms: N_3  and  C_4
REMARK    3  A    between atoms: C_4  and  C_5
REMARK    4  A    between atoms: C_8  and  C_9
REMARK    5  A    between atoms: C_9  and  N_10
REMARK    6  A    between atoms: N_10  and  C_11
REMARK    7  A    between atoms: C_11  and  C_12
REMARK                            x       y       z     vdW  Elec       q    Type
REMARK                         _______ _______ _______ _____ _____    ______ ____
ROOT
ATOM      1  C   UNL     1      47.936   7.112  13.675  0.00  0.00    +0.000 C 
ENDROOT
BRANCH   1   2
ATOM      2  C   UNL     1      47.251   6.086  12.770  0.00  0.00    +0.000 C 
ATOM      3  C   UNL     1      46.359   6.765  11.715  0.00  0.00    +0.000 C 
ATOM      4  C   UNL     1      45.621   5.744  10.852  0.00  0.00    +0.000 C 
ATOM      5  C   UNL     1      44.800   4.773  11.719  0.00  0.00    +0.000 C 
ATOM      6  C   UNL     1      45.709   4.089  12.754  0.00  0.00    +0.000 C 
ATOM      7  C   UNL     1      46.449   5.103  13.619  0.00  0.00    +0.000 C 
BRANCH   5   8
ATOM      8  C   UNL     1      44.069   3.740  10.843  0.00  0.00    +0.000 C 
BRANCH   8   9
ATOM      9  N   UNL     1      44.997   2.677  10.462  0.00  0.00    +0.000 NA
ATOM     10  H   UNL     1      45.041   1.969  11.195  0.00  0.00    +0.000 HD
BRANCH   9  11
ATOM     11  C   UNL     1      44.641   2.047   9.196  0.00  0.00    +0.000 C 
BRANCH  11  12
ATOM     12  C   UNL     1      45.774   2.162   8.212  0.00  0.00    +0.000 A 
ATOM     13  C   UNL     1      46.076   3.373   7.580  0.00  0.00    +0.000 A 
ATOM     14  C   UNL     1      47.138   3.442   6.684  0.00  0.00    +0.000 A 
ATOM     15  C   UNL     1      47.866   2.288   6.444  0.00  0.00    +0.000 A 
ATOM     16  N   UNL     1      47.604   1.100   7.024  0.00  0.00    +0.000 NA
ATOM     17  C   UNL     1      46.566   1.064   7.893  0.00  0.00    +0.000 A 
ENDBRANCH  11  12
ENDBRANCH   9  11
ENDBRANCH   8   9
ENDBRANCH   5   8
ENDBRANCH   1   2
BRANCH   1  20
ATOM     18  O   UNL     1      50.174   6.611  15.359  0.00  0.00    +0.000 OA
ATOM     19  C   UNL     1      49.038   6.402  15.774  0.00  0.00    +0.000 C 
ATOM     20  N   UNL     1      47.912   6.683  15.051  0.00  0.00    +0.000 N 
ATOM     21  H   UNL     1      47.002   6.555  15.477  0.00  0.00    +0.000 HD
BRANCH  19  22
ATOM     22  C   UNL     1      48.790   5.885  17.117  0.00  0.00    +0.000 A 
ATOM     23  C   UNL     1      48.941   4.537  17.408  0.00  0.00    +0.000 A 
ATOM     24  S   UNL     1      48.625   4.169  19.045  0.00  0.00    +0.000 S 
ATOM     25  C   UNL     1      48.244   5.787  19.401  0.00  0.00    +0.000 A 
ATOM     26  N   UNL     1      47.881   6.173  20.652  0.00  0.00    +0.000 NA
ATOM     27  C   UNL     1      47.621   7.432  20.774  0.00  0.00    +0.000 A 
ATOM     28  N   UNL     1      47.683   8.343  19.752  0.00  0.00    +0.000 N 
ATOM     29  C   UNL     1      48.015   8.003  18.463  0.00  0.00    +0.000 A 
ATOM     30  O   UNL     1      48.037   8.847  17.578  0.00  0.00    +0.000 OA
ATOM     31  C   UNL     1      48.353   6.602  18.286  0.00  0.00    +0.000 A 
ATOM     32  H   UNL     1      47.463   9.317  19.905  0.00  0.00    +0.000 HD
ENDBRANCH  19  22
ENDBRANCH   1  20
TORSDOF 7
ENDMDL
MODEL 4
REMARK VINA RESULT:    -7.505      2.091      2.770
REMARK INTER + INTRA:         -11.958
REMARK INTER:                 -11.131
REMARK INTRA:                  -0.827
REMARK UNBOUND:                -1.381
REMARK  Name = 
REMARK  7 active torsions:
REMARK  status: ('A' for Active; 'I' for Inactive)
REMARK    1  A    between atoms: C_2  and  C_20
REMARK    2  A    between atoms: N_3  and  C_4
REMARK    3  A    between atoms: C_4  and  C_5
REMARK    4  A    between atoms: C_8  and  C_9
REMARK    5  A    between atoms: C_9  and  N_10
REMARK    6  A    between atoms: N_10  and  C_11
REMARK    7  A    between atoms: C_11  and  C_12
REMARK                            x       y       z     vdW  Elec       q    Type
REMARK                         _______ _______ _______ _____ _____    ______ ____
ROOT
ATOM      1  C   UNL     1      47.467   6.747  13.712  0.00  0.00    +0.000 C 
ENDROOT
BRANCH   1   2
ATOM      2  C   UNL     1      46.866   5.736  12.734  0.00  0.00    +0.000 C 
ATOM      3  C   UNL     1      46.047   6.432  11.631  0.00  0.00    +0.000 C 
ATOM      4  C   UNL     1      45.388   5.424  10.691  0.00  0.00    +0.000 C 
ATOM      5  C   UNL     1      44.517   4.422  11.470  0.00  0.00    +0.000 C 
ATOM      6  C   UNL     1      45.356   3.723  12.553  0.00  0.00    +0.000 C 
ATOM      7  C   UNL     1      46.015   4.723  13.496  0.00  0.00    +0.000 C 
BRANCH   5   8
ATOM      8  C   UNL     1      43.868   3.404  10.517  0.00  0.00    +0.000 C 
BRANCH   8   9
ATOM      9  N   UNL     1      44.597   3.385   9.250  0.00  0.00    +0.000 NA
ATOM     10  H   UNL     1      45.263   4.156   9.215  0.00  0.00    +0.000 HD
BRANCH   9  11
ATOM     11  C   UNL     1      45.295   2.126   9.022  0.00  0.00    +0.000 C 
BRANCH  11  12
ATOM     12  C   UNL     1      46.163   2.217   7.796  0.00  0.00    +0.000 A 
ATOM     13  C   UNL     1      46.078   3.301   6.916  0.00  0.00    +0.000 A 
ATOM     14  C   UNL     1      46.905   3.355   5.799  0.00  0.00    +0.000 A 
ATOM     15  C   UNL     1      47.793   2.312   5.593  0.00  0.00    +0.000 A 
ATOM     16  N   UNL     1      47.902   1.245   6.410  0.00  0.00    +0.000 NA
ATOM     17  C   UNL     1      47.086   1.222   7.490  0.00  0.00    +0.000 A 
ENDBRANCH  11  12
ENDBRANCH   9  11
ENDBRANCH   8   9
ENDBRANCH   5   8
ENDBRANCH   1   2
BRANCH   1  20
ATOM     18  O   UNL     1      48.950   7.918  15.840  0.00  0.00    +0.000 OA
ATOM     19  C   UNL     1      48.723   6.712  15.844  0.00  0.00    +0.000 C 
ATOM     20  N   UNL     1      47.961   6.088  14.895  0.00  0.00    +0.000 N 
ATOM     21  H   UNL     1      47.752   5.102  14.994  0.00  0.00    +0.000 HD
BRANCH  19  22
ATOM     22  C   UNL     1      49.206   5.839  16.911  0.00  0.00    +0.000 A 
ATOM     23  C   UNL     1      48.324   5.180  17.755  0.00  0.00    +0.000 A 
ATOM     24  S   UNL     1      49.112   4.196  18.907  0.00  0.00    +0.000 S 
ATOM     25  C   UNL     1      50.647   4.650  18.336  0.00  0.00    +0.000 A 
ATOM     26  N   UNL     1      51.786   4.160  18.893  0.00  0.00    +0.000 NA
ATOM     27  C   UNL     1      52.878   4.593  18.357  0.00  0.00    +0.000 A 
ATOM     28  N   UNL     1      52.936   5.482  17.315  0.00  0.00    +0.000 N 
ATOM     29  C   UNL     1      51.819   6.031  16.735  0.00  0.00    +0.000 A 
ATOM     30  O   UNL     1      51.920   6.837  15.820  0.00  0.00    +0.000 OA
ATOM     31  C   UNL     1      50.565   5.543  17.281  0.00  0.00    +0.000 A 
ATOM     32  H   UNL     1      53.822   5.790  16.939  0.00  0.00    +0.000 HD
ENDBRANCH  19  22
ENDBRANCH   1  20
TORSDOF 7
ENDMDL
MODEL 5
REMARK VINA RESULT:    -7.359      2.264      3.021
REMARK INTER + INTRA:         -11.751
REMARK INTER:                 -11.449
REMARK INTRA:                  -0.302
REMARK UNBOUND:                -1.381
REMARK  Name = 
REMARK  7 active torsions:
REMARK  status: ('A' for Active; 'I' for Inactive)
REMARK    1  A    between atoms: C_2  and  C_20
REMARK    2  A    between atoms: N_3  and  C_4
REMARK    3  A    between atoms: C_4  and  C_5
REMARK    4  A    between atoms: C_8  and  C_9
REMARK    5  A    between atoms: C_9  and  N_10
REMARK    6  A    between atoms: N_10  and  C_11
REMARK    7  A    between atoms: C_11  and  C_12
REMARK                            x       y       z     vdW  Elec       q    Type
REMARK                         _______ _______ _______ _____ _____    ______ ____
ROOT
ATOM      1  C   UNL     1      46.385   4.861  15.101  0.00  0.00    +0.000 C 
ENDROOT
BRANCH   1   2
ATOM      2  C   UNL     1      46.547   4.820  13.580  0.00  0.00    +0.000 C 
ATOM      3  C   UNL     1      46.312   6.204  12.947  0.00  0.00    +0.000 C 
ATOM      4  C   UNL     1      46.405   6.154  11.423  0.00  0.00    +0.000 C 
ATOM      5  C   UNL     1      45.433   5.113  10.840  0.00  0.00    +0.000 C 
ATOM      6  C   UNL     1      45.695   3.735  11.469  0.00  0.00    +0.000 C 
ATOM      7  C   UNL     1      45.602   3.776  12.989  0.00  0.00    +0.000 C 
BRANCH   5   8
ATOM      8  C   UNL     1      45.543   5.062   9.305  0.00  0.00    +0.000 C 
BRANCH   8   9
ATOM      9  N   UNL     1      44.370   4.385   8.753  0.00  0.00    +0.000 NA
ATOM     10  H   UNL     1      44.157   4.751   7.826  0.00  0.00    +0.000 HD
BRANCH   9  11
ATOM     11  C   UNL     1      44.540   2.939   8.680  0.00  0.00    +0.000 C 
BRANCH  11  12
ATOM     12  C   UNL     1      45.687   2.587   7.772  0.00  0.00    +0.000 A 
ATOM     13  C   UNL     1      46.027   3.387   6.675  0.00  0.00    +0.000 A 
ATOM     14  C   UNL     1      47.101   3.035   5.865  0.00  0.00    +0.000 A 
ATOM     15  C   UNL     1      47.804   1.882   6.177  0.00  0.00    +0.000 A 
ATOM     16  N   UNL     1      47.505   1.078   7.218  0.00  0.00    +0.000 NA
ATOM     17  C   UNL     1      46.456   1.449   7.989  0.00  0.00    +0.000 A 
ENDBRANCH  11  12
ENDBRANCH   9  11
ENDBRANCH   8   9
ENDBRANCH   5   8
ENDBRANCH   1   2
BRANCH   1  20
ATOM     18  O   UNL     1      46.846   4.572  17.894  0.00  0.00    +0.000 OA
ATOM     19  C   UNL     1      47.796   4.604  17.117  0.00  0.00    +0.000 C 
ATOM     20  N   UNL     1      47.654   4.671  15.759  0.00  0.00    +0.000 N 
ATOM     21  H   UNL     1      48.475   4.622  15.170  0.00  0.00    +0.000 HD
BRANCH  19  22
ATOM     22  C   UNL     1      49.177   4.510  17.584  0.00  0.00    +0.000 A 
ATOM     23  C   UNL     1      49.788   5.569  18.238  0.00  0.00    +0.000 A 
ATOM     24  S   UNL     1      51.391   5.223  18.715  0.00  0.00    +0.000 S 
ATOM     25  C   UNL     1      51.325   3.668  18.032  0.00  0.00    +0.000 A 
ATOM     26  N   UNL     1      52.386   2.821  18.088  0.00  0.00    +0.000 NA
ATOM     27  C   UNL     1      52.192   1.675  17.526  0.00  0.00    +0.000 A 
ATOM     28  N   UNL     1      51.030   1.298  16.904  0.00  0.00    +0.000 N 
ATOM     29  C   UNL     1      49.938   2.124  16.792  0.00  0.00    +0.000 A 
ATOM     30  O   UNL     1      48.929   1.753  16.209  0.00  0.00    +0.000 OA
ATOM     31  C   UNL     1      50.098   3.412  17.443  0.00  0.00    +0.000 A 
ATOM     32  H   UNL     1      50.937   0.388  16.476  0.00  0.00    +0.000 HD
ENDBRANCH  19  22
ENDBRANCH   1  20
TORSDOF 7
ENDMDL
MODEL 6
REMARK VINA RESULT:    -7.212      2.059      2.893
REMARK INTER + INTRA:         -11.545
REMARK INTER:                 -10.585
REMARK INTRA:                  -0.960
REMARK UNBOUND:                -1.381
REMARK  Name = 
REMARK  7 active torsions:
REMARK  status: ('A' for Active; 'I' for Inactive)
REMARK    1  A    between atoms: C_2  and  C_20
REMARK    2  A    between atoms: N_3  and  C_4
REMARK    3  A    between atoms: C_4  and  C_5
REMARK    4  A    between atoms: C_8  and  C_9
REMARK    5  A    between atoms: C_9  and  N_10
REMARK    6  A    between atoms: N_10  and  C_11
REMARK    7  A    between atoms: C_11  and  C_12
REMARK                            x       y       z     vdW  Elec       q    Type
REMARK                         _______ _______ _______ _____ _____    ______ ____
ROOT
ATOM      1  C   UNL     1      46.419   7.741  13.006  0.00  0.00    +0.000 C 
ENDROOT
BRANCH   1   2
ATOM      2  C   UNL     1      45.453   6.611  12.643  0.00  0.00    +0.000 C 
ATOM      3  C   UNL     1      45.923   5.259  13.209  0.00  0.00    +0.000 C 
ATOM      4  C   UNL     1      44.998   4.116  12.792  0.00  0.00    +0.000 C 
ATOM      5  C   UNL     1      44.854   4.047  11.262  0.00  0.00    +0.000 C 
ATOM      6  C   UNL     1      44.366   5.400  10.715  0.00  0.00    +0.000 C 
ATOM      7  C   UNL     1      45.284   6.544  11.127  0.00  0.00    +0.000 C 
BRANCH   5   8
ATOM      8  C   UNL     1      43.912   2.902  10.852  0.00  0.00    +0.000 C 
BRANCH   8   9
ATOM      9  N   UNL     1      43.988   2.698   9.406  0.00  0.00    +0.000 NA
ATOM     10  H   UNL     1      44.363   3.531   8.953  0.00  0.00    +0.000 HD
BRANCH   9  11
ATOM     11  C   UNL     1      44.796   1.540   9.045  0.00  0.00    +0.000 C 
BRANCH  11  12
ATOM     12  C   UNL     1      45.940   1.950   8.157  0.00  0.00    +0.000 A 
ATOM     13  C   UNL     1      46.110   3.276   7.745  0.00  0.00    +0.000 A 
ATOM     14  C   UNL     1      47.187   3.618   6.933  0.00  0.00    +0.000 A 
ATOM     15  C   UNL     1      48.063   2.615   6.553  0.00  0.00    +0.000 A 
ATOM     16  N   UNL     1      47.931   1.324   6.920  0.00  0.00    +0.000 NA
ATOM     17  C   UNL     1      46.876   1.022   7.712  0.00  0.00    +0.000 A 
ENDBRANCH  11  12
ENDBRANCH   9  11
ENDBRANCH   8   9
ENDBRANCH   5   8
ENDBRANCH   1   2
BRANCH   1  20
ATOM     18  O   UNL     1      48.390   9.328  14.307  0.00  0.00    +0.000 OA
ATOM     19  C   UNL     1      48.330   8.122  14.531  0.00  0.00    +0.000 C 
ATOM     20  N   UNL     1      47.370   7.307  13.999  0.00  0.00    +0.000 N 
ATOM     21  H   UNL     1      47.331   6.335  14.279  0.00  0.00    +0.000 HD
BRANCH  19  22
ATOM     22  C   UNL     1      49.256   7.460  15.445  0.00  0.00    +0.000 A 
ATOM     23  C   UNL     1      48.803   6.820  16.589  0.00  0.00    +0.000 A 
ATOM     24  S   UNL     1      50.059   6.094  17.490  0.00  0.00    +0.000 S 
ATOM     25  C   UNL     1      51.242   6.643  16.400  0.00  0.00    +0.000 A 
ATOM     26  N   UNL     1      52.560   6.366  16.582  0.00  0.00    +0.000 NA
ATOM     27  C   UNL     1      53.343   6.848  15.675  0.00  0.00    +0.000 A 
ATOM     28  N   UNL     1      52.928   7.592  14.602  0.00  0.00    +0.000 N 
ATOM     29  C   UNL     1      51.614   7.927  14.386  0.00  0.00    +0.000 A 
ATOM     30  O   UNL     1      51.292   8.612  13.425  0.00  0.00    +0.000 OA
ATOM     31  C   UNL     1      50.691   7.374  15.361  0.00  0.00    +0.000 A 
ATOM     32  H   UNL     1      53.588   7.949  13.926  0.00  0.00    +0.000 HD
ENDBRANCH  19  22
ENDBRANCH   1  20
TORSDOF 7
ENDMDL
MODEL 7
REMARK VINA RESULT:    -6.995      2.203      2.698
REMARK INTER + INTRA:         -11.239
REMARK INTER:                 -10.302
REMARK INTRA:                  -0.937
REMARK UNBOUND:                -1.381
REMARK  Name = 
REMARK  7 active torsions:
REMARK  status: ('A' for Active; 'I' for Inactive)
REMARK    1  A    between atoms: C_2  and  C_20
REMARK    2  A    between atoms: N_3  and  C_4
REMARK    3  A    between atoms: C_4  and  C_5
REMARK    4  A    between atoms: C_8  and  C_9
REMARK    5  A    between atoms: C_9  and  N_10
REMARK    6  A    between atoms: N_10  and  C_11
REMARK    7  A    between atoms: C_11  and  C_12
REMARK                            x       y       z     vdW  Elec       q    Type
REMARK                         _______ _______ _______ _____ _____    ______ ____
ROOT
ATOM      1  C   UNL     1      46.439   8.062  13.121  0.00  0.00    +0.000 C 
ENDROOT
BRANCH   1   2
ATOM      2  C   UNL     1      45.496   6.914  12.754  0.00  0.00    +0.000 C 
ATOM      3  C   UNL     1      46.001   5.567  13.301  0.00  0.00    +0.000 C 
ATOM      4  C   UNL     1      45.099   4.409  12.880  0.00  0.00    +0.000 C 
ATOM      5  C   UNL     1      44.941   4.353  11.350  0.00  0.00    +0.000 C 
ATOM      6  C   UNL     1      44.418   5.700  10.824  0.00  0.00    +0.000 C 
ATOM      7  C   UNL     1      45.314   6.860  11.239  0.00  0.00    +0.000 C 
BRANCH   5   8
ATOM      8  C   UNL     1      44.021   3.191  10.936  0.00  0.00    +0.000 C 
BRANCH   8   9
ATOM      9  N   UNL     1      44.092   3.003   9.488  0.00  0.00    +0.000 NA
ATOM     10  H   UNL     1      44.579   3.786   9.055  0.00  0.00    +0.000 HD
BRANCH   9  11
ATOM     11  C   UNL     1      44.745   1.754   9.116  0.00  0.00    +0.000 C 
BRANCH  11  12
ATOM     12  C   UNL     1      45.844   2.009   8.120  0.00  0.00    +0.000 A 
ATOM     13  C   UNL     1      46.021   3.264   7.529  0.00  0.00    +0.000 A 
ATOM     14  C   UNL     1      47.055   3.464   6.620  0.00  0.00    +0.000 A 
ATOM     15  C   UNL     1      47.882   2.393   6.326  0.00  0.00    +0.000 A 
ATOM     16  N   UNL     1      47.742   1.165   6.866  0.00  0.00    +0.000 NA
ATOM     17  C   UNL     1      46.729   1.002   7.749  0.00  0.00    +0.000 A 
ENDBRANCH  11  12
ENDBRANCH   9  11
ENDBRANCH   8   9
ENDBRANCH   5   8
ENDBRANCH   1   2
BRANCH   1  20
ATOM     18  O   UNL     1      48.431   9.670  14.363  0.00  0.00    +0.000 OA
ATOM     19  C   UNL     1      48.293   8.498  14.701  0.00  0.00    +0.000 C 
ATOM     20  N   UNL     1      47.316   7.683  14.201  0.00  0.00    +0.000 N 
ATOM     21  H   UNL     1      47.209   6.748  14.573  0.00  0.00    +0.000 HD
BRANCH  19  22
ATOM     22  C   UNL     1      49.136   7.886  15.725  0.00  0.00    +0.000 A 
ATOM     23  C   UNL     1      50.065   6.909  15.400  0.00  0.00    +0.000 A 
ATOM     24  S   UNL     1      50.954   6.360  16.751  0.00  0.00    +0.000 S 
ATOM     25  C   UNL     1      50.101   7.382  17.807  0.00  0.00    +0.000 A 
ATOM     26  N   UNL     1      50.370   7.413  19.139  0.00  0.00    +0.000 NA
ATOM     27  C   UNL     1      49.643   8.237  19.817  0.00  0.00    +0.000 A 
ATOM     28  N   UNL     1      48.661   9.031  19.285  0.00  0.00    +0.000 N 
ATOM     29  C   UNL     1      48.328   9.019  17.952  0.00  0.00    +0.000 A 
ATOM     30  O   UNL     1      47.430   9.731  17.525  0.00  0.00    +0.000 OA
ATOM     31  C   UNL     1      49.146   8.134  17.143  0.00  0.00    +0.000 A 
ATOM     32  H   UNL     1      48.120   9.654  19.867  0.00  0.00    +0.000 HD
ENDBRANCH  19  22
ENDBRANCH   1  20
TORSDOF 7
ENDMDL
MODEL 8
REMARK VINA RESULT:    -6.901      2.768      8.006
REMARK INTER + INTRA:         -11.106
REMARK INTER:                  -9.542
REMARK INTRA:                  -1.564
REMARK UNBOUND:                -1.381
REMARK  Name = 
REMARK  7 active torsions:
REMARK  status: ('A' for Active; 'I' for Inactive)
REMARK    1  A    between atoms: C_2  and  C_20
REMARK    2  A    between atoms: N_3  and  C_4
REMARK    3  A    between atoms: C_4  and  C_5
REMARK    4  A    between atoms: C_8  and  C_9
REMARK    5  A    between atoms: C_9  and  N_10
REMARK    6  A    between atoms: N_10  and  C_11
REMARK    7  A    between atoms: C_11  and  C_12
REMARK                            x       y       z     vdW  Elec       q    Type
REMARK                         _______ _______ _______ _____ _____    ______ ____
ROOT
ATOM      1  C   UNL     1      47.347   8.086  11.927  0.00  0.00    +0.000 C 
ENDROOT
BRANCH   1   2
ATOM      2  C   UNL     1      48.263   7.991  13.149  0.00  0.00    +0.000 C 
ATOM      3  C   UNL     1      48.134   6.626  13.850  0.00  0.00    +0.000 C 
ATOM      4  C   UNL     1      48.995   6.550  15.109  0.00  0.00    +0.000 C 
ATOM      5  C   UNL     1      48.664   7.697  16.080  0.00  0.00    +0.000 C 
ATOM      6  C   UNL     1      48.816   9.052  15.370  0.00  0.00    +0.000 C 
ATOM      7  C   UNL     1      47.959   9.135  14.113  0.00  0.00    +0.000 C 
BRANCH   5   8
ATOM      8  C   UNL     1      49.544   7.620  17.340  0.00  0.00    +0.000 C 
BRANCH   8   9
ATOM      9  N   UNL     1      48.737   7.180  18.476  0.00  0.00    +0.000 NA
ATOM     10  H   UNL     1      47.770   7.035  18.186  0.00  0.00    +0.000 HD
BRANCH   9  11
ATOM     11  C   UNL     1      49.250   5.961  19.091  0.00  0.00    +0.000 C 
BRANCH  11  12
ATOM     12  C   UNL     1      48.927   4.764  18.239  0.00  0.00    +0.000 A 
ATOM     13  C   UNL     1      47.608   4.436  17.904  0.00  0.00    +0.000 A 
ATOM     14  C   UNL     1      47.350   3.327  17.105  0.00  0.00    +0.000 A 
ATOM     15  C   UNL     1      48.427   2.572  16.668  0.00  0.00    +0.000 A 
ATOM     16  N   UNL     1      49.711   2.847  16.975  0.00  0.00    +0.000 NA
ATOM     17  C   UNL     1      49.931   3.934  17.751  0.00  0.00    +0.000 A 
ENDBRANCH  11  12
ENDBRANCH   9  11
ENDBRANCH   8   9
ENDBRANCH   5   8
ENDBRANCH   1   2
BRANCH   1  20
ATOM     18  O   UNL     1      44.566   7.772  11.412  0.00  0.00    +0.000 OA
ATOM     19  C   UNL     1      45.281   6.782  11.539  0.00  0.00    +0.000 C 
ATOM     20  N   UNL     1      46.635   6.850  11.720  0.00  0.00    +0.000 N 
ATOM     21  H   UNL     1      47.177   5.997  11.746  0.00  0.00    +0.000 HD
BRANCH  19  22
ATOM     22  C   UNL     1      44.744   5.426  11.447  0.00  0.00    +0.000 A 
ATOM     23  C   UNL     1      44.042   4.858  12.500  0.00  0.00    +0.000 A 
ATOM     24  S   UNL     1      43.487   3.280  12.157  0.00  0.00    +0.000 S 
ATOM     25  C   UNL     1      44.198   3.298  10.614  0.00  0.00    +0.000 A 
ATOM     26  N   UNL     1      44.100   2.235   9.773  0.00  0.00    +0.000 NA
ATOM     27  C   UNL     1      44.689   2.391   8.635  0.00  0.00    +0.000 A 
ATOM     28  N   UNL     1      45.377   3.515   8.260  0.00  0.00    +0.000 N 
ATOM     29  C   UNL     1      45.533   4.606   9.080  0.00  0.00    +0.000 A 
ATOM     30  O   UNL     1      46.174   5.580   8.711  0.00  0.00    +0.000 OA
ATOM     31  C   UNL     1      44.854   4.491  10.359  0.00  0.00    +0.000 A 
ATOM     32  H   UNL     1      45.823   3.579   7.356  0.00  0.00    +0.000 HD
ENDBRANCH  19  22
ENDBRANCH   1  20
TORSDOF 7
ENDMDL
MODEL 9
REMARK VINA RESULT:    -6.810      2.789      4.417
REMARK INTER + INTRA:         -10.978
REMARK INTER:                  -9.866
REMARK INTRA:                  -1.112
REMARK UNBOUND:                -1.381
REMARK  Name = 
REMARK  7 active torsions:
REMARK  status: ('A' for Active; 'I' for Inactive)
REMARK    1  A    between atoms: C_2  and  C_20
REMARK    2  A    between atoms: N_3  and  C_4
REMARK    3  A    between atoms: C_4  and  C_5
REMARK    4  A    between atoms: C_8  and  C_9
REMARK    5  A    between atoms: C_9  and  N_10
REMARK    6  A    between atoms: N_10  and  C_11
REMARK    7  A    between atoms: C_11  and  C_12
REMARK                            x       y       z     vdW  Elec       q    Type
REMARK                         _______ _______ _______ _____ _____    ______ ____
ROOT
ATOM      1  C   UNL     1      47.911   5.930  14.619  0.00  0.00    +0.000 C 
ENDROOT
BRANCH   1   2
ATOM      2  C   UNL     1      47.304   5.254  13.387  0.00  0.00    +0.000 C 
ATOM      3  C   UNL     1      46.580   6.268  12.483  0.00  0.00    +0.000 C 
ATOM      4  C   UNL     1      45.914   5.588  11.287  0.00  0.00    +0.000 C 
ATOM      5  C   UNL     1      44.952   4.477  11.743  0.00  0.00    +0.000 C 
ATOM      6  C   UNL     1      45.696   3.464  12.629  0.00  0.00    +0.000 C 
ATOM      7  C   UNL     1      46.361   4.135  13.825  0.00  0.00    +0.000 C 
BRANCH   5   8
ATOM      8  C   UNL     1      44.296   3.791  10.532  0.00  0.00    +0.000 C 
BRANCH   8   9
ATOM      9  N   UNL     1      44.946   2.504  10.287  0.00  0.00    +0.000 NA
ATOM     10  H   UNL     1      44.695   1.838  11.017  0.00  0.00    +0.000 HD
BRANCH   9  11
ATOM     11  C   UNL     1      44.612   1.947   8.982  0.00  0.00    +0.000 C 
BRANCH  11  12
ATOM     12  C   UNL     1      45.775   2.083   8.037  0.00  0.00    +0.000 A 
ATOM     13  C   UNL     1      46.010   3.267   7.329  0.00  0.00    +0.000 A 
ATOM     14  C   UNL     1      47.103   3.358   6.472  0.00  0.00    +0.000 A 
ATOM     15  C   UNL     1      47.928   2.252   6.346  0.00  0.00    +0.000 A 
ATOM     16  N   UNL     1      47.732   1.091   7.002  0.00  0.00    +0.000 NA
ATOM     17  C   UNL     1      46.663   1.033   7.831  0.00  0.00    +0.000 A 
ENDBRANCH  11  12
ENDBRANCH   9  11
ENDBRANCH   8   9
ENDBRANCH   5   8
ENDBRANCH   1   2
BRANCH   1  20
ATOM     18  O   UNL     1      50.514   6.741  15.434  0.00  0.00    +0.000 OA
ATOM     19  C   UNL     1      49.829   7.488  14.742  0.00  0.00    +0.000 C 
ATOM     20  N   UNL     1      48.599   7.143  14.254  0.00  0.00    +0.000 N 
ATOM     21  H   UNL     1      48.115   7.776  13.629  0.00  0.00    +0.000 HD
BRANCH  19  22
ATOM     22  C   UNL     1      50.304   8.805  14.326  0.00  0.00    +0.000 A 
ATOM     23  C   UNL     1      50.418   9.848  15.233  0.00  0.00    +0.000 A 
ATOM     24  S   UNL     1      51.020  11.283  14.529  0.00  0.00    +0.000 S 
ATOM     25  C   UNL     1      51.109  10.564  12.991  0.00  0.00    +0.000 A 
ATOM     26  N   UNL     1      51.554  11.254  11.909  0.00  0.00    +0.000 NA
ATOM     27  C   UNL     1      51.567  10.581  10.807  0.00  0.00    +0.000 A 
ATOM     28  N   UNL     1      51.167   9.276  10.687  0.00  0.00    +0.000 N 
ATOM     29  C   UNL     1      50.682   8.540  11.740  0.00  0.00    +0.000 A 
ATOM     30  O   UNL     1      50.317   7.383  11.581  0.00  0.00    +0.000 OA
ATOM     31  C   UNL     1      50.684   9.246  13.009  0.00  0.00    +0.000 A 
ATOM     32  H   UNL     1      51.194   8.800   9.796  0.00  0.00    +0.000 HD
ENDBRANCH  19  22
ENDBRANCH   1  20
TORSDOF 7
ENDMDL
