MODEL 1
REMARK VINA RESULT:    -7.560      0.000      0.000
REMARK INTER + INTRA:         -10.352
REMARK INTER:                  -9.769
REMARK INTRA:                  -0.583
REMARK UNBOUND:                -0.583
REMARK  Name = 
REMARK  6 active torsions:
REMARK  status: ('A' for Active; 'I' for Inactive)
REMARK    1  A    between atoms: N_1  and  C_2
REMARK    2  A    between atoms: C_2  and  C_3
REMARK    3  A    between atoms: C_6  and  O_7
REMARK    4  A    between atoms: O_7  and  C_8
REMARK    5  A    between atoms: C_8  and  C_9
REMARK    6  A    between atoms: C_13  and  O_14
REMARK                            x       y       z     vdW  Elec       q    Type
REMARK                         _______ _______ _______ _____ _____    ______ ____
ROOT
ATOM      1  C   UNL     1      46.596   2.274   7.656  0.00  0.00    +0.000 A 
ATOM      2  C   UNL     1      45.714   1.599   8.513  0.00  0.00    +0.000 A 
ATOM      3  C   UNL     1      44.729   2.303   9.216  0.00  0.00    +0.000 A 
ATOM      4  C   UNL     1      44.622   3.687   9.081  0.00  0.00    +0.000 A 
ATOM      5  C   UNL     1      45.466   4.355   8.190  0.00  0.00    +0.000 A 
ATOM      6  C   UNL     1      46.453   3.656   7.494  0.00  0.00    +0.000 A 
ENDROOT
BRANCH   1   7
ATOM      7  C   UNL     1      47.693   1.537   6.935  0.00  0.00    +0.000 C 
BRANCH   7   8
ATOM      8  N   UNL     1      48.657   2.452   6.339  0.00  0.00    +0.000 NA
ATOM      9  H   UNL     1      49.584   2.038   6.391  0.00  0.00    +0.000 HD
ATOM     10  H   UNL     1      48.688   3.303   6.901  0.00  0.00    +0.000 HD
ENDBRANCH   7   8
ENDBRANCH   1   7
BRANCH   4  11
ATOM     11  O   UNL     1      43.674   4.293   9.865  0.00  0.00    +0.000 OA
BRANCH  11  12
ATOM     12  C   UNL     1      43.652   3.840  11.220  0.00  0.00    +0.000 C 
BRANCH  12  13
ATOM     13  C   UNL     1      44.788   4.403  12.025  0.00  0.00    +0.000 A 
ATOM     14  C   UNL     1      44.967   5.769  12.220  0.00  0.00    +0.000 A 
ATOM     15  N   UNL     1      45.923   6.304  13.017  0.00  0.00    +0.000 NA
ATOM     16  C   UNL     1      46.733   5.432  13.658  0.00  0.00    +0.000 A 
ATOM     17  C   UNL     1      46.630   4.057  13.537  0.00  0.00    +0.000 A 
ATOM     18  C   UNL     1      45.645   3.535  12.712  0.00  0.00    +0.000 A 
BRANCH  17  19
ATOM     19  O   UNL     1      47.436   3.184  14.200  0.00  0.00    +0.000 OA
ATOM     20  H   UNL     1      47.527   3.478  15.120  0.00  0.00    +0.000 HD
ENDBRANCH  17  19
ENDBRANCH  12  13
ENDBRANCH  11  12
ENDBRANCH   4  11
TORSDOF 6
ENDMDL
MODEL 2
REMARK VINA RESULT:    -7.229      2.084      5.950
REMARK INTER + INTRA:          -9.925
REMARK INTER:                  -9.399
REMARK INTRA:                  -0.526
REMARK UNBOUND:                -0.583
REMARK  Name = 
REMARK  6 active torsions:
REMARK  status: ('A' for Active; 'I' for Inactive)
REMARK    1  A    between atoms: N_1  and  C_2
REMARK    2  A    between atoms: C_2  and  C_3
REMARK    3  A    between atoms: C_6  and  O_7
REMARK    4  A    between atoms: O_7  and  C_8
REMARK    5  A    between atoms: C_8  and  C_9
REMARK    6  A    between atoms: C_13  and  O_14
REMARK                            x       y       z     vdW  Elec       q    Type
REMARK                         _______ _______ _______ _____ _____    ______ ____
ROOT
ATOM      1  C   UNL     1      46.597   5.532  12.788  0.00  0.00    +0.000 A 
ATOM      2  C   UNL     1      46.255   6.235  11.624  0.00  0.00    +0.000 A 
ATOM      3  C   UNL     1      45.395   5.665  10.677  0.00  0.00    +0.000 A 
ATOM      4  C   UNL     1      44.877   4.387  10.877  0.00  0.00    +0.000 A 
ATOM      5  C   UNL     1      45.174   3.704  12.059  0.00  0.00    +0.000 A 
ATOM      6  C   UNL     1      46.038   4.268  13.001  0.00  0.00    +0.000 A 
ENDROOT
BRANCH   1   7
ATOM      7  C   UNL     1      47.562   6.111  13.788  0.00  0.00    +0.000 C 
BRANCH   7   8
ATOM      8  N   UNL     1      47.598   5.330  15.018  0.00  0.00    +0.000 NA
ATOM      9  H   UNL     1      47.535   5.960  15.813  0.00  0.00    +0.000 HD
ATOM     10  H   UNL     1      48.506   4.870  15.085  0.00  0.00    +0.000 HD
ENDBRANCH   7   8
ENDBRANCH   1   7
BRANCH   4  11
ATOM     11  O   UNL     1      44.103   3.889   9.861  0.00  0.00    +0.000 OA
BRANCH  11  12
ATOM     12  C   UNL     1      44.644   4.091   8.553  0.00  0.00    +0.000 C 
BRANCH  12  13
ATOM     13  C   UNL     1      45.637   3.029   8.179  0.00  0.00    +0.000 A 
ATOM     14  C   UNL     1      45.485   1.695   8.545  0.00  0.00    +0.000 A 
ATOM     15  N   UNL     1      46.310   0.699   8.143  0.00  0.00    +0.000 NA
ATOM     16  C   UNL     1      47.331   1.049   7.330  0.00  0.00    +0.000 A 
ATOM     17  C   UNL     1      47.561   2.346   6.903  0.00  0.00    +0.000 A 
ATOM     18  C   UNL     1      46.704   3.348   7.331  0.00  0.00    +0.000 A 
BRANCH  17  19
ATOM     19  O   UNL     1      48.580   2.690   6.068  0.00  0.00    +0.000 OA
ATOM     20  H   UNL     1      49.231   3.210   6.566  0.00  0.00    +0.000 HD
ENDBRANCH  17  19
ENDBRANCH  12  13
ENDBRANCH  11  12
ENDBRANCH   4  11
TORSDOF 6
ENDMDL
MODEL 3
REMARK VINA RESULT:    -6.807      1.500      2.081
REMARK INTER + INTRA:          -9.379
REMARK INTER:                  -8.892
REMARK INTRA:                  -0.487
REMARK UNBOUND:                -0.583
REMARK  Name = 
REMARK  6 active torsions:
REMARK  status: ('A' for Active; 'I' for Inactive)
REMARK    1  A    between atoms: N_1  and  C_2
REMARK    2  A    between atoms: C_2  and  C_3
REMARK    3  A    between atoms: C_6  and  O_7
REMARK    4  A    between atoms: O_7  and  C_8
REMARK    5  A    between atoms: C_8  and  C_9
REMARK    6  A    between atoms: C_13  and  O_14
REMARK                            x       y       z     vdW  Elec       q    Type
REMARK                         _______ _______ _______ _____ _____    ______ ____
ROOT
ATOM      1  C   UNL     1      46.124   2.197   7.966  0.00  0.00    +0.000 A 
ATOM      2  C   UNL     1      46.227   3.588   7.815  0.00  0.00    +0.000 A 
ATOM      3  C   UNL     1      45.452   4.447   8.603  0.00  0.00    +0.000 A 
ATOM      4  C   UNL     1      44.559   3.928   9.540  0.00  0.00    +0.000 A 
ATOM      5  C   UNL     1      44.491   2.546   9.729  0.00  0.00    +0.000 A 
ATOM      6  C   UNL     1      45.258   1.687   8.939  0.00  0.00    +0.000 A 
ENDROOT
BRANCH   1   7
ATOM      7  C   UNL     1      46.912   1.261   7.089  0.00  0.00    +0.000 C 
BRANCH   7   8
ATOM      8  N   UNL     1      47.002  -0.073   7.666  0.00  0.00    +0.000 NA
ATOM      9  H   UNL     1      46.755  -0.025   8.651  0.00  0.00    +0.000 HD
ATOM     10  H   UNL     1      47.973  -0.381   7.625  0.00  0.00    +0.000 HD
ENDBRANCH   7   8
ENDBRANCH   1   7
BRANCH   4  11
ATOM     11  O   UNL     1      43.794   4.847  10.211  0.00  0.00    +0.000 OA
BRANCH  11  12
ATOM     12  C   UNL     1      44.527   5.963  10.722  0.00  0.00    +0.000 C 
BRANCH  12  13
ATOM     13  C   UNL     1      45.324   5.607  11.943  0.00  0.00    +0.000 A 
ATOM     14  C   UNL     1      44.859   4.729  12.916  0.00  0.00    +0.000 A 
ATOM     15  N   UNL     1      45.591   4.314  13.978  0.00  0.00    +0.000 NA
ATOM     16  C   UNL     1      46.852   4.793  14.068  0.00  0.00    +0.000 A 
ATOM     17  C   UNL     1      47.409   5.664  13.148  0.00  0.00    +0.000 A 
ATOM     18  C   UNL     1      46.638   6.076  12.071  0.00  0.00    +0.000 A 
BRANCH  17  19
ATOM     19  O   UNL     1      48.686   6.129  13.233  0.00  0.00    +0.000 OA
ATOM     20  H   UNL     1      49.106   5.748  14.021  0.00  0.00    +0.000 HD
ENDBRANCH  17  19
ENDBRANCH  12  13
ENDBRANCH  11  12
ENDBRANCH   4  11
TORSDOF 6
ENDMDL
MODEL 4
REMARK VINA RESULT:    -6.521      2.029      5.549
REMARK INTER + INTRA:          -9.010
REMARK INTER:                  -8.610
REMARK INTRA:                  -0.400
REMARK UNBOUND:                -0.583
REMARK  Name = 
REMARK  6 active torsions:
REMARK  status: ('A' for Active; 'I' for Inactive)
REMARK    1  A    between atoms: N_1  and  C_2
REMARK    2  A    between atoms: C_2  and  C_3
REMARK    3  A    between atoms: C_6  and  O_7
REMARK    4  A    between atoms: O_7  and  C_8
REMARK    5  A    between atoms: C_8  and  C_9
REMARK    6  A    between atoms: C_13  and  O_14
REMARK                            x       y       z     vdW  Elec       q    Type
REMARK                         _______ _______ _______ _____ _____    ______ ____
ROOT
ATOM      1  C   UNL     1      47.035   5.920  13.069  0.00  0.00    +0.000 A 
ATOM      2  C   UNL     1      46.241   4.793  13.328  0.00  0.00    +0.000 A 
ATOM      3  C   UNL     1      45.279   4.374  12.402  0.00  0.00    +0.000 A 
ATOM      4  C   UNL     1      45.091   5.080  11.215  0.00  0.00    +0.000 A 
ATOM      5  C   UNL     1      45.914   6.172  10.930  0.00  0.00    +0.000 A 
ATOM      6  C   UNL     1      46.869   6.596  11.856  0.00  0.00    +0.000 A 
ENDROOT
BRANCH   1   7
ATOM      7  C   UNL     1      48.036   6.412  14.080  0.00  0.00    +0.000 C 
BRANCH   7   8
ATOM      8  N   UNL     1      49.329   6.690  13.468  0.00  0.00    +0.000 NA
ATOM      9  H   UNL     1      49.396   7.685  13.271  0.00  0.00    +0.000 HD
ATOM     10  H   UNL     1      49.372   6.212  12.568  0.00  0.00    +0.000 HD
ENDBRANCH   7   8
ENDBRANCH   1   7
BRANCH   4  11
ATOM     11  O   UNL     1      44.078   4.634  10.406  0.00  0.00    +0.000 OA
BRANCH  11  12
ATOM     12  C   UNL     1      44.152   3.244  10.079  0.00  0.00    +0.000 C 
BRANCH  12  13
ATOM     13  C   UNL     1      45.056   2.985   8.908  0.00  0.00    +0.000 A 
ATOM     14  C   UNL     1      45.422   3.979   8.006  0.00  0.00    +0.000 A 
ATOM     15  N   UNL     1      46.309   3.800   6.998  0.00  0.00    +0.000 NA
ATOM     16  C   UNL     1      46.863   2.572   6.890  0.00  0.00    +0.000 A 
ATOM     17  C   UNL     1      46.571   1.520   7.742  0.00  0.00    +0.000 A 
ATOM     18  C   UNL     1      45.657   1.729   8.765  0.00  0.00    +0.000 A 
BRANCH  17  19
ATOM     19  O   UNL     1      47.146   0.291   7.641  0.00  0.00    +0.000 OA
ATOM     20  H   UNL     1      48.111   0.394   7.668  0.00  0.00    +0.000 HD
ENDBRANCH  17  19
ENDBRANCH  12  13
ENDBRANCH  11  12
ENDBRANCH   4  11
TORSDOF 6
ENDMDL
MODEL 5
REMARK VINA RESULT:    -5.974      1.701      2.031
REMARK INTER + INTRA:          -8.303
REMARK INTER:                  -7.948
REMARK INTRA:                  -0.355
REMARK UNBOUND:                -0.583
REMARK  Name = 
REMARK  6 active torsions:
REMARK  status: ('A' for Active; 'I' for Inactive)
REMARK    1  A    between atoms: N_1  and  C_2
REMARK    2  A    between atoms: C_2  and  C_3
REMARK    3  A    between atoms: C_6  and  O_7
REMARK    4  A    between atoms: O_7  and  C_8
REMARK    5  A    between atoms: C_8  and  C_9
REMARK    6  A    between atoms: C_13  and  O_14
REMARK                            x       y       z     vdW  Elec       q    Type
REMARK                         _______ _______ _______ _____ _____    ______ ____
ROOT
ATOM      1  C   UNL     1      46.380   2.809   7.559  0.00  0.00    +0.000 A 
ATOM      2  C   UNL     1      45.684   1.935   8.406  0.00  0.00    +0.000 A 
ATOM      3  C   UNL     1      44.902   2.434   9.454  0.00  0.00    +0.000 A 
ATOM      4  C   UNL     1      44.816   3.808   9.675  0.00  0.00    +0.000 A 
ATOM      5  C   UNL     1      45.467   4.684   8.803  0.00  0.00    +0.000 A 
ATOM      6  C   UNL     1      46.253   4.187   7.762  0.00  0.00    +0.000 A 
ENDROOT
BRANCH   1   7
ATOM      7  C   UNL     1      47.267   2.284   6.461  0.00  0.00    +0.000 C 
BRANCH   7   8
ATOM      8  N   UNL     1      47.938   1.052   6.853  0.00  0.00    +0.000 NA
ATOM      9  H   UNL     1      48.908   1.093   6.551  0.00  0.00    +0.000 HD
ATOM     10  H   UNL     1      47.511   0.274   6.350  0.00  0.00    +0.000 HD
ENDBRANCH   7   8
ENDBRANCH   1   7
BRANCH   4  11
ATOM     11  O   UNL     1      44.085   4.194  10.769  0.00  0.00    +0.000 OA
BRANCH  11  12
ATOM     12  C   UNL     1      44.857   4.389  11.956  0.00  0.00    +0.000 C 
BRANCH  12  13
ATOM     13  C   UNL     1      45.247   5.825  12.150  0.00  0.00    +0.000 A 
ATOM     14  C   UNL     1      44.547   6.879  11.573  0.00  0.00    +0.000 A 
ATOM     15  N   UNL     1      44.815   8.187  11.804  0.00  0.00    +0.000 NA
ATOM     16  C   UNL     1      45.827   8.455  12.660  0.00  0.00    +0.000 A 
ATOM     17  C   UNL     1      46.577   7.477  13.291  0.00  0.00    +0.000 A 
ATOM     18  C   UNL     1      46.284   6.146  13.034  0.00  0.00    +0.000 A 
BRANCH  17  19
ATOM     19  O   UNL     1      47.582   7.752  14.167  0.00  0.00    +0.000 OA
ATOM     20  H   UNL     1      48.424   7.761  13.685  0.00  0.00    +0.000 HD
ENDBRANCH  17  19
ENDBRANCH  12  13
ENDBRANCH  11  12
ENDBRANCH   4  11
TORSDOF 6
ENDMDL
MODEL 6
REMARK VINA RESULT:    -5.784      3.767      7.689
REMARK INTER + INTRA:          -8.058
REMARK INTER:                  -7.676
REMARK INTRA:                  -0.381
REMARK UNBOUND:                -0.583
REMARK  Name = 
REMARK  6 active torsions:
REMARK  status: ('A' for Active; 'I' for Inactive)
REMARK    1  A    between atoms: N_1  and  C_2
REMARK    2  A    between atoms: C_2  and  C_3
REMARK    3  A    between atoms: C_6  and  O_7
REMARK    4  A    between atoms: O_7  and  C_8
REMARK    5  A    between atoms: C_8  and  C_9
REMARK    6  A    between atoms: C_13  and  O_14
REMARK                            x       y       z     vdW  Elec       q    Type
REMARK                         _______ _______ _______ _____ _____    ______ ____
ROOT
ATOM      1  C   UNL     1      48.640   4.106  18.168  0.00  0.00    +0.000 A 
ATOM      2  C   UNL     1      48.020   5.074  17.364  0.00  0.00    +0.000 A 
ATOM      3  C   UNL     1      47.552   4.743  16.087  0.00  0.00    +0.000 A 
ATOM      4  C   UNL     1      47.708   3.448  15.595  0.00  0.00    +0.000 A 
ATOM      5  C   UNL     1      48.279   2.469  16.411  0.00  0.00    +0.000 A 
ATOM      6  C   UNL     1      48.753   2.799  17.682  0.00  0.00    +0.000 A 
ENDROOT
BRANCH   1   7
ATOM      7  C   UNL     1      49.196   4.461  19.521  0.00  0.00    +0.000 C 
BRANCH   7   8
ATOM      8  N   UNL     1      48.514   3.743  20.590  0.00  0.00    +0.000 NA
ATOM      9  H   UNL     1      48.743   4.177  21.480  0.00  0.00    +0.000 HD
ATOM     10  H   UNL     1      48.881   2.792  20.628  0.00  0.00    +0.000 HD
ENDBRANCH   7   8
ENDBRANCH   1   7
BRANCH   4  11
ATOM     11  O   UNL     1      47.282   3.241  14.308  0.00  0.00    +0.000 OA
BRANCH  11  12
ATOM     12  C   UNL     1      46.954   4.437  13.596  0.00  0.00    +0.000 C 
BRANCH  12  13
ATOM     13  C   UNL     1      45.547   4.417  13.072  0.00  0.00    +0.000 A 
ATOM     14  C   UNL     1      44.744   5.552  13.029  0.00  0.00    +0.000 A 
ATOM     15  N   UNL     1      43.508   5.588  12.476  0.00  0.00    +0.000 NA
ATOM     16  C   UNL     1      43.055   4.436  11.931  0.00  0.00    +0.000 A 
ATOM     17  C   UNL     1      43.780   3.257  11.916  0.00  0.00    +0.000 A 
ATOM     18  C   UNL     1      45.042   3.246  12.492  0.00  0.00    +0.000 A 
BRANCH  17  19
ATOM     19  O   UNL     1      43.327   2.106  11.350  0.00  0.00    +0.000 OA
ATOM     20  H   UNL     1      42.913   1.560  12.037  0.00  0.00    +0.000 HD
ENDBRANCH  17  19
ENDBRANCH  12  13
ENDBRANCH  11  12
ENDBRANCH   4  11
TORSDOF 6
ENDMDL
MODEL 7
REMARK VINA RESULT:    -5.531      2.805      4.118
REMARK INTER + INTRA:          -7.731
REMARK INTER:                  -7.291
REMARK INTRA:                  -0.440
REMARK UNBOUND:                -0.583
REMARK  Name = 
REMARK  6 active torsions:
REMARK  status: ('A' for Active; 'I' for Inactive)
REMARK    1  A    between atoms: N_1  and  C_2
REMARK    2  A    between atoms: C_2  and  C_3
REMARK    3  A    between atoms: C_6  and  O_7
REMARK    4  A    between atoms: O_7  and  C_8
REMARK    5  A    between atoms: C_8  and  C_9
REMARK    6  A    between atoms: C_13  and  O_14
REMARK                            x       y       z     vdW  Elec       q    Type
REMARK                         _______ _______ _______ _____ _____    ______ ____
ROOT
ATOM      1  C   UNL     1      44.917   3.782  10.098  0.00  0.00    +0.000 A 
ATOM      2  C   UNL     1      44.863   3.234  11.388  0.00  0.00    +0.000 A 
ATOM      3  C   UNL     1      45.252   3.992  12.499  0.00  0.00    +0.000 A 
ATOM      4  C   UNL     1      45.709   5.298  12.334  0.00  0.00    +0.000 A 
ATOM      5  C   UNL     1      45.716   5.865  11.057  0.00  0.00    +0.000 A 
ATOM      6  C   UNL     1      45.336   5.108   9.947  0.00  0.00    +0.000 A 
ENDROOT
BRANCH   1   7
ATOM      7  C   UNL     1      44.552   2.961   8.890  0.00  0.00    +0.000 C 
BRANCH   7   8
ATOM      8  N   UNL     1      44.759   1.538   9.123  0.00  0.00    +0.000 NA
ATOM      9  H   UNL     1      45.719   1.299   8.887  0.00  0.00    +0.000 HD
ATOM     10  H   UNL     1      44.164   1.013   8.481  0.00  0.00    +0.000 HD
ENDBRANCH   7   8
ENDBRANCH   1   7
BRANCH   4  11
ATOM     11  O   UNL     1      46.134   5.932  13.473  0.00  0.00    +0.000 OA
BRANCH  11  12
ATOM     12  C   UNL     1      47.528   5.779  13.748  0.00  0.00    +0.000 C 
BRANCH  12  13
ATOM     13  C   UNL     1      47.784   5.364  15.168  0.00  0.00    +0.000 A 
ATOM     14  C   UNL     1      48.619   6.078  16.021  0.00  0.00    +0.000 A 
ATOM     15  N   UNL     1      48.795   5.785  17.332  0.00  0.00    +0.000 NA
ATOM     16  C   UNL     1      48.097   4.734  17.817  0.00  0.00    +0.000 A 
ATOM     17  C   UNL     1      47.235   3.967  17.052  0.00  0.00    +0.000 A 
ATOM     18  C   UNL     1      47.074   4.286  15.711  0.00  0.00    +0.000 A 
BRANCH  17  19
ATOM     19  O   UNL     1      46.519   2.922  17.549  0.00  0.00    +0.000 OA
ATOM     20  H   UNL     1      45.577   3.079  17.381  0.00  0.00    +0.000 HD
ENDBRANCH  17  19
ENDBRANCH  12  13
ENDBRANCH  11  12
ENDBRANCH   4  11
TORSDOF 6
ENDMDL
MODEL 8
REMARK VINA RESULT:    -5.367      4.320      5.876
REMARK INTER + INTRA:          -7.518
REMARK INTER:                  -7.178
REMARK INTRA:                  -0.340
REMARK UNBOUND:                -0.583
REMARK  Name = 
REMARK  6 active torsions:
REMARK  status: ('A' for Active; 'I' for Inactive)
REMARK    1  A    between atoms: N_1  and  C_2
REMARK    2  A    between atoms: C_2  and  C_3
REMARK    3  A    between atoms: C_6  and  O_7
REMARK    4  A    between atoms: O_7  and  C_8
REMARK    5  A    between atoms: C_8  and  C_9
REMARK    6  A    between atoms: C_13  and  O_14
REMARK                            x       y       z     vdW  Elec       q    Type
REMARK                         _______ _______ _______ _____ _____    ______ ____
ROOT
ATOM      1  C   UNL     1      44.280   5.414  12.090  0.00  0.00    +0.000 A 
ATOM      2  C   UNL     1      45.096   6.555  12.097  0.00  0.00    +0.000 A 
ATOM      3  C   UNL     1      46.398   6.493  12.605  0.00  0.00    +0.000 A 
ATOM      4  C   UNL     1      46.896   5.298  13.121  0.00  0.00    +0.000 A 
ATOM      5  C   UNL     1      46.106   4.147  13.069  0.00  0.00    +0.000 A 
ATOM      6  C   UNL     1      44.803   4.208  12.569  0.00  0.00    +0.000 A 
ENDROOT
BRANCH   1   7
ATOM      7  C   UNL     1      42.859   5.479  11.596  0.00  0.00    +0.000 C 
BRANCH   7   8
ATOM      8  N   UNL     1      42.524   6.803  11.089  0.00  0.00    +0.000 NA
ATOM      9  H   UNL     1      41.874   6.706  10.313  0.00  0.00    +0.000 HD
ATOM     10  H   UNL     1      43.369   7.229  10.708  0.00  0.00    +0.000 HD
ENDBRANCH   7   8
ENDBRANCH   1   7
BRANCH   4  11
ATOM     11  O   UNL     1      48.156   5.357  13.660  0.00  0.00    +0.000 OA
BRANCH  11  12
ATOM     12  C   UNL     1      48.254   6.150  14.845  0.00  0.00    +0.000 C 
BRANCH  12  13
ATOM     13  C   UNL     1      48.370   5.310  16.083  0.00  0.00    +0.000 A 
ATOM     14  C   UNL     1      49.352   5.520  17.046  0.00  0.00    +0.000 A 
ATOM     15  N   UNL     1      49.425   4.842  18.217  0.00  0.00    +0.000 NA
ATOM     16  C   UNL     1      48.466   3.916  18.441  0.00  0.00    +0.000 A 
ATOM     17  C   UNL     1      47.442   3.640  17.550  0.00  0.00    +0.000 A 
ATOM     18  C   UNL     1      47.392   4.345  16.357  0.00  0.00    +0.000 A 
BRANCH  17  19
ATOM     19  O   UNL     1      46.468   2.720  17.790  0.00  0.00    +0.000 OA
ATOM     20  H   UNL     1      46.685   1.903  17.314  0.00  0.00    +0.000 HD
ENDBRANCH  17  19
ENDBRANCH  12  13
ENDBRANCH  11  12
ENDBRANCH   4  11
TORSDOF 6
ENDMDL
MODEL 9
REMARK VINA RESULT:    -5.192      3.738      7.718
REMARK INTER + INTRA:          -7.293
REMARK INTER:                  -6.979
REMARK INTRA:                  -0.313
REMARK UNBOUND:                -0.583
REMARK  Name = 
REMARK  6 active torsions:
REMARK  status: ('A' for Active; 'I' for Inactive)
REMARK    1  A    between atoms: N_1  and  C_2
REMARK    2  A    between atoms: C_2  and  C_3
REMARK    3  A    between atoms: C_6  and  O_7
REMARK    4  A    between atoms: O_7  and  C_8
REMARK    5  A    between atoms: C_8  and  C_9
REMARK    6  A    between atoms: C_13  and  O_14
REMARK                            x       y       z     vdW  Elec       q    Type
REMARK                         _______ _______ _______ _____ _____    ______ ____
ROOT
ATOM      1  C   UNL     1      49.387   4.631  17.846  0.00  0.00    +0.000 A 
ATOM      2  C   UNL     1      49.077   5.560  16.842  0.00  0.00    +0.000 A 
ATOM      3  C   UNL     1      48.050   5.300  15.927  0.00  0.00    +0.000 A 
ATOM      4  C   UNL     1      47.332   4.107  15.996  0.00  0.00    +0.000 A 
ATOM      5  C   UNL     1      47.603   3.203  17.025  0.00  0.00    +0.000 A 
ATOM      6  C   UNL     1      48.632   3.457  17.934  0.00  0.00    +0.000 A 
ENDROOT
BRANCH   1   7
ATOM      7  C   UNL     1      50.523   4.874  18.804  0.00  0.00    +0.000 C 
BRANCH   7   8
ATOM      8  N   UNL     1      51.449   3.749  18.839  0.00  0.00    +0.000 NA
ATOM      9  H   UNL     1      51.033   2.962  18.349  0.00  0.00    +0.000 HD
ATOM     10  H   UNL     1      51.567   3.456  19.809  0.00  0.00    +0.000 HD
ENDBRANCH   7   8
ENDBRANCH   1   7
BRANCH   4  11
ATOM     11  O   UNL     1      46.396   3.914  15.012  0.00  0.00    +0.000 OA
BRANCH  11  12
ATOM     12  C   UNL     1      46.365   4.941  14.018  0.00  0.00    +0.000 C 
BRANCH  12  13
ATOM     13  C   UNL     1      45.303   4.698  12.985  0.00  0.00    +0.000 A 
ATOM     14  C   UNL     1      45.256   3.542  12.212  0.00  0.00    +0.000 A 
ATOM     15  N   UNL     1      44.260   3.250  11.341  0.00  0.00    +0.000 NA
ATOM     16  C   UNL     1      43.258   4.152  11.243  0.00  0.00    +0.000 A 
ATOM     17  C   UNL     1      43.209   5.326  11.975  0.00  0.00    +0.000 A 
ATOM     18  C   UNL     1      44.243   5.603  12.857  0.00  0.00    +0.000 A 
BRANCH  17  19
ATOM     19  O   UNL     1      42.188   6.222  11.887  0.00  0.00    +0.000 OA
ATOM     20  H   UNL     1      42.040   6.438  10.952  0.00  0.00    +0.000 HD
ENDBRANCH  17  19
ENDBRANCH  12  13
ENDBRANCH  11  12
ENDBRANCH   4  11
TORSDOF 6
ENDMDL
