MODEL 1
REMARK VINA RESULT:    -8.402      0.000      0.000
REMARK INTER + INTRA:         -11.693
REMARK INTER:                 -10.858
REMARK INTRA:                  -0.835
REMARK UNBOUND:                -0.835
REMARK  Name = 
REMARK  5 active torsions:
REMARK  status: ('A' for Active; 'I' for Inactive)
REMARK    1  A    between atoms: C_2  and  C_4
REMARK    2  A    between atoms: C_7  and  O_8
REMARK    3  A    between atoms: O_8  and  C_9
REMARK    4  A    between atoms: C_9  and  C_10
REMARK    5  A    between atoms: C_14  and  N_15
REMARK                            x       y       z     vdW  Elec       q    Type
REMARK                         _______ _______ _______ _____ _____    ______ ____
ROOT
ATOM      1  C   UNL     1      43.928   5.473  10.899  0.00  0.00    +0.000 C 
ENDROOT
BRANCH   1   2
ATOM      2  C   UNL     1      45.010   5.255  11.917  0.00  0.00    +0.000 A 
ATOM      3  C   UNL     1      44.858   4.353  12.958  0.00  0.00    +0.000 A 
ATOM      4  N   UNL     1      45.768   4.175  13.939  0.00  0.00    +0.000 NA
ATOM      5  C   UNL     1      46.883   4.948  13.879  0.00  0.00    +0.000 A 
ATOM      6  C   UNL     1      47.162   5.890  12.887  0.00  0.00    +0.000 A 
ATOM      7  C   UNL     1      46.188   6.011  11.888  0.00  0.00    +0.000 A 
BRANCH   6   8
ATOM      8  N   UNL     1      48.256   6.737  12.883  0.00  0.00    +0.000 N 
ATOM      9  C   UNL     1      48.549   7.588  11.719  0.00  0.00    +0.000 C 
ATOM     10  C   UNL     1      50.060   7.886  11.720  0.00  0.00    +0.000 C 
ATOM     11  O   UNL     1      50.467   8.528  12.943  0.00  0.00    +0.000 OA
ATOM     12  C   UNL     1      50.167   7.692  14.077  0.00  0.00    +0.000 C 
ATOM     13  C   UNL     1      48.667   7.358  14.156  0.00  0.00    +0.000 C 
ENDBRANCH   6   8
ENDBRANCH   1   2
BRANCH   1  14
ATOM     14  O   UNL     1      43.631   4.230  10.268  0.00  0.00    +0.000 OA
BRANCH  14  18
ATOM     15  C   UNL     1      46.427   2.470   7.719  0.00  0.00    +0.000 A 
ATOM     16  C   UNL     1      46.214   3.850   7.622  0.00  0.00    +0.000 A 
ATOM     17  C   UNL     1      45.285   4.481   8.459  0.00  0.00    +0.000 A 
ATOM     18  C   UNL     1      44.564   3.739   9.396  0.00  0.00    +0.000 A 
ATOM     19  C   UNL     1      44.774   2.360   9.485  0.00  0.00    +0.000 A 
ATOM     20  C   UNL     1      45.694   1.724   8.647  0.00  0.00    +0.000 A 
BRANCH  15  22
ATOM     21  N   UNL     1      48.510   2.453   6.456  0.00  0.00    +0.000 N 
ATOM     22  C   UNL     1      47.398   1.761   6.846  0.00  0.00    +0.000 C 
ATOM     23  O   UNL     1      47.232   0.595   6.516  0.00  0.00    +0.000 OA
ATOM     24  H   UNL     1      49.211   1.920   5.958  0.00  0.00    +0.000 HD
ATOM     25  H   UNL     1      48.807   3.302   6.915  0.00  0.00    +0.000 HD
ENDBRANCH  15  22
ENDBRANCH  14  18
ENDBRANCH   1  14
TORSDOF 5
ENDMDL
MODEL 2
REMARK VINA RESULT:    -8.269      1.853      2.577
REMARK INTER + INTRA:         -11.521
REMARK INTER:                 -10.746
REMARK INTRA:                  -0.775
REMARK UNBOUND:                -0.835
REMARK  Name = 
REMARK  5 active torsions:
REMARK  status: ('A' for Active; 'I' for Inactive)
REMARK    1  A    between atoms: C_2  and  C_4
REMARK    2  A    between atoms: C_7  and  O_8
REMARK    3  A    between atoms: O_8  and  C_9
REMARK    4  A    between atoms: C_9  and  C_10
REMARK    5  A    between atoms: C_14  and  N_15
REMARK                            x       y       z     vdW  Elec       q    Type
REMARK                         _______ _______ _______ _____ _____    ______ ____
ROOT
ATOM      1  C   UNL     1      43.474   4.499  11.171  0.00  0.00    +0.000 C 
ENDROOT
BRANCH   1   2
ATOM      2  C   UNL     1      44.426   5.468  11.812  0.00  0.00    +0.000 A 
ATOM      3  C   UNL     1      44.606   6.749  11.315  0.00  0.00    +0.000 A 
ATOM      4  N   UNL     1      45.501   7.630  11.809  0.00  0.00    +0.000 NA
ATOM      5  C   UNL     1      46.263   7.201  12.848  0.00  0.00    +0.000 A 
ATOM      6  C   UNL     1      46.182   5.942  13.446  0.00  0.00    +0.000 A 
ATOM      7  C   UNL     1      45.220   5.083  12.900  0.00  0.00    +0.000 A 
BRANCH   6   8
ATOM      8  N   UNL     1      47.023   5.481  14.443  0.00  0.00    +0.000 N 
ATOM      9  C   UNL     1      47.163   4.042  14.710  0.00  0.00    +0.000 C 
ATOM     10  C   UNL     1      47.593   3.872  16.178  0.00  0.00    +0.000 C 
ATOM     11  O   UNL     1      48.825   4.567  16.448  0.00  0.00    +0.000 OA
ATOM     12  C   UNL     1      48.682   5.974  16.174  0.00  0.00    +0.000 C 
ATOM     13  C   UNL     1      48.264   6.231  14.715  0.00  0.00    +0.000 C 
ENDBRANCH   6   8
ENDBRANCH   1   2
BRANCH   1  14
ATOM     14  O   UNL     1      43.533   4.662   9.756  0.00  0.00    +0.000 OA
BRANCH  14  18
ATOM     15  C   UNL     1      46.375   2.280   7.845  0.00  0.00    +0.000 A 
ATOM     16  C   UNL     1      46.398   3.659   7.611  0.00  0.00    +0.000 A 
ATOM     17  C   UNL     1      45.463   4.496   8.233  0.00  0.00    +0.000 A 
ATOM     18  C   UNL     1      44.500   3.960   9.090  0.00  0.00    +0.000 A 
ATOM     19  C   UNL     1      44.475   2.581   9.315  0.00  0.00    +0.000 A 
ATOM     20  C   UNL     1      45.401   1.741   8.691  0.00  0.00    +0.000 A 
BRANCH  15  22
ATOM     21  N   UNL     1      48.426   1.918   6.580  0.00  0.00    +0.000 N 
ATOM     22  C   UNL     1      47.345   1.357   7.200  0.00  0.00    +0.000 C 
ATOM     23  O   UNL     1      47.207   0.142   7.250  0.00  0.00    +0.000 OA
ATOM     24  H   UNL     1      49.129   1.273   6.247  0.00  0.00    +0.000 HD
ATOM     25  H   UNL     1      48.708   2.873   6.745  0.00  0.00    +0.000 HD
ENDBRANCH  15  22
ENDBRANCH  14  18
ENDBRANCH   1  14
TORSDOF 5
ENDMDL
MODEL 3
REMARK VINA RESULT:    -7.708      2.219      2.694
REMARK INTER + INTRA:         -10.796
REMARK INTER:                 -10.096
REMARK INTRA:                  -0.701
REMARK UNBOUND:                -0.835
REMARK  Name = 
REMARK  5 active torsions:
REMARK  status: ('A' for Active; 'I' for Inactive)
REMARK    1  A    between atoms: C_2  and  C_4
REMARK    2  A    between atoms: C_7  and  O_8
REMARK    3  A    between atoms: O_8  and  C_9
REMARK    4  A    between atoms: C_9  and  C_10
REMARK    5  A    between atoms: C_14  and  N_15
REMARK                            x       y       z     vdW  Elec       q    Type
REMARK                         _______ _______ _______ _____ _____    ______ ____
ROOT
ATOM      1  C   UNL     1      43.827   3.389  11.657  0.00  0.00    +0.000 C 
ENDROOT
BRANCH   1   2
ATOM      2  C   UNL     1      44.838   4.404  12.109  0.00  0.00    +0.000 A 
ATOM      3  C   UNL     1      45.895   4.060  12.936  0.00  0.00    +0.000 A 
ATOM      4  N   UNL     1      46.786   4.946  13.429  0.00  0.00    +0.000 NA
ATOM      5  C   UNL     1      46.600   6.247  13.084  0.00  0.00    +0.000 A 
ATOM      6  C   UNL     1      45.582   6.728  12.258  0.00  0.00    +0.000 A 
ATOM      7  C   UNL     1      44.705   5.754  11.764  0.00  0.00    +0.000 A 
BRANCH   6   8
ATOM      8  N   UNL     1      45.346   8.064  11.986  0.00  0.00    +0.000 N 
ATOM      9  C   UNL     1      44.062   8.505  11.420  0.00  0.00    +0.000 C 
ATOM     10  C   UNL     1      44.309   9.818  10.656  0.00  0.00    +0.000 C 
ATOM     11  O   UNL     1      44.866  10.830  11.516  0.00  0.00    +0.000 OA
ATOM     12  C   UNL     1      46.118  10.385  12.073  0.00  0.00    +0.000 C 
ATOM     13  C   UNL     1      45.954   9.077  12.869  0.00  0.00    +0.000 C 
ENDBRANCH   6   8
ENDBRANCH   1   2
BRANCH   1  14
ATOM     14  O   UNL     1      43.524   3.620  10.284  0.00  0.00    +0.000 OA
BRANCH  14  18
ATOM     15  C   UNL     1      46.512   2.496   7.598  0.00  0.00    +0.000 A 
ATOM     16  C   UNL     1      46.120   3.838   7.633  0.00  0.00    +0.000 A 
ATOM     17  C   UNL     1      45.122   4.259   8.520  0.00  0.00    +0.000 A 
ATOM     18  C   UNL     1      44.508   3.342   9.375  0.00  0.00    +0.000 A 
ATOM     19  C   UNL     1      44.897   2.000   9.333  0.00  0.00    +0.000 A 
ATOM     20  C   UNL     1      45.888   1.574   8.444  0.00  0.00    +0.000 A 
BRANCH  15  22
ATOM     21  N   UNL     1      48.640   2.821   6.458  0.00  0.00    +0.000 N 
ATOM     22  C   UNL     1      47.562   2.007   6.668  0.00  0.00    +0.000 C 
ATOM     23  O   UNL     1      47.490   0.908   6.136  0.00  0.00    +0.000 OA
ATOM     24  H   UNL     1      49.395   2.425   5.913  0.00  0.00    +0.000 HD
ATOM     25  H   UNL     1      48.860   3.594   7.068  0.00  0.00    +0.000 HD
ENDBRANCH  15  22
ENDBRANCH  14  18
ENDBRANCH   1  14
TORSDOF 5
ENDMDL
MODEL 4
REMARK VINA RESULT:    -7.430      1.299      1.702
REMARK INTER + INTRA:         -10.436
REMARK INTER:                  -9.698
REMARK INTRA:                  -0.738
REMARK UNBOUND:                -0.835
REMARK  Name = 
REMARK  5 active torsions:
REMARK  status: ('A' for Active; 'I' for Inactive)
REMARK    1  A    between atoms: C_2  and  C_4
REMARK    2  A    between atoms: C_7  and  O_8
REMARK    3  A    between atoms: O_8  and  C_9
REMARK    4  A    between atoms: C_9  and  C_10
REMARK    5  A    between atoms: C_14  and  N_15
REMARK                            x       y       z     vdW  Elec       q    Type
REMARK                         _______ _______ _______ _____ _____    ______ ____
ROOT
ATOM      1  C   UNL     1      44.243   4.716  11.556  0.00  0.00    +0.000 C 
ENDROOT
BRANCH   1   2
ATOM      2  C   UNL     1      44.788   6.104  11.736  0.00  0.00    +0.000 A 
ATOM      3  C   UNL     1      44.057   7.225  11.377  0.00  0.00    +0.000 A 
ATOM      4  N   UNL     1      44.529   8.487  11.450  0.00  0.00    +0.000 NA
ATOM      5  C   UNL     1      45.804   8.633  11.897  0.00  0.00    +0.000 A 
ATOM      6  C   UNL     1      46.645   7.592  12.295  0.00  0.00    +0.000 A 
ATOM      7  C   UNL     1      46.088   6.310  12.214  0.00  0.00    +0.000 A 
BRANCH   6   8
ATOM      8  N   UNL     1      47.971   7.740  12.662  0.00  0.00    +0.000 N 
ATOM      9  C   UNL     1      48.913   8.484  11.812  0.00  0.00    +0.000 C 
ATOM     10  C   UNL     1      50.329   7.953  12.098  0.00  0.00    +0.000 C 
ATOM     11  O   UNL     1      50.671   8.093  13.490  0.00  0.00    +0.000 OA
ATOM     12  C   UNL     1      49.738   7.370  14.315  0.00  0.00    +0.000 C 
ATOM     13  C   UNL     1      48.293   7.853  14.097  0.00  0.00    +0.000 C 
ENDBRANCH   6   8
ENDBRANCH   1   2
BRANCH   1  14
ATOM     14  O   UNL     1      43.844   4.550  10.197  0.00  0.00    +0.000 OA
BRANCH  14  18
ATOM     15  C   UNL     1      46.416   2.319   7.787  0.00  0.00    +0.000 A 
ATOM     16  C   UNL     1      46.414   3.711   7.647  0.00  0.00    +0.000 A 
ATOM     17  C   UNL     1      45.567   4.498   8.437  0.00  0.00    +0.000 A 
ATOM     18  C   UNL     1      44.717   3.900   9.369  0.00  0.00    +0.000 A 
ATOM     19  C   UNL     1      44.716   2.509   9.501  0.00  0.00    +0.000 A 
ATOM     20  C   UNL     1      45.553   1.718   8.709  0.00  0.00    +0.000 A 
BRANCH  15  22
ATOM     21  N   UNL     1      48.356   2.039   6.341  0.00  0.00    +0.000 N 
ATOM     22  C   UNL     1      47.294   1.448   6.964  0.00  0.00    +0.000 C 
ATOM     23  O   UNL     1      47.100   0.243   6.873  0.00  0.00    +0.000 OA
ATOM     24  H   UNL     1      49.004   1.414   5.880  0.00  0.00    +0.000 HD
ATOM     25  H   UNL     1      48.695   2.954   6.602  0.00  0.00    +0.000 HD
ENDBRANCH  15  22
ENDBRANCH  14  18
ENDBRANCH   1  14
TORSDOF 5
ENDMDL
MODEL 5
REMARK VINA RESULT:    -6.945      1.824      6.562
REMARK INTER + INTRA:          -9.809
REMARK INTER:                  -8.910
REMARK INTRA:                  -0.899
REMARK UNBOUND:                -0.835
REMARK  Name = 
REMARK  5 active torsions:
REMARK  status: ('A' for Active; 'I' for Inactive)
REMARK    1  A    between atoms: C_2  and  C_4
REMARK    2  A    between atoms: C_7  and  O_8
REMARK    3  A    between atoms: O_8  and  C_9
REMARK    4  A    between atoms: C_9  and  C_10
REMARK    5  A    between atoms: C_14  and  N_15
REMARK                            x       y       z     vdW  Elec       q    Type
REMARK                         _______ _______ _______ _____ _____    ______ ____
ROOT
ATOM      1  C   UNL     1      43.815   6.272  11.606  0.00  0.00    +0.000 C 
ENDROOT
BRANCH   1   2
ATOM      2  C   UNL     1      43.823   4.841  11.153  0.00  0.00    +0.000 A 
ATOM      3  C   UNL     1      43.142   3.854  11.847  0.00  0.00    +0.000 A 
ATOM      4  N   UNL     1      43.177   2.544  11.524  0.00  0.00    +0.000 NA
ATOM      5  C   UNL     1      43.945   2.204  10.456  0.00  0.00    +0.000 A 
ATOM      6  C   UNL     1      44.677   3.095   9.669  0.00  0.00    +0.000 A 
ATOM      7  C   UNL     1      44.580   4.441  10.045  0.00  0.00    +0.000 A 
BRANCH   6   8
ATOM      8  N   UNL     1      45.527   2.732   8.641  0.00  0.00    +0.000 N 
ATOM      9  C   UNL     1      45.735   1.317   8.295  0.00  0.00    +0.000 C 
ATOM     10  C   UNL     1      47.120   1.190   7.634  0.00  0.00    +0.000 C 
ATOM     11  O   UNL     1      47.222   2.025   6.466  0.00  0.00    +0.000 OA
ATOM     12  C   UNL     1      47.008   3.407   6.812  0.00  0.00    +0.000 C 
ATOM     13  C   UNL     1      45.633   3.622   7.470  0.00  0.00    +0.000 C 
ENDBRANCH   6   8
ENDBRANCH   1   2
BRANCH   1  14
ATOM     14  O   UNL     1      44.513   6.368  12.846  0.00  0.00    +0.000 OA
BRANCH  14  18
ATOM     15  C   UNL     1      48.562   7.321  12.537  0.00  0.00    +0.000 A 
ATOM     16  C   UNL     1      48.210   6.089  13.098  0.00  0.00    +0.000 A 
ATOM     17  C   UNL     1      46.862   5.729  13.220  0.00  0.00    +0.000 A 
ATOM     18  C   UNL     1      45.860   6.597  12.783  0.00  0.00    +0.000 A 
ATOM     19  C   UNL     1      46.215   7.830  12.230  0.00  0.00    +0.000 A 
ATOM     20  C   UNL     1      47.558   8.197  12.113  0.00  0.00    +0.000 A 
BRANCH  15  22
ATOM     21  N   UNL     1      50.751   7.734  13.523  0.00  0.00    +0.000 N 
ATOM     22  C   UNL     1      49.980   7.744  12.396  0.00  0.00    +0.000 C 
ATOM     23  O   UNL     1      50.453   8.055  11.311  0.00  0.00    +0.000 OA
ATOM     24  H   UNL     1      51.737   7.916  13.387  0.00  0.00    +0.000 HD
ATOM     25  H   UNL     1      50.478   7.241  14.361  0.00  0.00    +0.000 HD
ENDBRANCH  15  22
ENDBRANCH  14  18
ENDBRANCH   1  14
TORSDOF 5
ENDMDL
MODEL 6
REMARK VINA RESULT:    -6.814      2.292      7.113
REMARK INTER + INTRA:          -9.640
REMARK INTER:                  -9.357
REMARK INTRA:                  -0.283
REMARK UNBOUND:                -0.835
REMARK  Name = 
REMARK  5 active torsions:
REMARK  status: ('A' for Active; 'I' for Inactive)
REMARK    1  A    between atoms: C_2  and  C_4
REMARK    2  A    between atoms: C_7  and  O_8
REMARK    3  A    between atoms: O_8  and  C_9
REMARK    4  A    between atoms: C_9  and  C_10
REMARK    5  A    between atoms: C_14  and  N_15
REMARK                            x       y       z     vdW  Elec       q    Type
REMARK                         _______ _______ _______ _____ _____    ______ ____
ROOT
ATOM      1  C   UNL     1      45.108   6.513  11.232  0.00  0.00    +0.000 C 
ENDROOT
BRANCH   1   2
ATOM      2  C   UNL     1      44.706   5.143  10.769  0.00  0.00    +0.000 A 
ATOM      3  C   UNL     1      43.668   4.447  11.370  0.00  0.00    +0.000 A 
ATOM      4  N   UNL     1      43.317   3.186  11.040  0.00  0.00    +0.000 NA
ATOM      5  C   UNL     1      44.050   2.588  10.067  0.00  0.00    +0.000 A 
ATOM      6  C   UNL     1      45.115   3.174   9.379  0.00  0.00    +0.000 A 
ATOM      7  C   UNL     1      45.414   4.490   9.754  0.00  0.00    +0.000 A 
BRANCH   6   8
ATOM      8  N   UNL     1      45.914   2.527   8.454  0.00  0.00    +0.000 N 
ATOM      9  C   UNL     1      45.725   1.099   8.158  0.00  0.00    +0.000 C 
ATOM     10  C   UNL     1      47.067   0.539   7.650  0.00  0.00    +0.000 C 
ATOM     11  O   UNL     1      47.524   1.250   6.484  0.00  0.00    +0.000 OA
ATOM     12  C   UNL     1      47.697   2.649   6.781  0.00  0.00    +0.000 C 
ATOM     13  C   UNL     1      46.391   3.289   7.284  0.00  0.00    +0.000 C 
ENDBRANCH   6   8
ENDBRANCH   1   2
BRANCH   1  14
ATOM     14  O   UNL     1      46.525   6.556  11.374  0.00  0.00    +0.000 OA
BRANCH  14  18
ATOM     15  C   UNL     1      47.917   5.588  15.185  0.00  0.00    +0.000 A 
ATOM     16  C   UNL     1      48.370   6.771  14.593  0.00  0.00    +0.000 A 
ATOM     17  C   UNL     1      47.928   7.135  13.315  0.00  0.00    +0.000 A 
ATOM     18  C   UNL     1      47.032   6.318  12.622  0.00  0.00    +0.000 A 
ATOM     19  C   UNL     1      46.587   5.133  13.214  0.00  0.00    +0.000 A 
ATOM     20  C   UNL     1      47.031   4.762  14.486  0.00  0.00    +0.000 A 
BRANCH  15  22
ATOM     21  N   UNL     1      47.706   5.688  17.610  0.00  0.00    +0.000 N 
ATOM     22  C   UNL     1      48.367   5.163  16.536  0.00  0.00    +0.000 C 
ATOM     23  O   UNL     1      49.268   4.348  16.687  0.00  0.00    +0.000 OA
ATOM     24  H   UNL     1      47.950   5.302  18.513  0.00  0.00    +0.000 HD
ATOM     25  H   UNL     1      46.808   6.141  17.523  0.00  0.00    +0.000 HD
ENDBRANCH  15  22
ENDBRANCH  14  18
ENDBRANCH   1  14
TORSDOF 5
ENDMDL
MODEL 7
REMARK VINA RESULT:    -6.585      2.930      7.509
REMARK INTER + INTRA:          -9.344
REMARK INTER:                  -8.710
REMARK INTRA:                  -0.634
REMARK UNBOUND:                -0.835
REMARK  Name = 
REMARK  5 active torsions:
REMARK  status: ('A' for Active; 'I' for Inactive)
REMARK    1  A    between atoms: C_2  and  C_4
REMARK    2  A    between atoms: C_7  and  O_8
REMARK    3  A    between atoms: O_8  and  C_9
REMARK    4  A    between atoms: C_9  and  C_10
REMARK    5  A    between atoms: C_14  and  N_15
REMARK                            x       y       z     vdW  Elec       q    Type
REMARK                         _______ _______ _______ _____ _____    ______ ____
ROOT
ATOM      1  C   UNL     1      45.945   6.901  12.875  0.00  0.00    +0.000 C 
ENDROOT
BRANCH   1   2
ATOM      2  C   UNL     1      45.059   5.923  12.160  0.00  0.00    +0.000 A 
ATOM      3  C   UNL     1      43.802   5.593  12.641  0.00  0.00    +0.000 A 
ATOM      4  N   UNL     1      42.999   4.667  12.076  0.00  0.00    +0.000 NA
ATOM      5  C   UNL     1      43.485   4.031  10.979  0.00  0.00    +0.000 A 
ATOM      6  C   UNL     1      44.728   4.270  10.389  0.00  0.00    +0.000 A 
ATOM      7  C   UNL     1      45.503   5.257  11.011  0.00  0.00    +0.000 A 
BRANCH   6   8
ATOM      8  N   UNL     1      45.253   3.556   9.327  0.00  0.00    +0.000 N 
ATOM      9  C   UNL     1      44.865   2.156   9.091  0.00  0.00    +0.000 C 
ATOM     10  C   UNL     1      46.012   1.470   8.327  0.00  0.00    +0.000 C 
ATOM     11  O   UNL     1      46.291   2.143   7.085  0.00  0.00    +0.000 OA
ATOM     12  C   UNL     1      46.660   3.514   7.325  0.00  0.00    +0.000 C 
ATOM     13  C   UNL     1      45.556   4.278   8.077  0.00  0.00    +0.000 C 
ENDBRANCH   6   8
ENDBRANCH   1   2
BRANCH   1  14
ATOM     14  O   UNL     1      47.235   6.318  13.045  0.00  0.00    +0.000 OA
BRANCH  14  18
ATOM     15  C   UNL     1      48.167   4.682  16.768  0.00  0.00    +0.000 A 
ATOM     16  C   UNL     1      47.325   3.960  15.916  0.00  0.00    +0.000 A 
ATOM     17  C   UNL     1      46.987   4.471  14.657  0.00  0.00    +0.000 A 
ATOM     18  C   UNL     1      47.487   5.707  14.243  0.00  0.00    +0.000 A 
ATOM     19  C   UNL     1      48.322   6.430  15.098  0.00  0.00    +0.000 A 
ATOM     20  C   UNL     1      48.657   5.927  16.359  0.00  0.00    +0.000 A 
BRANCH  15  22
ATOM     21  N   UNL     1      47.910   4.732  19.190  0.00  0.00    +0.000 N 
ATOM     22  C   UNL     1      48.545   4.178  18.114  0.00  0.00    +0.000 C 
ATOM     23  O   UNL     1      49.362   3.279  18.257  0.00  0.00    +0.000 OA
ATOM     24  H   UNL     1      48.097   4.299  20.085  0.00  0.00    +0.000 HD
ATOM     25  H   UNL     1      47.061   5.270  19.099  0.00  0.00    +0.000 HD
ENDBRANCH  15  22
ENDBRANCH  14  18
ENDBRANCH   1  14
TORSDOF 5
ENDMDL
MODEL 8
REMARK VINA RESULT:    -6.237      4.729      8.489
REMARK INTER + INTRA:          -8.895
REMARK INTER:                  -8.319
REMARK INTRA:                  -0.576
REMARK UNBOUND:                -0.835
REMARK  Name = 
REMARK  5 active torsions:
REMARK  status: ('A' for Active; 'I' for Inactive)
REMARK    1  A    between atoms: C_2  and  C_4
REMARK    2  A    between atoms: C_7  and  O_8
REMARK    3  A    between atoms: O_8  and  C_9
REMARK    4  A    between atoms: C_9  and  C_10
REMARK    5  A    between atoms: C_14  and  N_15
REMARK                            x       y       z     vdW  Elec       q    Type
REMARK                         _______ _______ _______ _____ _____    ______ ____
ROOT
ATOM      1  C   UNL     1      47.788   4.157  16.763  0.00  0.00    +0.000 C 
ENDROOT
BRANCH   1   2
ATOM      2  C   UNL     1      47.520   4.856  15.461  0.00  0.00    +0.000 A 
ATOM      3  C   UNL     1      48.193   6.015  15.105  0.00  0.00    +0.000 A 
ATOM      4  N   UNL     1      47.937   6.720  13.983  0.00  0.00    +0.000 NA
ATOM      5  C   UNL     1      46.948   6.246  13.182  0.00  0.00    +0.000 A 
ATOM      6  C   UNL     1      46.198   5.092  13.418  0.00  0.00    +0.000 A 
ATOM      7  C   UNL     1      46.527   4.396  14.588  0.00  0.00    +0.000 A 
BRANCH   6   8
ATOM      8  N   UNL     1      45.133   4.666  12.645  0.00  0.00    +0.000 N 
ATOM      9  C   UNL     1      45.064   3.284  12.147  0.00  0.00    +0.000 C 
ATOM     10  C   UNL     1      44.204   3.283  10.871  0.00  0.00    +0.000 C 
ATOM     11  O   UNL     1      42.885   3.804  11.126  0.00  0.00    +0.000 OA
ATOM     12  C   UNL     1      42.963   5.154  11.623  0.00  0.00    +0.000 C 
ATOM     13  C   UNL     1      43.799   5.239  12.912  0.00  0.00    +0.000 C 
ENDBRANCH   6   8
ENDBRANCH   1   2
BRANCH   1  14
ATOM     14  O   UNL     1      48.935   4.744  17.374  0.00  0.00    +0.000 OA
BRANCH  14  18
ATOM     15  C   UNL     1      52.118   2.078  17.780  0.00  0.00    +0.000 A 
ATOM     16  C   UNL     1      52.357   3.438  18.002  0.00  0.00    +0.000 A 
ATOM     17  C   UNL     1      51.317   4.367  17.877  0.00  0.00    +0.000 A 
ATOM     18  C   UNL     1      50.033   3.943  17.529  0.00  0.00    +0.000 A 
ATOM     19  C   UNL     1      49.799   2.585  17.301  0.00  0.00    +0.000 A 
ATOM     20  C   UNL     1      50.835   1.655  17.417  0.00  0.00    +0.000 A 
BRANCH  15  22
ATOM     21  N   UNL     1      52.820  -0.216  18.207  0.00  0.00    +0.000 N 
ATOM     22  C   UNL     1      53.195   1.061  17.895  0.00  0.00    +0.000 C 
ATOM     23  O   UNL     1      54.367   1.340  17.686  0.00  0.00    +0.000 OA
ATOM     24  H   UNL     1      53.551  -0.914  18.169  0.00  0.00    +0.000 HD
ATOM     25  H   UNL     1      51.865  -0.534  18.124  0.00  0.00    +0.000 HD
ENDBRANCH  15  22
ENDBRANCH  14  18
ENDBRANCH   1  14
TORSDOF 5
ENDMDL
MODEL 9
REMARK VINA RESULT:    -5.746      3.300      5.565
REMARK INTER + INTRA:          -8.260
REMARK INTER:                  -7.580
REMARK INTRA:                  -0.680
REMARK UNBOUND:                -0.835
REMARK  Name = 
REMARK  5 active torsions:
REMARK  status: ('A' for Active; 'I' for Inactive)
REMARK    1  A    between atoms: C_2  and  C_4
REMARK    2  A    between atoms: C_7  and  O_8
REMARK    3  A    between atoms: O_8  and  C_9
REMARK    4  A    between atoms: C_9  and  C_10
REMARK    5  A    between atoms: C_14  and  N_15
REMARK                            x       y       z     vdW  Elec       q    Type
REMARK                         _______ _______ _______ _____ _____    ______ ____
ROOT
ATOM      1  C   UNL     1      48.250   7.439  12.694  0.00  0.00    +0.000 C 
ENDROOT
BRANCH   1   2
ATOM      2  C   UNL     1      49.155   7.392  13.891  0.00  0.00    +0.000 A 
ATOM      3  C   UNL     1      50.391   8.018  13.893  0.00  0.00    +0.000 A 
ATOM      4  N   UNL     1      51.271   7.945  14.915  0.00  0.00    +0.000 NA
ATOM      5  C   UNL     1      50.896   7.196  15.984  0.00  0.00    +0.000 A 
ATOM      6  C   UNL     1      49.682   6.518  16.112  0.00  0.00    +0.000 A 
ATOM      7  C   UNL     1      48.806   6.653  15.028  0.00  0.00    +0.000 A 
BRANCH   6   8
ATOM      8  N   UNL     1      49.346   5.684  17.164  0.00  0.00    +0.000 N 
ATOM      9  C   UNL     1      49.471   6.136  18.558  0.00  0.00    +0.000 C 
ATOM     10  C   UNL     1      49.665   4.891  19.443  0.00  0.00    +0.000 C 
ATOM     11  O   UNL     1      48.568   3.969  19.298  0.00  0.00    +0.000 OA
ATOM     12  C   UNL     1      48.447   3.539  17.928  0.00  0.00    +0.000 C 
ATOM     13  C   UNL     1      48.237   4.729  16.975  0.00  0.00    +0.000 C 
ENDBRANCH   6   8
ENDBRANCH   1   2
BRANCH   1  14
ATOM     14  O   UNL     1      46.899   7.304  13.130  0.00  0.00    +0.000 OA
BRANCH  14  18
ATOM     15  C   UNL     1      44.821   4.061  11.528  0.00  0.00    +0.000 A 
ATOM     16  C   UNL     1      45.069   4.077  12.904  0.00  0.00    +0.000 A 
ATOM     17  C   UNL     1      45.763   5.147  13.484  0.00  0.00    +0.000 A 
ATOM     18  C   UNL     1      46.213   6.205  12.692  0.00  0.00    +0.000 A 
ATOM     19  C   UNL     1      45.969   6.183  11.316  0.00  0.00    +0.000 A 
ATOM     20  C   UNL     1      45.284   5.114  10.732  0.00  0.00    +0.000 A 
BRANCH  15  22
ATOM     21  N   UNL     1      44.691   2.356   9.792  0.00  0.00    +0.000 N 
ATOM     22  C   UNL     1      44.094   2.943  10.873  0.00  0.00    +0.000 C 
ATOM     23  O   UNL     1      43.023   2.534  11.301  0.00  0.00    +0.000 OA
ATOM     24  H   UNL     1      44.237   1.527   9.432  0.00  0.00    +0.000 HD
ATOM     25  H   UNL     1      45.670   2.483   9.581  0.00  0.00    +0.000 HD
ENDBRANCH  15  22
ENDBRANCH  14  18
ENDBRANCH   1  14
TORSDOF 5
ENDMDL
