MODEL 1
REMARK VINA RESULT:    -7.879      0.000      0.000
REMARK INTER + INTRA:         -10.866
REMARK INTER:                 -10.182
REMARK INTRA:                  -0.684
REMARK UNBOUND:                -0.684
REMARK  Name = 
REMARK  6 active torsions:
REMARK  status: ('A' for Active; 'I' for Inactive)
REMARK    1  A    between atoms: C_1  and  C_2
REMARK    2  A    between atoms: C_2  and  N_3
REMARK    3  A    between atoms: C_2  and  C_16
REMARK    4  A    between atoms: N_3  and  C_4
REMARK    5  A    between atoms: C_7  and  C_8
REMARK    6  A    between atoms: C_12  and  N_13
REMARK                            x       y       z     vdW  Elec       q    Type
REMARK                         _______ _______ _______ _____ _____    ______ ____
ROOT
ATOM      1  C   UNL     1      44.769   5.458  10.826  0.00  0.00    +0.000 A 
ATOM      2  N   UNL     1      46.040   5.810  10.506  0.00  0.00    +0.000 NA
ATOM      3  C   UNL     1      46.770   6.557  11.382  0.00  0.00    +0.000 A 
ATOM      4  C   UNL     1      46.304   6.996  12.610  0.00  0.00    +0.000 A 
ATOM      5  C   UNL     1      44.997   6.647  12.944  0.00  0.00    +0.000 A 
ATOM      6  C   UNL     1      44.227   5.873  12.055  0.00  0.00    +0.000 A 
ENDROOT
BRANCH   4   7
ATOM      7  C   UNL     1      47.101   7.783  13.577  0.00  0.00    +0.000 C 
ATOM      8  N   UNL     1      46.639   8.996  13.997  0.00  0.00    +0.000 N 
ATOM      9  O   UNL     1      48.176   7.364  13.986  0.00  0.00    +0.000 OA
ATOM     10  H   UNL     1      45.795   9.458  13.693  0.00  0.00    +0.000 HD
ATOM     11  H   UNL     1      47.245   9.510  14.623  0.00  0.00    +0.000 HD
ENDBRANCH   4   7
BRANCH   6  12
ATOM     12  N   UNL     1      42.901   5.438  12.499  0.00  0.00    +0.000 N 
ATOM     13  O   UNL     1      41.921   5.703  11.785  0.00  0.00    +0.000 OA
ATOM     14  O   UNL     1      42.832   4.778  13.545  0.00  0.00    +0.000 OA
ENDBRANCH   6  12
BRANCH   1  15
ATOM     15  N   UNL     1      44.012   4.797   9.849  0.00  0.00    +0.000 N 
ATOM     16  H   UNL     1      43.029   5.068   9.945  0.00  0.00    +0.000 HD
BRANCH  15  18
ATOM     17  C   UNL     1      44.560   2.715  11.092  0.00  0.00    +0.000 C 
ATOM     18  C   UNL     1      44.125   3.334   9.763  0.00  0.00    +0.000 C 
BRANCH  18  19
ATOM     19  C   UNL     1      45.147   2.967   8.680  0.00  0.00    +0.000 A 
ATOM     20  C   UNL     1      45.457   3.896   7.672  0.00  0.00    +0.000 A 
ATOM     21  C   UNL     1      46.391   3.588   6.680  0.00  0.00    +0.000 A 
ATOM     22  C   UNL     1      47.026   2.348   6.684  0.00  0.00    +0.000 A 
ATOM     23 CL   UNL     1      48.193   1.980   5.475  0.00  0.00    +0.000 Cl
ATOM     24  C   UNL     1      46.720   1.405   7.661  0.00  0.00    +0.000 A 
ATOM     25  C   UNL     1      45.775   1.708   8.646  0.00  0.00    +0.000 A 
ENDBRANCH  18  19
ENDBRANCH  15  18
ENDBRANCH   1  15
TORSDOF 5
ENDMDL
MODEL 2
REMARK VINA RESULT:    -7.456      2.032      2.760
REMARK INTER + INTRA:         -10.320
REMARK INTER:                  -9.527
REMARK INTRA:                  -0.793
REMARK UNBOUND:                -0.684
REMARK  Name = 
REMARK  6 active torsions:
REMARK  status: ('A' for Active; 'I' for Inactive)
REMARK    1  A    between atoms: C_1  and  C_2
REMARK    2  A    between atoms: C_2  and  N_3
REMARK    3  A    between atoms: C_2  and  C_16
REMARK    4  A    between atoms: N_3  and  C_4
REMARK    5  A    between atoms: C_7  and  C_8
REMARK    6  A    between atoms: C_12  and  N_13
REMARK                            x       y       z     vdW  Elec       q    Type
REMARK                         _______ _______ _______ _____ _____    ______ ____
ROOT
ATOM      1  C   UNL     1      45.310   5.828  11.880  0.00  0.00    +0.000 A 
ATOM      2  N   UNL     1      44.393   6.609  11.255  0.00  0.00    +0.000 NA
ATOM      3  C   UNL     1      44.467   7.965  11.386  0.00  0.00    +0.000 A 
ATOM      4  C   UNL     1      45.433   8.625  12.126  0.00  0.00    +0.000 A 
ATOM      5  C   UNL     1      46.373   7.830  12.779  0.00  0.00    +0.000 A 
ATOM      6  C   UNL     1      46.317   6.429  12.655  0.00  0.00    +0.000 A 
ENDROOT
BRANCH   4   7
ATOM      7  C   UNL     1      45.536  10.097  12.248  0.00  0.00    +0.000 C 
ATOM      8  N   UNL     1      46.739  10.662  12.556  0.00  0.00    +0.000 N 
ATOM      9  O   UNL     1      44.549  10.806  12.095  0.00  0.00    +0.000 OA
ATOM     10  H   UNL     1      47.601  10.175  12.748  0.00  0.00    +0.000 HD
ATOM     11  H   UNL     1      46.741  11.667  12.671  0.00  0.00    +0.000 HD
ENDBRANCH   4   7
BRANCH   6  12
ATOM     12  N   UNL     1      47.391   5.645  13.267  0.00  0.00    +0.000 N 
ATOM     13  O   UNL     1      48.560   6.038  13.137  0.00  0.00    +0.000 OA
ATOM     14  O   UNL     1      47.070   4.650  13.932  0.00  0.00    +0.000 OA
ENDBRANCH   6  12
BRANCH   1  15
ATOM     15  N   UNL     1      45.126   4.439  11.824  0.00  0.00    +0.000 N 
ATOM     16  H   UNL     1      46.039   3.982  11.744  0.00  0.00    +0.000 HD
BRANCH  15  18
ATOM     17  C   UNL     1      43.375   2.741  11.343  0.00  0.00    +0.000 C 
ATOM     18  C   UNL     1      44.205   3.908  10.808  0.00  0.00    +0.000 C 
BRANCH  18  19
ATOM     19  C   UNL     1      45.010   3.435   9.591  0.00  0.00    +0.000 A 
ATOM     20  C   UNL     1      45.505   4.377   8.675  0.00  0.00    +0.000 A 
ATOM     21  C   UNL     1      46.248   3.971   7.564  0.00  0.00    +0.000 A 
ATOM     22  C   UNL     1      46.506   2.618   7.357  0.00  0.00    +0.000 A 
ATOM     23 CL   UNL     1      47.442   2.121   6.001  0.00  0.00    +0.000 Cl
ATOM     24  C   UNL     1      46.009   1.664   8.241  0.00  0.00    +0.000 A 
ATOM     25  C   UNL     1      45.253   2.070   9.346  0.00  0.00    +0.000 A 
ENDBRANCH  18  19
ENDBRANCH  15  18
ENDBRANCH   1  15
TORSDOF 5
ENDMDL
MODEL 3
REMARK VINA RESULT:    -7.386      2.324      2.900
REMARK INTER + INTRA:         -10.230
REMARK INTER:                  -9.385
REMARK INTRA:                  -0.845
REMARK UNBOUND:                -0.684
REMARK  Name = 
REMARK  6 active torsions:
REMARK  status: ('A' for Active; 'I' for Inactive)
REMARK    1  A    between atoms: C_1  and  C_2
REMARK    2  A    between atoms: C_2  and  N_3
REMARK    3  A    between atoms: C_2  and  C_16
REMARK    4  A    between atoms: N_3  and  C_4
REMARK    5  A    between atoms: C_7  and  C_8
REMARK    6  A    between atoms: C_12  and  N_13
REMARK                            x       y       z     vdW  Elec       q    Type
REMARK                         _______ _______ _______ _____ _____    ______ ____
ROOT
ATOM      1  C   UNL     1      46.359   5.547  12.506  0.00  0.00    +0.000 A 
ATOM      2  N   UNL     1      46.580   6.637  11.728  0.00  0.00    +0.000 NA
ATOM      3  C   UNL     1      47.568   7.514  12.067  0.00  0.00    +0.000 A 
ATOM      4  C   UNL     1      48.388   7.375  13.174  0.00  0.00    +0.000 A 
ATOM      5  C   UNL     1      48.163   6.264  13.984  0.00  0.00    +0.000 A 
ATOM      6  C   UNL     1      47.150   5.345  13.651  0.00  0.00    +0.000 A 
ENDROOT
BRANCH   4   7
ATOM      7  C   UNL     1      49.480   8.307  13.531  0.00  0.00    +0.000 C 
ATOM      8  N   UNL     1      50.731   7.816  13.769  0.00  0.00    +0.000 N 
ATOM      9  O   UNL     1      49.267   9.509  13.634  0.00  0.00    +0.000 OA
ATOM     10  H   UNL     1      51.009   6.847  13.759  0.00  0.00    +0.000 HD
ATOM     11  H   UNL     1      51.427   8.492  14.053  0.00  0.00    +0.000 HD
ENDBRANCH   4   7
BRANCH   6  12
ATOM     12  N   UNL     1      47.026   4.136  14.469  0.00  0.00    +0.000 N 
ATOM     13  O   UNL     1      47.207   3.034  13.930  0.00  0.00    +0.000 OA
ATOM     14  O   UNL     1      46.797   4.282  15.678  0.00  0.00    +0.000 OA
ENDBRANCH   6  12
BRANCH   1  15
ATOM     15  N   UNL     1      45.257   4.739  12.195  0.00  0.00    +0.000 N 
ATOM     16  H   UNL     1      45.541   3.756  12.225  0.00  0.00    +0.000 HD
BRANCH  15  18
ATOM     17  C   UNL     1      43.033   4.747  11.084  0.00  0.00    +0.000 C 
ATOM     18  C   UNL     1      44.532   5.017  10.946  0.00  0.00    +0.000 C 
BRANCH  18  19
ATOM     19  C   UNL     1      45.099   4.138   9.825  0.00  0.00    +0.000 A 
ATOM     20  C   UNL     1      45.773   4.736   8.746  0.00  0.00    +0.000 A 
ATOM     21  C   UNL     1      46.306   3.956   7.717  0.00  0.00    +0.000 A 
ATOM     22  C   UNL     1      46.172   2.570   7.754  0.00  0.00    +0.000 A 
ATOM     23 CL   UNL     1      46.850   1.610   6.498  0.00  0.00    +0.000 Cl
ATOM     24  C   UNL     1      45.491   1.957   8.802  0.00  0.00    +0.000 A 
ATOM     25  C   UNL     1      44.945   2.739   9.826  0.00  0.00    +0.000 A 
ENDBRANCH  18  19
ENDBRANCH  15  18
ENDBRANCH   1  15
TORSDOF 5
ENDMDL
MODEL 4
REMARK VINA RESULT:    -6.736      2.257      2.646
REMARK INTER + INTRA:          -9.389
REMARK INTER:                  -9.980
REMARK INTRA:                   0.591
REMARK UNBOUND:                -0.684
REMARK  Name = 
REMARK  6 active torsions:
REMARK  status: ('A' for Active; 'I' for Inactive)
REMARK    1  A    between atoms: C_1  and  C_2
REMARK    2  A    between atoms: C_2  and  N_3
REMARK    3  A    between atoms: C_2  and  C_16
REMARK    4  A    between atoms: N_3  and  C_4
REMARK    5  A    between atoms: C_7  and  C_8
REMARK    6  A    between atoms: C_12  and  N_13
REMARK                            x       y       z     vdW  Elec       q    Type
REMARK                         _______ _______ _______ _____ _____    ______ ____
ROOT
ATOM      1  C   UNL     1      45.222   5.359  11.739  0.00  0.00    +0.000 A 
ATOM      2  N   UNL     1      45.376   4.099  12.218  0.00  0.00    +0.000 NA
ATOM      3  C   UNL     1      46.114   3.896  13.346  0.00  0.00    +0.000 A 
ATOM      4  C   UNL     1      46.736   4.904  14.063  0.00  0.00    +0.000 A 
ATOM      5  C   UNL     1      46.592   6.201  13.573  0.00  0.00    +0.000 A 
ATOM      6  C   UNL     1      45.831   6.433  12.412  0.00  0.00    +0.000 A 
ENDROOT
BRANCH   4   7
ATOM      7  C   UNL     1      47.515   4.693  15.304  0.00  0.00    +0.000 C 
ATOM      8  N   UNL     1      47.138   3.714  16.175  0.00  0.00    +0.000 N 
ATOM      9  O   UNL     1      48.480   5.402  15.563  0.00  0.00    +0.000 OA
ATOM     10  H   UNL     1      46.338   3.105  16.087  0.00  0.00    +0.000 HD
ATOM     11  H   UNL     1      47.678   3.644  17.027  0.00  0.00    +0.000 HD
ENDBRANCH   4   7
BRANCH   6  12
ATOM     12  N   UNL     1      45.616   7.822  12.001  0.00  0.00    +0.000 N 
ATOM     13  O   UNL     1      46.564   8.618  12.087  0.00  0.00    +0.000 OA
ATOM     14  O   UNL     1      44.507   8.119  11.536  0.00  0.00    +0.000 OA
ENDBRANCH   6  12
BRANCH   1  15
ATOM     15  N   UNL     1      44.562   5.512  10.511  0.00  0.00    +0.000 N 
ATOM     16  H   UNL     1      43.889   6.280  10.585  0.00  0.00    +0.000 HD
BRANCH  15  18
ATOM     17  C   UNL     1      43.401   3.369  11.001  0.00  0.00    +0.000 C 
ATOM     18  C   UNL     1      43.915   4.328   9.927  0.00  0.00    +0.000 C 
BRANCH  18  19
ATOM     19  C   UNL     1      44.919   3.591   9.033  0.00  0.00    +0.000 A 
ATOM     20  C   UNL     1      45.676   4.312   8.094  0.00  0.00    +0.000 A 
ATOM     21  C   UNL     1      46.603   3.663   7.275  0.00  0.00    +0.000 A 
ATOM     22  C   UNL     1      46.784   2.286   7.385  0.00  0.00    +0.000 A 
ATOM     23 CL   UNL     1      47.944   1.493   6.392  0.00  0.00    +0.000 Cl
ATOM     24  C   UNL     1      46.031   1.548   8.294  0.00  0.00    +0.000 A 
ATOM     25  C   UNL     1      45.093   2.196   9.105  0.00  0.00    +0.000 A 
ENDBRANCH  18  19
ENDBRANCH  15  18
ENDBRANCH   1  15
TORSDOF 5
ENDMDL
MODEL 5
REMARK VINA RESULT:    -6.480      3.566      6.602
REMARK INTER + INTRA:          -9.058
REMARK INTER:                  -8.148
REMARK INTRA:                  -0.911
REMARK UNBOUND:                -0.684
REMARK  Name = 
REMARK  6 active torsions:
REMARK  status: ('A' for Active; 'I' for Inactive)
REMARK    1  A    between atoms: C_1  and  C_2
REMARK    2  A    between atoms: C_2  and  N_3
REMARK    3  A    between atoms: C_2  and  C_16
REMARK    4  A    between atoms: N_3  and  C_4
REMARK    5  A    between atoms: C_7  and  C_8
REMARK    6  A    between atoms: C_12  and  N_13
REMARK                            x       y       z     vdW  Elec       q    Type
REMARK                         _______ _______ _______ _____ _____    ______ ____
ROOT
ATOM      1  C   UNL     1      46.282   6.140  13.060  0.00  0.00    +0.000 A 
ATOM      2  N   UNL     1      45.688   6.782  12.022  0.00  0.00    +0.000 NA
ATOM      3  C   UNL     1      45.030   6.055  11.073  0.00  0.00    +0.000 A 
ATOM      4  C   UNL     1      44.916   4.676  11.087  0.00  0.00    +0.000 A 
ATOM      5  C   UNL     1      45.531   4.008  12.145  0.00  0.00    +0.000 A 
ATOM      6  C   UNL     1      46.213   4.738  13.136  0.00  0.00    +0.000 A 
ENDROOT
BRANCH   4   7
ATOM      7  C   UNL     1      44.180   3.884  10.077  0.00  0.00    +0.000 C 
ATOM      8  N   UNL     1      44.056   4.366   8.806  0.00  0.00    +0.000 N 
ATOM      9  O   UNL     1      43.665   2.814  10.376  0.00  0.00    +0.000 OA
ATOM     10  H   UNL     1      44.397   5.251   8.462  0.00  0.00    +0.000 HD
ATOM     11  H   UNL     1      43.505   3.806   8.170  0.00  0.00    +0.000 HD
ENDBRANCH   4   7
BRANCH   6  12
ATOM     12  N   UNL     1      46.746   4.001  14.284  0.00  0.00    +0.000 N 
ATOM     13  O   UNL     1      47.480   3.024  14.072  0.00  0.00    +0.000 OA
ATOM     14  O   UNL     1      46.476   4.427  15.416  0.00  0.00    +0.000 OA
ENDBRANCH   6  12
BRANCH   1  15
ATOM     15  N   UNL     1      47.052   6.909  13.944  0.00  0.00    +0.000 N 
ATOM     16  H   UNL     1      46.728   7.880  13.915  0.00  0.00    +0.000 HD
BRANCH  15  18
ATOM     17  C   UNL     1      49.223   6.972  15.154  0.00  0.00    +0.000 C 
ATOM     18  C   UNL     1      48.515   6.861  13.803  0.00  0.00    +0.000 C 
BRANCH  18  19
ATOM     19  C   UNL     1      48.975   8.009  12.898  0.00  0.00    +0.000 A 
ATOM     20  C   UNL     1      48.277   9.229  12.911  0.00  0.00    +0.000 A 
ATOM     21  C   UNL     1      48.684  10.292  12.102  0.00  0.00    +0.000 A 
ATOM     22  C   UNL     1      49.793  10.150  11.271  0.00  0.00    +0.000 A 
ATOM     23 CL   UNL     1      50.305  11.469  10.293  0.00  0.00    +0.000 Cl
ATOM     24  C   UNL     1      50.488   8.945  11.227  0.00  0.00    +0.000 A 
ATOM     25  C   UNL     1      50.073   7.875  12.027  0.00  0.00    +0.000 A 
ENDBRANCH  18  19
ENDBRANCH  15  18
ENDBRANCH   1  15
TORSDOF 5
ENDMDL
MODEL 6
REMARK VINA RESULT:    -6.354      5.340      7.775
REMARK INTER + INTRA:          -8.896
REMARK INTER:                  -8.075
REMARK INTRA:                  -0.821
REMARK UNBOUND:                -0.684
REMARK  Name = 
REMARK  6 active torsions:
REMARK  status: ('A' for Active; 'I' for Inactive)
REMARK    1  A    between atoms: C_1  and  C_2
REMARK    2  A    between atoms: C_2  and  N_3
REMARK    3  A    between atoms: C_2  and  C_16
REMARK    4  A    between atoms: N_3  and  C_4
REMARK    5  A    between atoms: C_7  and  C_8
REMARK    6  A    between atoms: C_12  and  N_13
REMARK                            x       y       z     vdW  Elec       q    Type
REMARK                         _______ _______ _______ _____ _____    ______ ____
ROOT
ATOM      1  C   UNL     1      46.990   4.959  14.479  0.00  0.00    +0.000 A 
ATOM      2  N   UNL     1      46.103   4.008  14.090  0.00  0.00    +0.000 NA
ATOM      3  C   UNL     1      45.474   4.131  12.886  0.00  0.00    +0.000 A 
ATOM      4  C   UNL     1      45.677   5.178  12.003  0.00  0.00    +0.000 A 
ATOM      5  C   UNL     1      46.580   6.164  12.399  0.00  0.00    +0.000 A 
ATOM      6  C   UNL     1      47.242   6.055  13.636  0.00  0.00    +0.000 A 
ENDROOT
BRANCH   4   7
ATOM      7  C   UNL     1      45.019   5.302  10.684  0.00  0.00    +0.000 C 
ATOM      8  N   UNL     1      43.677   5.537  10.622  0.00  0.00    +0.000 N 
ATOM      9  O   UNL     1      45.665   5.176   9.650  0.00  0.00    +0.000 OA
ATOM     10  H   UNL     1      43.042   5.611  11.402  0.00  0.00    +0.000 HD
ATOM     11  H   UNL     1      43.273   5.568   9.695  0.00  0.00    +0.000 HD
ENDBRANCH   4   7
BRANCH   6  12
ATOM     12  N   UNL     1      48.263   7.055  13.956  0.00  0.00    +0.000 N 
ATOM     13  O   UNL     1      49.411   6.666  14.222  0.00  0.00    +0.000 OA
ATOM     14  O   UNL     1      47.938   8.249  13.892  0.00  0.00    +0.000 OA
ENDBRANCH   6  12
BRANCH   1  15
ATOM     15  N   UNL     1      47.521   4.862  15.773  0.00  0.00    +0.000 N 
ATOM     16  H   UNL     1      48.387   5.406  15.823  0.00  0.00    +0.000 HD
BRANCH  15  18
ATOM     17  C   UNL     1      46.762   3.207  17.467  0.00  0.00    +0.000 C 
ATOM     18  C   UNL     1      47.736   3.517  16.329  0.00  0.00    +0.000 C 
BRANCH  18  19
ATOM     19  C   UNL     1      49.172   3.410  16.854  0.00  0.00    +0.000 A 
ATOM     20  C   UNL     1      49.799   2.154  16.915  0.00  0.00    +0.000 A 
ATOM     21  C   UNL     1      51.110   2.032  17.381  0.00  0.00    +0.000 A 
ATOM     22  C   UNL     1      51.810   3.164  17.791  0.00  0.00    +0.000 A 
ATOM     23 CL   UNL     1      53.433   3.014  18.343  0.00  0.00    +0.000 Cl
ATOM     24  C   UNL     1      51.203   4.416  17.758  0.00  0.00    +0.000 A 
ATOM     25  C   UNL     1      49.886   4.536  17.305  0.00  0.00    +0.000 A 
ENDBRANCH  18  19
ENDBRANCH  15  18
ENDBRANCH   1  15
TORSDOF 5
ENDMDL
MODEL 7
REMARK VINA RESULT:    -6.270      5.041      6.906
REMARK INTER + INTRA:          -8.787
REMARK INTER:                  -7.977
REMARK INTRA:                  -0.810
REMARK UNBOUND:                -0.684
REMARK  Name = 
REMARK  6 active torsions:
REMARK  status: ('A' for Active; 'I' for Inactive)
REMARK    1  A    between atoms: C_1  and  C_2
REMARK    2  A    between atoms: C_2  and  N_3
REMARK    3  A    between atoms: C_2  and  C_16
REMARK    4  A    between atoms: N_3  and  C_4
REMARK    5  A    between atoms: C_7  and  C_8
REMARK    6  A    between atoms: C_12  and  N_13
REMARK                            x       y       z     vdW  Elec       q    Type
REMARK                         _______ _______ _______ _____ _____    ______ ____
ROOT
ATOM      1  C   UNL     1      48.854   5.572  16.115  0.00  0.00    +0.000 A 
ATOM      2  N   UNL     1      49.949   6.317  16.413  0.00  0.00    +0.000 NA
ATOM      3  C   UNL     1      50.892   5.814  17.262  0.00  0.00    +0.000 A 
ATOM      4  C   UNL     1      50.817   4.567  17.859  0.00  0.00    +0.000 A 
ATOM      5  C   UNL     1      49.692   3.799  17.566  0.00  0.00    +0.000 A 
ATOM      6  C   UNL     1      48.709   4.298  16.690  0.00  0.00    +0.000 A 
ENDROOT
BRANCH   4   7
ATOM      7  C   UNL     1      51.850   4.005  18.757  0.00  0.00    +0.000 C 
ATOM      8  N   UNL     1      52.367   2.769  18.496  0.00  0.00    +0.000 N 
ATOM      9  O   UNL     1      52.228   4.629  19.741  0.00  0.00    +0.000 OA
ATOM     10  H   UNL     1      52.098   2.151  17.745  0.00  0.00    +0.000 HD
ATOM     11  H   UNL     1      53.035   2.416  19.167  0.00  0.00    +0.000 HD
ENDBRANCH   4   7
BRANCH   6  12
ATOM     12  N   UNL     1      47.603   3.409  16.326  0.00  0.00    +0.000 N 
ATOM     13  O   UNL     1      46.656   3.287  17.119  0.00  0.00    +0.000 OA
ATOM     14  O   UNL     1      47.645   2.863  15.215  0.00  0.00    +0.000 OA
ENDBRANCH   6  12
BRANCH   1  15
ATOM     15  N   UNL     1      47.852   6.172  15.340  0.00  0.00    +0.000 N 
ATOM     16  H   UNL     1      46.996   5.614  15.407  0.00  0.00    +0.000 HD
BRANCH  15  18
ATOM     17  C   UNL     1      48.459   7.946  13.708  0.00  0.00    +0.000 C 
ATOM     18  C   UNL     1      48.154   6.465  13.931  0.00  0.00    +0.000 C 
BRANCH  18  19
ATOM     19  C   UNL     1      46.958   6.061  13.061  0.00  0.00    +0.000 A 
ATOM     20  C   UNL     1      45.963   5.224  13.592  0.00  0.00    +0.000 A 
ATOM     21  C   UNL     1      44.859   4.850  12.821  0.00  0.00    +0.000 A 
ATOM     22  C   UNL     1      44.738   5.309  11.512  0.00  0.00    +0.000 A 
ATOM     23 CL   UNL     1      43.365   4.867  10.573  0.00  0.00    +0.000 Cl
ATOM     24  C   UNL     1      45.721   6.124  10.959  0.00  0.00    +0.000 A 
ATOM     25  C   UNL     1      46.833   6.487  11.726  0.00  0.00    +0.000 A 
ENDBRANCH  18  19
ENDBRANCH  15  18
ENDBRANCH   1  15
TORSDOF 5
ENDMDL
MODEL 8
REMARK VINA RESULT:    -5.865      5.230      7.247
REMARK INTER + INTRA:          -8.264
REMARK INTER:                  -7.264
REMARK INTRA:                  -0.999
REMARK UNBOUND:                -0.684
REMARK  Name = 
REMARK  6 active torsions:
REMARK  status: ('A' for Active; 'I' for Inactive)
REMARK    1  A    between atoms: C_1  and  C_2
REMARK    2  A    between atoms: C_2  and  N_3
REMARK    3  A    between atoms: C_2  and  C_16
REMARK    4  A    between atoms: N_3  and  C_4
REMARK    5  A    between atoms: C_7  and  C_8
REMARK    6  A    between atoms: C_12  and  N_13
REMARK                            x       y       z     vdW  Elec       q    Type
REMARK                         _______ _______ _______ _____ _____    ______ ____
ROOT
ATOM      1  C   UNL     1      48.444   4.589  16.312  0.00  0.00    +0.000 A 
ATOM      2  N   UNL     1      48.333   3.260  16.057  0.00  0.00    +0.000 NA
ATOM      3  C   UNL     1      49.273   2.403  16.550  0.00  0.00    +0.000 A 
ATOM      4  C   UNL     1      50.360   2.792  17.313  0.00  0.00    +0.000 A 
ATOM      5  C   UNL     1      50.487   4.156  17.573  0.00  0.00    +0.000 A 
ATOM      6  C   UNL     1      49.527   5.058  17.076  0.00  0.00    +0.000 A 
ENDROOT
BRANCH   4   7
ATOM      7  C   UNL     1      51.366   1.864  17.875  0.00  0.00    +0.000 C 
ATOM      8  N   UNL     1      52.384   2.358  18.638  0.00  0.00    +0.000 N 
ATOM      9  O   UNL     1      51.305   0.663  17.644  0.00  0.00    +0.000 OA
ATOM     10  H   UNL     1      52.559   3.328  18.853  0.00  0.00    +0.000 HD
ATOM     11  H   UNL     1      53.067   1.685  18.958  0.00  0.00    +0.000 HD
ENDBRANCH   4   7
BRANCH   6  12
ATOM     12  N   UNL     1      49.642   6.464  17.469  0.00  0.00    +0.000 N 
ATOM     13  O   UNL     1      50.688   7.072  17.195  0.00  0.00    +0.000 OA
ATOM     14  O   UNL     1      48.660   6.992  18.011  0.00  0.00    +0.000 OA
ENDBRANCH   6  12
BRANCH   1  15
ATOM     15  N   UNL     1      47.531   5.449  15.686  0.00  0.00    +0.000 N 
ATOM     16  H   UNL     1      46.619   4.985  15.625  0.00  0.00    +0.000 HD
BRANCH  15  18
ATOM     17  C   UNL     1      48.042   7.531  14.427  0.00  0.00    +0.000 C 
ATOM     18  C   UNL     1      47.900   6.009  14.378  0.00  0.00    +0.000 C 
BRANCH  18  19
ATOM     19  C   UNL     1      46.828   5.638  13.346  0.00  0.00    +0.000 A 
ATOM     20  C   UNL     1      46.790   6.306  12.111  0.00  0.00    +0.000 A 
ATOM     21  C   UNL     1      45.829   5.978  11.151  0.00  0.00    +0.000 A 
ATOM     22  C   UNL     1      44.895   4.980  11.416  0.00  0.00    +0.000 A 
ATOM     23 CL   UNL     1      43.726   4.562  10.224  0.00  0.00    +0.000 Cl
ATOM     24  C   UNL     1      44.900   4.318  12.641  0.00  0.00    +0.000 A 
ATOM     25  C   UNL     1      45.854   4.655  13.606  0.00  0.00    +0.000 A 
ENDBRANCH  18  19
ENDBRANCH  15  18
ENDBRANCH   1  15
TORSDOF 5
ENDMDL
MODEL 9
REMARK VINA RESULT:    -5.760      4.303      7.745
REMARK INTER + INTRA:          -8.129
REMARK INTER:                  -7.370
REMARK INTRA:                  -0.758
REMARK UNBOUND:                -0.684
REMARK  Name = 
REMARK  6 active torsions:
REMARK  status: ('A' for Active; 'I' for Inactive)
REMARK    1  A    between atoms: C_1  and  C_2
REMARK    2  A    between atoms: C_2  and  N_3
REMARK    3  A    between atoms: C_2  and  C_16
REMARK    4  A    between atoms: N_3  and  C_4
REMARK    5  A    between atoms: C_7  and  C_8
REMARK    6  A    between atoms: C_12  and  N_13
REMARK                            x       y       z     vdW  Elec       q    Type
REMARK                         _______ _______ _______ _____ _____    ______ ____
ROOT
ATOM      1  C   UNL     1      46.314   6.297  13.233  0.00  0.00    +0.000 A 
ATOM      2  N   UNL     1      45.625   6.968  12.275  0.00  0.00    +0.000 NA
ATOM      3  C   UNL     1      44.856   6.270  11.390  0.00  0.00    +0.000 A 
ATOM      4  C   UNL     1      44.717   4.893  11.394  0.00  0.00    +0.000 A 
ATOM      5  C   UNL     1      45.428   4.195  12.369  0.00  0.00    +0.000 A 
ATOM      6  C   UNL     1      46.225   4.895  13.294  0.00  0.00    +0.000 A 
ENDROOT
BRANCH   4   7
ATOM      7  C   UNL     1      43.862   4.133  10.455  0.00  0.00    +0.000 C 
ATOM      8  N   UNL     1      43.913   4.416   9.121  0.00  0.00    +0.000 N 
ATOM      9  O   UNL     1      43.097   3.270  10.867  0.00  0.00    +0.000 OA
ATOM     10  H   UNL     1      44.468   5.133   8.679  0.00  0.00    +0.000 HD
ATOM     11  H   UNL     1      43.275   3.898   8.532  0.00  0.00    +0.000 HD
ENDBRANCH   4   7
BRANCH   6  12
ATOM     12  N   UNL     1      46.862   4.128  14.366  0.00  0.00    +0.000 N 
ATOM     13  O   UNL     1      47.425   3.061  14.078  0.00  0.00    +0.000 OA
ATOM     14  O   UNL     1      46.852   4.615  15.506  0.00  0.00    +0.000 OA
ENDBRANCH   6  12
BRANCH   1  15
ATOM     15  N   UNL     1      47.188   7.036  14.042  0.00  0.00    +0.000 N 
ATOM     16  H   UNL     1      46.641   7.634  14.669  0.00  0.00    +0.000 HD
BRANCH  15  18
ATOM     17  C   UNL     1      49.059   6.979  12.406  0.00  0.00    +0.000 C 
ATOM     18  C   UNL     1      48.237   7.824  13.380  0.00  0.00    +0.000 C 
BRANCH  18  19
ATOM     19  C   UNL     1      49.172   8.418  14.441  0.00  0.00    +0.000 A 
ATOM     20  C   UNL     1      49.289   9.813  14.563  0.00  0.00    +0.000 A 
ATOM     21  C   UNL     1      50.127  10.377  15.528  0.00  0.00    +0.000 A 
ATOM     22  C   UNL     1      50.857   9.554  16.382  0.00  0.00    +0.000 A 
ATOM     23 CL   UNL     1      51.870  10.251  17.585  0.00  0.00    +0.000 Cl
ATOM     24  C   UNL     1      50.772   8.169  16.266  0.00  0.00    +0.000 A 
ATOM     25  C   UNL     1      49.943   7.604  15.291  0.00  0.00    +0.000 A 
ENDBRANCH  18  19
ENDBRANCH  15  18
ENDBRANCH   1  15
TORSDOF 5
ENDMDL
