MODEL 1
REMARK VINA RESULT:    -8.041      0.000      0.000
REMARK INTER + INTRA:          -9.959
REMARK INTER:                  -9.921
REMARK INTRA:                  -0.038
REMARK UNBOUND:                -0.038
REMARK  Name = 
REMARK  5 active torsions:
REMARK  status: ('A' for Active; 'I' for Inactive)
REMARK    1  A    between atoms: C_1  and  C_2
REMARK    2  A    between atoms: C_5  and  C_6
REMARK    3  A    between atoms: C_6  and  N_7
REMARK    4  A    between atoms: N_7  and  C_8
REMARK    5  A    between atoms: C_11  and  C_12
REMARK                            x       y       z     vdW  Elec       q    Type
REMARK                         _______ _______ _______ _____ _____    ______ ____
ROOT
ATOM      1  N   UNL     1      43.843   4.685  10.207  0.00  0.00    +0.000 N 
ATOM      2  H   UNL     1      43.350   5.390   9.668  0.00  0.00    +0.000 HD
ENDROOT
BRANCH   1   3
ATOM      3  C   UNL     1      44.703   3.913   9.425  0.00  0.00    +0.000 A 
ATOM      4  C   UNL     1      44.824   2.539   9.434  0.00  0.00    +0.000 A 
ATOM      5  N   UNL     1      45.690   1.833   8.657  0.00  0.00    +0.000 NA
ATOM      6  C   UNL     1      46.421   2.575   7.783  0.00  0.00    +0.000 A 
ATOM      7  N   UNL     1      46.360   3.906   7.644  0.00  0.00    +0.000 NA
ATOM      8  C   UNL     1      45.494   4.534   8.462  0.00  0.00    +0.000 A 
BRANCH   6   9
ATOM      9  C   UNL     1      47.387   1.843   6.889  0.00  0.00    +0.000 C 
ATOM     10  N   UNL     1      48.472   2.560   6.448  0.00  0.00    +0.000 N 
ATOM     11  O   UNL     1      47.240   0.662   6.549  0.00  0.00    +0.000 OA
ATOM     12  H   UNL     1      48.591   3.527   6.729  0.00  0.00    +0.000 HD
ATOM     13  H   UNL     1      49.153   2.114   5.852  0.00  0.00    +0.000 HD
ENDBRANCH   6   9
ENDBRANCH   1   3
BRANCH   1  14
ATOM     14  C   UNL     1      43.922   4.924  11.662  0.00  0.00    +0.000 C 
ATOM     15  C   UNL     1      42.734   5.126  12.578  0.00  0.00    +0.000 C 
ATOM     16  C   UNL     1      43.352   3.772  12.517  0.00  0.00    +0.000 C 
BRANCH  14  21
ATOM     17  C   UNL     1      49.122   6.987  13.060  0.00  0.00    +0.000 C 
ATOM     18  C   UNL     1      47.737   6.526  12.736  0.00  0.00    +0.000 A 
ATOM     19  C   UNL     1      46.941   7.233  11.856  0.00  0.00    +0.000 A 
ATOM     20  C   UNL     1      45.686   6.734  11.549  0.00  0.00    +0.000 A 
ATOM     21  C   UNL     1      45.258   5.531  12.097  0.00  0.00    +0.000 A 
ATOM     22  N   UNL     1      46.051   4.886  12.983  0.00  0.00    +0.000 NA
ATOM     23  N   UNL     1      47.298   5.382  13.301  0.00  0.00    +0.000 NA
ENDBRANCH  14  21
ENDBRANCH   1  14
TORSDOF 4
ENDMDL
MODEL 2
REMARK VINA RESULT:    -7.806      3.070      6.473
REMARK INTER + INTRA:          -9.669
REMARK INTER:                  -9.560
REMARK INTRA:                  -0.109
REMARK UNBOUND:                -0.038
REMARK  Name = 
REMARK  5 active torsions:
REMARK  status: ('A' for Active; 'I' for Inactive)
REMARK    1  A    between atoms: C_1  and  C_2
REMARK    2  A    between atoms: C_5  and  C_6
REMARK    3  A    between atoms: C_6  and  N_7
REMARK    4  A    between atoms: N_7  and  C_8
REMARK    5  A    between atoms: C_11  and  C_12
REMARK                            x       y       z     vdW  Elec       q    Type
REMARK                         _______ _______ _______ _____ _____    ______ ____
ROOT
ATOM      1  N   UNL     1      45.693   5.426  11.421  0.00  0.00    +0.000 N 
ATOM      2  H   UNL     1      45.702   6.405  11.155  0.00  0.00    +0.000 HD
ENDROOT
BRANCH   1   3
ATOM      3  C   UNL     1      46.230   5.207  12.690  0.00  0.00    +0.000 A 
ATOM      4  C   UNL     1      45.903   4.193  13.565  0.00  0.00    +0.000 A 
ATOM      5  N   UNL     1      46.450   4.031  14.801  0.00  0.00    +0.000 NA
ATOM      6  C   UNL     1      47.428   4.919  15.123  0.00  0.00    +0.000 A 
ATOM      7  N   UNL     1      47.867   5.915  14.343  0.00  0.00    +0.000 NA
ATOM      8  C   UNL     1      47.263   6.022  13.145  0.00  0.00    +0.000 A 
BRANCH   6   9
ATOM      9  C   UNL     1      48.077   4.778  16.475  0.00  0.00    +0.000 C 
ATOM     10  N   UNL     1      47.301   5.104  17.560  0.00  0.00    +0.000 N 
ATOM     11  O   UNL     1      49.242   4.395  16.634  0.00  0.00    +0.000 OA
ATOM     12  H   UNL     1      46.344   5.416  17.427  0.00  0.00    +0.000 HD
ATOM     13  H   UNL     1      47.686   5.020  18.489  0.00  0.00    +0.000 HD
ENDBRANCH   6   9
ENDBRANCH   1   3
BRANCH   1  14
ATOM     14  C   UNL     1      44.741   4.568  10.687  0.00  0.00    +0.000 C 
ATOM     15  C   UNL     1      43.583   3.820  11.312  0.00  0.00    +0.000 C 
ATOM     16  C   UNL     1      43.301   5.124  10.648  0.00  0.00    +0.000 C 
BRANCH  14  21
ATOM     17  C   UNL     1      47.250   2.503   5.923  0.00  0.00    +0.000 C 
ATOM     18  C   UNL     1      46.521   3.003   7.129  0.00  0.00    +0.000 A 
ATOM     19  C   UNL     1      45.968   2.124   8.041  0.00  0.00    +0.000 A 
ATOM     20  C   UNL     1      45.350   2.639   9.168  0.00  0.00    +0.000 A 
ATOM     21  C   UNL     1      45.318   4.012   9.384  0.00  0.00    +0.000 A 
ATOM     22  N   UNL     1      45.837   4.842   8.450  0.00  0.00    +0.000 NA
ATOM     23  N   UNL     1      46.446   4.337   7.321  0.00  0.00    +0.000 NA
ENDBRANCH  14  21
ENDBRANCH   1  14
TORSDOF 4
ENDMDL
MODEL 3
REMARK VINA RESULT:    -7.526      3.470      6.347
REMARK INTER + INTRA:          -9.324
REMARK INTER:                  -8.899
REMARK INTRA:                  -0.425
REMARK UNBOUND:                -0.038
REMARK  Name = 
REMARK  5 active torsions:
REMARK  status: ('A' for Active; 'I' for Inactive)
REMARK    1  A    between atoms: C_1  and  C_2
REMARK    2  A    between atoms: C_5  and  C_6
REMARK    3  A    between atoms: C_6  and  N_7
REMARK    4  A    between atoms: N_7  and  C_8
REMARK    5  A    between atoms: C_11  and  C_12
REMARK                            x       y       z     vdW  Elec       q    Type
REMARK                         _______ _______ _______ _____ _____    ______ ____
ROOT
ATOM      1  N   UNL     1      46.393   5.855  12.185  0.00  0.00    +0.000 N 
ATOM      2  H   UNL     1      46.772   6.793  12.105  0.00  0.00    +0.000 HD
ENDROOT
BRANCH   1   3
ATOM      3  C   UNL     1      46.880   5.170  13.299  0.00  0.00    +0.000 A 
ATOM      4  C   UNL     1      47.439   5.721  14.433  0.00  0.00    +0.000 A 
ATOM      5  N   UNL     1      47.911   5.005  15.489  0.00  0.00    +0.000 NA
ATOM      6  C   UNL     1      47.739   3.659  15.401  0.00  0.00    +0.000 A 
ATOM      7  N   UNL     1      47.168   3.010  14.378  0.00  0.00    +0.000 NA
ATOM      8  C   UNL     1      46.746   3.786  13.363  0.00  0.00    +0.000 A 
BRANCH   6   9
ATOM      9  C   UNL     1      48.231   2.819  16.550  0.00  0.00    +0.000 C 
ATOM     10  N   UNL     1      49.163   1.857  16.245  0.00  0.00    +0.000 N 
ATOM     11  O   UNL     1      47.837   2.959  17.714  0.00  0.00    +0.000 OA
ATOM     12  H   UNL     1      49.486   1.746  15.290  0.00  0.00    +0.000 HD
ATOM     13  H   UNL     1      49.530   1.272  16.980  0.00  0.00    +0.000 HD
ENDBRANCH   6   9
ENDBRANCH   1   3
BRANCH   1  14
ATOM     14  C   UNL     1      45.134   5.605  11.455  0.00  0.00    +0.000 C 
ATOM     15  C   UNL     1      43.766   5.484  12.093  0.00  0.00    +0.000 C 
ATOM     16  C   UNL     1      44.147   6.791  11.487  0.00  0.00    +0.000 C 
BRANCH  14  21
ATOM     17  C   UNL     1      46.280   2.858   6.516  0.00  0.00    +0.000 C 
ATOM     18  C   UNL     1      45.894   3.567   7.775  0.00  0.00    +0.000 A 
ATOM     19  C   UNL     1      45.127   2.941   8.737  0.00  0.00    +0.000 A 
ATOM     20  C   UNL     1      44.843   3.625   9.908  0.00  0.00    +0.000 A 
ATOM     21  C   UNL     1      45.350   4.903  10.113  0.00  0.00    +0.000 A 
ATOM     22  N   UNL     1      46.067   5.497   9.132  0.00  0.00    +0.000 NA
ATOM     23  N   UNL     1      46.346   4.826   7.960  0.00  0.00    +0.000 NA
ENDBRANCH  14  21
ENDBRANCH   1  14
TORSDOF 4
ENDMDL
MODEL 4
REMARK VINA RESULT:    -6.540      3.058      6.131
REMARK INTER + INTRA:          -8.107
REMARK INTER:                  -8.716
REMARK INTRA:                   0.609
REMARK UNBOUND:                -0.038
REMARK  Name = 
REMARK  5 active torsions:
REMARK  status: ('A' for Active; 'I' for Inactive)
REMARK    1  A    between atoms: C_1  and  C_2
REMARK    2  A    between atoms: C_5  and  C_6
REMARK    3  A    between atoms: C_6  and  N_7
REMARK    4  A    between atoms: N_7  and  C_8
REMARK    5  A    between atoms: C_11  and  C_12
REMARK                            x       y       z     vdW  Elec       q    Type
REMARK                         _______ _______ _______ _____ _____    ______ ____
ROOT
ATOM      1  N   UNL     1      45.191   4.306  12.435  0.00  0.00    +0.000 N 
ATOM      2  H   UNL     1      45.275   3.313  12.627  0.00  0.00    +0.000 HD
ENDROOT
BRANCH   1   3
ATOM      3  C   UNL     1      46.241   5.049  12.974  0.00  0.00    +0.000 A 
ATOM      4  C   UNL     1      46.933   4.786  14.138  0.00  0.00    +0.000 A 
ATOM      5  N   UNL     1      47.945   5.552  14.627  0.00  0.00    +0.000 NA
ATOM      6  C   UNL     1      48.304   6.606  13.847  0.00  0.00    +0.000 A 
ATOM      7  N   UNL     1      47.743   6.939  12.677  0.00  0.00    +0.000 NA
ATOM      8  C   UNL     1      46.736   6.143  12.270  0.00  0.00    +0.000 A 
BRANCH   6   9
ATOM      9  C   UNL     1      49.428   7.482  14.336  0.00  0.00    +0.000 C 
ATOM     10  N   UNL     1      50.536   7.557  13.528  0.00  0.00    +0.000 N 
ATOM     11  O   UNL     1      49.388   8.109  15.401  0.00  0.00    +0.000 OA
ATOM     12  H   UNL     1      50.565   7.043  12.654  0.00  0.00    +0.000 HD
ATOM     13  H   UNL     1      51.315   8.135  13.806  0.00  0.00    +0.000 HD
ENDBRANCH   6   9
ENDBRANCH   1   3
BRANCH   1  14
ATOM     14  C   UNL     1      44.322   4.671  11.299  0.00  0.00    +0.000 C 
ATOM     15  C   UNL     1      42.829   4.905  11.384  0.00  0.00    +0.000 C 
ATOM     16  C   UNL     1      43.728   6.093  11.398  0.00  0.00    +0.000 C 
BRANCH  14  21
ATOM     17  C   UNL     1      46.797   3.016   6.360  0.00  0.00    +0.000 C 
ATOM     18  C   UNL     1      46.075   3.421   7.605  0.00  0.00    +0.000 A 
ATOM     19  C   UNL     1      45.411   2.488   8.377  0.00  0.00    +0.000 A 
ATOM     20  C   UNL     1      44.802   2.909   9.548  0.00  0.00    +0.000 A 
ATOM     21  C   UNL     1      44.891   4.237   9.946  0.00  0.00    +0.000 A 
ATOM     22  N   UNL     1      45.518   5.128   9.145  0.00  0.00    +0.000 NA
ATOM     23  N   UNL     1      46.118   4.720   7.972  0.00  0.00    +0.000 NA
ENDBRANCH  14  21
ENDBRANCH   1  14
TORSDOF 4
ENDMDL
MODEL 5
REMARK VINA RESULT:    -6.293      2.863      4.395
REMARK INTER + INTRA:          -7.802
REMARK INTER:                  -7.723
REMARK INTRA:                  -0.078
REMARK UNBOUND:                -0.038
REMARK  Name = 
REMARK  5 active torsions:
REMARK  status: ('A' for Active; 'I' for Inactive)
REMARK    1  A    between atoms: C_1  and  C_2
REMARK    2  A    between atoms: C_5  and  C_6
REMARK    3  A    between atoms: C_6  and  N_7
REMARK    4  A    between atoms: N_7  and  C_8
REMARK    5  A    between atoms: C_11  and  C_12
REMARK                            x       y       z     vdW  Elec       q    Type
REMARK                         _______ _______ _______ _____ _____    ______ ____
ROOT
ATOM      1  N   UNL     1      46.080   6.232  13.296  0.00  0.00    +0.000 N 
ATOM      2  H   UNL     1      45.373   6.934  13.488  0.00  0.00    +0.000 HD
ENDROOT
BRANCH   1   3
ATOM      3  C   UNL     1      45.704   5.350  12.282  0.00  0.00    +0.000 A 
ATOM      4  C   UNL     1      45.204   4.075  12.434  0.00  0.00    +0.000 A 
ATOM      5  N   UNL     1      44.862   3.249  11.408  0.00  0.00    +0.000 NA
ATOM      6  C   UNL     1      44.983   3.789  10.165  0.00  0.00    +0.000 A 
ATOM      7  N   UNL     1      45.409   5.028   9.889  0.00  0.00    +0.000 NA
ATOM      8  C   UNL     1      45.747   5.775  10.957  0.00  0.00    +0.000 A 
BRANCH   6   9
ATOM      9  C   UNL     1      44.606   2.922   8.992  0.00  0.00    +0.000 C 
ATOM     10  N   UNL     1      44.270   3.578   7.834  0.00  0.00    +0.000 N 
ATOM     11  O   UNL     1      44.587   1.686   9.037  0.00  0.00    +0.000 OA
ATOM     12  H   UNL     1      44.289   4.592   7.799  0.00  0.00    +0.000 HD
ATOM     13  H   UNL     1      44.017   3.044   7.016  0.00  0.00    +0.000 HD
ENDBRANCH   6   9
ENDBRANCH   1   3
BRANCH   1  14
ATOM     14  C   UNL     1      47.450   6.559  13.740  0.00  0.00    +0.000 C 
ATOM     15  C   UNL     1      48.515   7.204  12.878  0.00  0.00    +0.000 C 
ATOM     16  C   UNL     1      47.739   8.075  13.806  0.00  0.00    +0.000 C 
BRANCH  14  21
ATOM     17  C   UNL     1      49.089   3.577  18.395  0.00  0.00    +0.000 C 
ATOM     18  C   UNL     1      48.672   4.273  17.139  0.00  0.00    +0.000 A 
ATOM     19  C   UNL     1      47.501   3.931  16.492  0.00  0.00    +0.000 A 
ATOM     20  C   UNL     1      47.135   4.644  15.362  0.00  0.00    +0.000 A 
ATOM     21  C   UNL     1      47.920   5.700  14.915  0.00  0.00    +0.000 A 
ATOM     22  N   UNL     1      49.079   5.981  15.554  0.00  0.00    +0.000 NA
ATOM     23  N   UNL     1      49.455   5.270  16.674  0.00  0.00    +0.000 NA
ENDBRANCH  14  21
ENDBRANCH   1  14
TORSDOF 4
ENDMDL
MODEL 6
REMARK VINA RESULT:    -6.277      2.990      5.187
REMARK INTER + INTRA:          -7.782
REMARK INTER:                  -7.732
REMARK INTRA:                  -0.050
REMARK UNBOUND:                -0.038
REMARK  Name = 
REMARK  5 active torsions:
REMARK  status: ('A' for Active; 'I' for Inactive)
REMARK    1  A    between atoms: C_1  and  C_2
REMARK    2  A    between atoms: C_5  and  C_6
REMARK    3  A    between atoms: C_6  and  N_7
REMARK    4  A    between atoms: N_7  and  C_8
REMARK    5  A    between atoms: C_11  and  C_12
REMARK                            x       y       z     vdW  Elec       q    Type
REMARK                         _______ _______ _______ _____ _____    ______ ____
ROOT
ATOM      1  N   UNL     1      46.717   7.053  13.441  0.00  0.00    +0.000 N 
ATOM      2  H   UNL     1      46.111   7.798  13.769  0.00  0.00    +0.000 HD
ENDROOT
BRANCH   1   3
ATOM      3  C   UNL     1      46.018   6.037  12.788  0.00  0.00    +0.000 A 
ATOM      4  C   UNL     1      45.530   6.062  11.498  0.00  0.00    +0.000 A 
ATOM      5  N   UNL     1      44.842   5.046  10.911  0.00  0.00    +0.000 NA
ATOM      6  C   UNL     1      44.706   3.925  11.668  0.00  0.00    +0.000 A 
ATOM      7  N   UNL     1      45.175   3.759  12.912  0.00  0.00    +0.000 NA
ATOM      8  C   UNL     1      45.826   4.817  13.430  0.00  0.00    +0.000 A 
BRANCH   6   9
ATOM      9  C   UNL     1      43.963   2.763  11.062  0.00  0.00    +0.000 C 
ATOM     10  N   UNL     1      44.501   2.226   9.918  0.00  0.00    +0.000 N 
ATOM     11  O   UNL     1      42.922   2.296  11.540  0.00  0.00    +0.000 OA
ATOM     12  H   UNL     1      45.356   2.610   9.528  0.00  0.00    +0.000 HD
ATOM     13  H   UNL     1      44.046   1.442   9.476  0.00  0.00    +0.000 HD
ENDBRANCH   6   9
ENDBRANCH   1   3
BRANCH   1  14
ATOM     14  C   UNL     1      48.143   7.403  13.289  0.00  0.00    +0.000 C 
ATOM     15  C   UNL     1      48.860   7.590  11.968  0.00  0.00    +0.000 C 
ATOM     16  C   UNL     1      48.383   8.805  12.687  0.00  0.00    +0.000 C 
BRANCH  14  21
ATOM     17  C   UNL     1      51.452   5.600  17.655  0.00  0.00    +0.000 C 
ATOM     18  C   UNL     1      50.591   6.149  16.562  0.00  0.00    +0.000 A 
ATOM     19  C   UNL     1      51.052   7.152  15.731  0.00  0.00    +0.000 A 
ATOM     20  C   UNL     1      50.234   7.588  14.702  0.00  0.00    +0.000 A 
ATOM     21  C   UNL     1      48.990   7.002  14.498  0.00  0.00    +0.000 A 
ATOM     22  N   UNL     1      48.559   6.049  15.356  0.00  0.00    +0.000 NA
ATOM     23  N   UNL     1      49.363   5.615  16.389  0.00  0.00    +0.000 NA
ENDBRANCH  14  21
ENDBRANCH   1  14
TORSDOF 4
ENDMDL
MODEL 7
REMARK VINA RESULT:    -5.968      2.112      2.648
REMARK INTER + INTRA:          -7.401
REMARK INTER:                  -6.909
REMARK INTRA:                  -0.492
REMARK UNBOUND:                -0.038
REMARK  Name = 
REMARK  5 active torsions:
REMARK  status: ('A' for Active; 'I' for Inactive)
REMARK    1  A    between atoms: C_1  and  C_2
REMARK    2  A    between atoms: C_5  and  C_6
REMARK    3  A    between atoms: C_6  and  N_7
REMARK    4  A    between atoms: N_7  and  C_8
REMARK    5  A    between atoms: C_11  and  C_12
REMARK                            x       y       z     vdW  Elec       q    Type
REMARK                         _______ _______ _______ _____ _____    ______ ____
ROOT
ATOM      1  N   UNL     1      44.971   4.793  11.444  0.00  0.00    +0.000 N 
ATOM      2  H   UNL     1      45.244   4.177  12.203  0.00  0.00    +0.000 HD
ENDROOT
BRANCH   1   3
ATOM      3  C   UNL     1      45.372   4.319  10.195  0.00  0.00    +0.000 A 
ATOM      4  C   UNL     1      45.876   5.062   9.148  0.00  0.00    +0.000 A 
ATOM      5  N   UNL     1      46.242   4.551   7.942  0.00  0.00    +0.000 NA
ATOM      6  C   UNL     1      46.144   3.199   7.831  0.00  0.00    +0.000 A 
ATOM      7  N   UNL     1      45.716   2.365   8.788  0.00  0.00    +0.000 NA
ATOM      8  C   UNL     1      45.354   2.949   9.945  0.00  0.00    +0.000 A 
BRANCH   6   9
ATOM      9  C   UNL     1      46.548   2.578   6.520  0.00  0.00    +0.000 C 
ATOM     10  N   UNL     1      46.974   1.274   6.569  0.00  0.00    +0.000 N 
ATOM     11  O   UNL     1      46.514   3.182   5.441  0.00  0.00    +0.000 OA
ATOM     12  H   UNL     1      47.000   0.780   7.456  0.00  0.00    +0.000 HD
ATOM     13  H   UNL     1      47.250   0.808   5.718  0.00  0.00    +0.000 HD
ENDBRANCH   6   9
ENDBRANCH   1   3
BRANCH   1  14
ATOM     14  C   UNL     1      43.867   5.728  11.739  0.00  0.00    +0.000 C 
ATOM     15  C   UNL     1      42.402   5.464  11.459  0.00  0.00    +0.000 C 
ATOM     16  C   UNL     1      42.906   5.233  12.842  0.00  0.00    +0.000 C 
BRANCH  14  21
ATOM     17  C   UNL     1      45.844  11.145  11.743  0.00  0.00    +0.000 C 
ATOM     18  C   UNL     1      45.252   9.772  11.775  0.00  0.00    +0.000 A 
ATOM     19  C   UNL     1      44.178   9.443  10.972  0.00  0.00    +0.000 A 
ATOM     20  C   UNL     1      43.702   8.142  11.001  0.00  0.00    +0.000 A 
ATOM     21  C   UNL     1      44.319   7.188  11.802  0.00  0.00    +0.000 A 
ATOM     22  N   UNL     1      45.345   7.558  12.602  0.00  0.00    +0.000 NA
ATOM     23  N   UNL     1      45.819   8.853  12.586  0.00  0.00    +0.000 NA
ENDBRANCH  14  21
ENDBRANCH   1  14
TORSDOF 4
ENDMDL
MODEL 8
REMARK VINA RESULT:    -5.414      3.504      5.660
REMARK INTER + INTRA:          -6.718
REMARK INTER:                  -6.329
REMARK INTRA:                  -0.388
REMARK UNBOUND:                -0.038
REMARK  Name = 
REMARK  5 active torsions:
REMARK  status: ('A' for Active; 'I' for Inactive)
REMARK    1  A    between atoms: C_1  and  C_2
REMARK    2  A    between atoms: C_5  and  C_6
REMARK    3  A    between atoms: C_6  and  N_7
REMARK    4  A    between atoms: N_7  and  C_8
REMARK    5  A    between atoms: C_11  and  C_12
REMARK                            x       y       z     vdW  Elec       q    Type
REMARK                         _______ _______ _______ _____ _____    ______ ____
ROOT
ATOM      1  N   UNL     1      48.256   6.532  13.343  0.00  0.00    +0.000 N 
ATOM      2  H   UNL     1      48.913   5.956  13.859  0.00  0.00    +0.000 HD
ENDROOT
BRANCH   1   3
ATOM      3  C   UNL     1      47.129   5.823  12.925  0.00  0.00    +0.000 A 
ATOM      4  C   UNL     1      46.348   6.082  11.818  0.00  0.00    +0.000 A 
ATOM      5  N   UNL     1      45.250   5.364  11.461  0.00  0.00    +0.000 NA
ATOM      6  C   UNL     1      44.980   4.288  12.246  0.00  0.00    +0.000 A 
ATOM      7  N   UNL     1      45.687   3.904  13.316  0.00  0.00    +0.000 NA
ATOM      8  C   UNL     1      46.748   4.677  13.617  0.00  0.00    +0.000 A 
BRANCH   6   9
ATOM      9  C   UNL     1      43.780   3.449  11.888  0.00  0.00    +0.000 C 
ATOM     10  N   UNL     1      43.716   2.204  12.461  0.00  0.00    +0.000 N 
ATOM     11  O   UNL     1      42.888   3.831  11.121  0.00  0.00    +0.000 OA
ATOM     12  H   UNL     1      44.448   1.894  13.091  0.00  0.00    +0.000 HD
ATOM     13  H   UNL     1      42.929   1.604  12.259  0.00  0.00    +0.000 HD
ENDBRANCH   6   9
ENDBRANCH   1   3
BRANCH   1  14
ATOM     14  C   UNL     1      48.374   7.989  13.552  0.00  0.00    +0.000 C 
ATOM     15  C   UNL     1      47.286   8.880  14.114  0.00  0.00    +0.000 C 
ATOM     16  C   UNL     1      48.357   8.411  15.037  0.00  0.00    +0.000 C 
BRANCH  14  21
ATOM     17  C   UNL     1      52.211  10.217   9.869  0.00  0.00    +0.000 C 
ATOM     18  C   UNL     1      51.225   9.715  10.875  0.00  0.00    +0.000 A 
ATOM     19  C   UNL     1      50.024  10.366  11.079  0.00  0.00    +0.000 A 
ATOM     20  C   UNL     1      49.125   9.828  11.985  0.00  0.00    +0.000 A 
ATOM     21  C   UNL     1      49.420   8.641  12.646  0.00  0.00    +0.000 A 
ATOM     22  N   UNL     1      50.622   8.053  12.446  0.00  0.00    +0.000 NA
ATOM     23  N   UNL     1      51.527   8.588  11.554  0.00  0.00    +0.000 NA
ENDBRANCH  14  21
ENDBRANCH   1  14
TORSDOF 4
ENDMDL
MODEL 9
REMARK VINA RESULT:    -5.384      4.243      7.458
REMARK INTER + INTRA:          -6.681
REMARK INTER:                  -6.287
REMARK INTRA:                  -0.394
REMARK UNBOUND:                -0.038
REMARK  Name = 
REMARK  5 active torsions:
REMARK  status: ('A' for Active; 'I' for Inactive)
REMARK    1  A    between atoms: C_1  and  C_2
REMARK    2  A    between atoms: C_5  and  C_6
REMARK    3  A    between atoms: C_6  and  N_7
REMARK    4  A    between atoms: N_7  and  C_8
REMARK    5  A    between atoms: C_11  and  C_12
REMARK                            x       y       z     vdW  Elec       q    Type
REMARK                         _______ _______ _______ _____ _____    ______ ____
ROOT
ATOM      1  N   UNL     1      47.835   6.720  13.515  0.00  0.00    +0.000 N 
ATOM      2  H   UNL     1      48.682   7.193  13.217  0.00  0.00    +0.000 HD
ENDROOT
BRANCH   1   3
ATOM      3  C   UNL     1      47.987   6.060  14.734  0.00  0.00    +0.000 A 
ATOM      4  C   UNL     1      47.429   4.853  15.100  0.00  0.00    +0.000 A 
ATOM      5  N   UNL     1      47.600   4.257  16.311  0.00  0.00    +0.000 NA
ATOM      6  C   UNL     1      48.439   4.904  17.163  0.00  0.00    +0.000 A 
ATOM      7  N   UNL     1      49.077   6.054  16.909  0.00  0.00    +0.000 NA
ATOM      8  C   UNL     1      48.841   6.591  15.697  0.00  0.00    +0.000 A 
BRANCH   6   9
ATOM      9  C   UNL     1      48.674   4.281  18.514  0.00  0.00    +0.000 C 
ATOM     10  N   UNL     1      47.928   3.166  18.808  0.00  0.00    +0.000 N 
ATOM     11  O   UNL     1      49.484   4.725  19.337  0.00  0.00    +0.000 OA
ATOM     12  H   UNL     1      47.266   2.803  18.131  0.00  0.00    +0.000 HD
ATOM     13  H   UNL     1      48.052   2.706  19.698  0.00  0.00    +0.000 HD
ENDBRANCH   6   9
ENDBRANCH   1   3
BRANCH   1  14
ATOM     14  C   UNL     1      46.580   7.199  12.903  0.00  0.00    +0.000 C 
ATOM     15  C   UNL     1      45.961   8.562  13.135  0.00  0.00    +0.000 C 
ATOM     16  C   UNL     1      46.775   8.360  11.903  0.00  0.00    +0.000 C 
BRANCH  14  21
ATOM     17  C   UNL     1      43.232   2.696  11.573  0.00  0.00    +0.000 C 
ATOM     18  C   UNL     1      44.036   3.918  11.882  0.00  0.00    +0.000 A 
ATOM     19  C   UNL     1      43.582   4.857  12.788  0.00  0.00    +0.000 A 
ATOM     20  C   UNL     1      44.390   5.944  13.077  0.00  0.00    +0.000 A 
ATOM     21  C   UNL     1      45.643   6.063  12.488  0.00  0.00    +0.000 A 
ATOM     22  N   UNL     1      46.037   5.142  11.578  0.00  0.00    +0.000 NA
ATOM     23  N   UNL     1      45.235   4.062  11.277  0.00  0.00    +0.000 NA
ENDBRANCH  14  21
ENDBRANCH   1  14
TORSDOF 4
ENDMDL
