MODEL 1
REMARK VINA RESULT:    -8.426      0.000      0.000
REMARK INTER + INTRA:         -12.542
REMARK INTER:                 -11.381
REMARK INTRA:                  -1.161
REMARK UNBOUND:                -1.161
REMARK  Name = 
REMARK  6 active torsions:
REMARK  status: ('A' for Active; 'I' for Inactive)
REMARK    1  A    between atoms: C_2  and  C_25
REMARK    2  A    between atoms: N_3  and  C_4
REMARK    3  A    between atoms: C_4  and  C_5
REMARK    4  A    between atoms: C_8  and  C_9
REMARK    5  A    between atoms: C_9  and  N_10
REMARK    6  A    between atoms: C_11  and  C_13
REMARK                            x       y       z     vdW  Elec       q    Type
REMARK                         _______ _______ _______ _____ _____    ______ ____
ROOT
ATOM      1  C   UNL     1      44.891   5.381  10.674  0.00  0.00    +0.000 A 
ATOM      2  C   UNL     1      44.279   5.729  11.887  0.00  0.00    +0.000 A 
ATOM      3  C   UNL     1      44.908   6.603  12.780  0.00  0.00    +0.000 A 
ATOM      4  C   UNL     1      46.154   7.165  12.469  0.00  0.00    +0.000 A 
ATOM      5  C   UNL     1      46.773   6.804  11.265  0.00  0.00    +0.000 A 
ATOM      6  C   UNL     1      46.143   5.931  10.372  0.00  0.00    +0.000 A 
ENDROOT
BRANCH   1   7
ATOM      7  C   UNL     1      44.212   4.444   9.712  0.00  0.00    +0.000 C 
BRANCH   7  10
ATOM      8  O   UNL     1      45.387   1.959   9.433  0.00  0.00    +0.000 OA
ATOM      9  C   UNL     1      45.618   2.797   8.565  0.00  0.00    +0.000 C 
ATOM     10  N   UNL     1      45.076   4.065   8.621  0.00  0.00    +0.000 N 
ATOM     11  H   UNL     1      45.248   4.716   7.864  0.00  0.00    +0.000 HD
BRANCH   9  12
ATOM     12  C   UNL     1      46.458   2.526   7.424  0.00  0.00    +0.000 A 
ATOM     13  C   UNL     1      46.585   3.170   6.214  0.00  0.00    +0.000 A 
ATOM     14  C   UNL     1      47.548   2.421   5.520  0.00  0.00    +0.000 A 
ATOM     15  N   UNL     1      47.994   1.390   6.240  0.00  0.00    +0.000 NA
ATOM     16  O   UNL     1      47.307   1.458   7.443  0.00  0.00    +0.000 OA
ENDBRANCH   9  12
ENDBRANCH   7  10
ENDBRANCH   1   7
BRANCH   4  17
ATOM     17  C   UNL     1      46.843   8.110  13.423  0.00  0.00    +0.000 C 
BRANCH  17  18
ATOM     18  N   UNL     1      47.359   7.407  14.569  0.00  0.00    +0.000 N 
ATOM     19  C   UNL     1      48.613   6.852  14.569  0.00  0.00    +0.000 C 
ATOM     20  O   UNL     1      49.377   6.963  13.615  0.00  0.00    +0.000 OA
ATOM     21  H   UNL     1      46.677   7.087  15.248  0.00  0.00    +0.000 HD
BRANCH  19  22
ATOM     22  C   UNL     1      49.020   6.170  15.804  0.00  0.00    +0.000 A 
ATOM     23  C   UNL     1      50.133   6.613  16.508  0.00  0.00    +0.000 A 
ATOM     24  S   UNL     1      50.414   5.752  17.954  0.00  0.00    +0.000 S 
ATOM     25  C   UNL     1      49.093   4.719  17.661  0.00  0.00    +0.000 A 
ATOM     26  N   UNL     1      48.781   3.717  18.528  0.00  0.00    +0.000 NA
ATOM     27  C   UNL     1      47.775   2.993  18.165  0.00  0.00    +0.000 A 
ATOM     28  N   UNL     1      47.052   3.177  17.017  0.00  0.00    +0.000 N 
ATOM     29  C   UNL     1      47.316   4.191  16.124  0.00  0.00    +0.000 A 
ATOM     30  O   UNL     1      46.628   4.349  15.123  0.00  0.00    +0.000 OA
ATOM     31  C   UNL     1      48.441   5.034  16.483  0.00  0.00    +0.000 A 
ATOM     32  H   UNL     1      46.272   2.579  16.790  0.00  0.00    +0.000 HD
ENDBRANCH  19  22
ENDBRANCH  17  18
ENDBRANCH   4  17
TORSDOF 6
ENDMDL
MODEL 2
REMARK VINA RESULT:    -7.963      1.154      1.270
REMARK INTER + INTRA:         -11.916
REMARK INTER:                 -11.202
REMARK INTRA:                  -0.714
REMARK UNBOUND:                -1.161
REMARK  Name = 
REMARK  6 active torsions:
REMARK  status: ('A' for Active; 'I' for Inactive)
REMARK    1  A    between atoms: C_2  and  C_25
REMARK    2  A    between atoms: N_3  and  C_4
REMARK    3  A    between atoms: C_4  and  C_5
REMARK    4  A    between atoms: C_8  and  C_9
REMARK    5  A    between atoms: C_9  and  N_10
REMARK    6  A    between atoms: C_11  and  C_13
REMARK                            x       y       z     vdW  Elec       q    Type
REMARK                         _______ _______ _______ _____ _____    ______ ____
ROOT
ATOM      1  C   UNL     1      44.607   5.303  11.303  0.00  0.00    +0.000 A 
ATOM      2  C   UNL     1      44.288   6.667  11.365  0.00  0.00    +0.000 A 
ATOM      3  C   UNL     1      45.109   7.562  12.060  0.00  0.00    +0.000 A 
ATOM      4  C   UNL     1      46.279   7.115  12.689  0.00  0.00    +0.000 A 
ATOM      5  C   UNL     1      46.588   5.749  12.641  0.00  0.00    +0.000 A 
ATOM      6  C   UNL     1      45.767   4.855  11.945  0.00  0.00    +0.000 A 
ENDROOT
BRANCH   1   7
ATOM      7  C   UNL     1      43.726   4.342  10.552  0.00  0.00    +0.000 C 
BRANCH   7  10
ATOM      8  O   UNL     1      45.197   4.703   8.240  0.00  0.00    +0.000 OA
ATOM      9  C   UNL     1      45.193   3.581   8.741  0.00  0.00    +0.000 C 
ATOM     10  N   UNL     1      44.486   3.307   9.895  0.00  0.00    +0.000 N 
ATOM     11  H   UNL     1      44.543   2.384  10.308  0.00  0.00    +0.000 HD
BRANCH   9  12
ATOM     12  C   UNL     1      45.924   2.474   8.178  0.00  0.00    +0.000 A 
ATOM     13  C   UNL     1      46.852   2.418   7.162  0.00  0.00    +0.000 A 
ATOM     14  C   UNL     1      47.185   1.057   7.068  0.00  0.00    +0.000 A 
ATOM     15  N   UNL     1      46.520   0.317   7.958  0.00  0.00    +0.000 NA
ATOM     16  O   UNL     1      45.726   1.212   8.661  0.00  0.00    +0.000 OA
ENDBRANCH   9  12
ENDBRANCH   7  10
ENDBRANCH   1   7
BRANCH   4  17
ATOM     17  C   UNL     1      47.173   8.069  13.441  0.00  0.00    +0.000 C 
BRANCH  17  18
ATOM     18  N   UNL     1      47.613   7.498  14.688  0.00  0.00    +0.000 N 
ATOM     19  C   UNL     1      48.918   7.129  14.891  0.00  0.00    +0.000 C 
ATOM     20  O   UNL     1      49.788   7.309  14.042  0.00  0.00    +0.000 OA
ATOM     21  H   UNL     1      46.891   7.112  15.288  0.00  0.00    +0.000 HD
BRANCH  19  22
ATOM     22  C   UNL     1      49.236   6.567  16.210  0.00  0.00    +0.000 A 
ATOM     23  C   UNL     1      50.087   7.249  17.069  0.00  0.00    +0.000 A 
ATOM     24  S   UNL     1      50.284   6.486  18.582  0.00  0.00    +0.000 S 
ATOM     25  C   UNL     1      49.285   5.188  18.121  0.00  0.00    +0.000 A 
ATOM     26  N   UNL     1      49.044   4.153  18.971  0.00  0.00    +0.000 NA
ATOM     27  C   UNL     1      48.294   3.224  18.480  0.00  0.00    +0.000 A 
ATOM     28  N   UNL     1      47.762   3.233  17.218  0.00  0.00    +0.000 N 
ATOM     29  C   UNL     1      47.959   4.269  16.333  0.00  0.00    +0.000 A 
ATOM     30  O   UNL     1      47.441   4.263  15.223  0.00  0.00    +0.000 OA
ATOM     31  C   UNL     1      48.799   5.341  16.836  0.00  0.00    +0.000 A 
ATOM     32  H   UNL     1      47.180   2.477  16.892  0.00  0.00    +0.000 HD
ENDBRANCH  19  22
ENDBRANCH  17  18
ENDBRANCH   4  17
TORSDOF 6
ENDMDL
MODEL 3
REMARK VINA RESULT:    -7.202      4.744      9.605
REMARK INTER + INTRA:         -10.889
REMARK INTER:                 -10.109
REMARK INTRA:                  -0.780
REMARK UNBOUND:                -1.161
REMARK  Name = 
REMARK  6 active torsions:
REMARK  status: ('A' for Active; 'I' for Inactive)
REMARK    1  A    between atoms: C_2  and  C_25
REMARK    2  A    between atoms: N_3  and  C_4
REMARK    3  A    between atoms: C_4  and  C_5
REMARK    4  A    between atoms: C_8  and  C_9
REMARK    5  A    between atoms: C_9  and  N_10
REMARK    6  A    between atoms: C_11  and  C_13
REMARK                            x       y       z     vdW  Elec       q    Type
REMARK                         _______ _______ _______ _____ _____    ______ ____
ROOT
ATOM      1  C   UNL     1      51.393   3.238  17.763  0.00  0.00    +0.000 A 
ATOM      2  C   UNL     1      50.724   2.131  17.222  0.00  0.00    +0.000 A 
ATOM      3  C   UNL     1      49.349   2.183  16.965  0.00  0.00    +0.000 A 
ATOM      4  C   UNL     1      48.619   3.351  17.223  0.00  0.00    +0.000 A 
ATOM      5  C   UNL     1      49.285   4.451  17.780  0.00  0.00    +0.000 A 
ATOM      6  C   UNL     1      50.659   4.399  18.036  0.00  0.00    +0.000 A 
ENDROOT
BRANCH   1   7
ATOM      7  C   UNL     1      52.872   3.184  18.035  0.00  0.00    +0.000 C 
BRANCH   7  10
ATOM      8  O   UNL     1      54.531   1.236  16.991  0.00  0.00    +0.000 OA
ATOM      9  C   UNL     1      54.091   1.059  18.124  0.00  0.00    +0.000 C 
ATOM     10  N   UNL     1      53.254   1.977  18.726  0.00  0.00    +0.000 N 
ATOM     11  H   UNL     1      52.948   1.824  19.680  0.00  0.00    +0.000 HD
BRANCH   9  12
ATOM     12  C   UNL     1      54.414  -0.104  18.913  0.00  0.00    +0.000 A 
ATOM     13  C   UNL     1      55.577  -0.481  19.545  0.00  0.00    +0.000 A 
ATOM     14  C   UNL     1      55.271  -1.719  20.131  0.00  0.00    +0.000 A 
ATOM     15  N   UNL     1      54.012  -2.089  19.889  0.00  0.00    +0.000 NA
ATOM     16  O   UNL     1      53.469  -1.067  19.122  0.00  0.00    +0.000 OA
ENDBRANCH   9  12
ENDBRANCH   7  10
ENDBRANCH   1   7
BRANCH   4  17
ATOM     17  C   UNL     1      47.136   3.420  16.950  0.00  0.00    +0.000 C 
BRANCH  17  18
ATOM     18  N   UNL     1      46.838   4.402  15.940  0.00  0.00    +0.000 N 
ATOM     19  C   UNL     1      46.959   4.120  14.603  0.00  0.00    +0.000 C 
ATOM     20  O   UNL     1      47.281   3.006  14.197  0.00  0.00    +0.000 OA
ATOM     21  H   UNL     1      46.824   5.371  16.241  0.00  0.00    +0.000 HD
BRANCH  19  22
ATOM     22  C   UNL     1      46.617   5.206  13.677  0.00  0.00    +0.000 A 
ATOM     23  C   UNL     1      47.545   6.203  13.403  0.00  0.00    +0.000 A 
ATOM     24  S   UNL     1      47.004   7.340  12.251  0.00  0.00    +0.000 S 
ATOM     25  C   UNL     1      45.491   6.574  12.122  0.00  0.00    +0.000 A 
ATOM     26  N   UNL     1      44.525   7.063  11.296  0.00  0.00    +0.000 NA
ATOM     27  C   UNL     1      43.418   6.400  11.321  0.00  0.00    +0.000 A 
ATOM     28  N   UNL     1      43.184   5.294  12.093  0.00  0.00    +0.000 N 
ATOM     29  C   UNL     1      44.137   4.750  12.925  0.00  0.00    +0.000 A 
ATOM     30  O   UNL     1      43.908   3.739  13.578  0.00  0.00    +0.000 OA
ATOM     31  C   UNL     1      45.403   5.460  12.937  0.00  0.00    +0.000 A 
ATOM     32  H   UNL     1      42.296   4.816  12.066  0.00  0.00    +0.000 HD
ENDBRANCH  19  22
ENDBRANCH  17  18
ENDBRANCH   4  17
TORSDOF 6
ENDMDL
MODEL 4
REMARK VINA RESULT:    -7.171      1.793      2.278
REMARK INTER + INTRA:         -10.847
REMARK INTER:                 -10.093
REMARK INTRA:                  -0.754
REMARK UNBOUND:                -1.161
REMARK  Name = 
REMARK  6 active torsions:
REMARK  status: ('A' for Active; 'I' for Inactive)
REMARK    1  A    between atoms: C_2  and  C_25
REMARK    2  A    between atoms: N_3  and  C_4
REMARK    3  A    between atoms: C_4  and  C_5
REMARK    4  A    between atoms: C_8  and  C_9
REMARK    5  A    between atoms: C_9  and  N_10
REMARK    6  A    between atoms: C_11  and  C_13
REMARK                            x       y       z     vdW  Elec       q    Type
REMARK                         _______ _______ _______ _____ _____    ______ ____
ROOT
ATOM      1  C   UNL     1      45.413   5.294  10.888  0.00  0.00    +0.000 A 
ATOM      2  C   UNL     1      45.133   5.000  12.229  0.00  0.00    +0.000 A 
ATOM      3  C   UNL     1      45.827   5.641  13.261  0.00  0.00    +0.000 A 
ATOM      4  C   UNL     1      46.803   6.605  12.973  0.00  0.00    +0.000 A 
ATOM      5  C   UNL     1      47.094   6.886  11.632  0.00  0.00    +0.000 A 
ATOM      6  C   UNL     1      46.399   6.246  10.600  0.00  0.00    +0.000 A 
ENDROOT
BRANCH   1   7
ATOM      7  C   UNL     1      44.662   4.608   9.778  0.00  0.00    +0.000 C 
BRANCH   7  10
ATOM      8  O   UNL     1      45.067   1.997   8.971  0.00  0.00    +0.000 OA
ATOM      9  C   UNL     1      45.670   2.878   8.364  0.00  0.00    +0.000 C 
ATOM     10  N   UNL     1      45.531   4.211   8.698  0.00  0.00    +0.000 N 
ATOM     11  H   UNL     1      46.006   4.916   8.147  0.00  0.00    +0.000 HD
BRANCH   9  12
ATOM     12  C   UNL     1      46.557   2.599   7.262  0.00  0.00    +0.000 A 
ATOM     13  C   UNL     1      46.579   3.072   5.969  0.00  0.00    +0.000 A 
ATOM     14  C   UNL     1      47.669   2.415   5.376  0.00  0.00    +0.000 A 
ATOM     15  N   UNL     1      48.285   1.597   6.231  0.00  0.00    +0.000 NA
ATOM     16  O   UNL     1      47.585   1.715   7.423  0.00  0.00    +0.000 OA
ENDBRANCH   9  12
ENDBRANCH   7  10
ENDBRANCH   1   7
BRANCH   4  17
ATOM     17  C   UNL     1      47.559   7.304  14.076  0.00  0.00    +0.000 C 
BRANCH  17  18
ATOM     18  N   UNL     1      47.632   6.483  15.257  0.00  0.00    +0.000 N 
ATOM     19  C   UNL     1      48.833   6.148  15.828  0.00  0.00    +0.000 C 
ATOM     20  O   UNL     1      49.903   6.564  15.392  0.00  0.00    +0.000 OA
ATOM     21  H   UNL     1      46.809   5.931  15.476  0.00  0.00    +0.000 HD
BRANCH  19  22
ATOM     22  C   UNL     1      48.767   5.313  17.034  0.00  0.00    +0.000 A 
ATOM     23  C   UNL     1      48.490   3.956  16.925  0.00  0.00    +0.000 A 
ATOM     24  S   UNL     1      48.526   3.130  18.417  0.00  0.00    +0.000 S 
ATOM     25  C   UNL     1      48.857   4.566  19.268  0.00  0.00    +0.000 A 
ATOM     26  N   UNL     1      48.994   4.563  20.623  0.00  0.00    +0.000 NA
ATOM     27  C   UNL     1      49.213   5.726  21.138  0.00  0.00    +0.000 A 
ATOM     28  N   UNL     1      49.307   6.893  20.427  0.00  0.00    +0.000 N 
ATOM     29  C   UNL     1      49.199   6.940  19.056  0.00  0.00    +0.000 A 
ATOM     30  O   UNL     1      49.322   7.996  18.446  0.00  0.00    +0.000 OA
ATOM     31  C   UNL     1      48.949   5.658  18.425  0.00  0.00    +0.000 A 
ATOM     32  H   UNL     1      49.483   7.772  20.888  0.00  0.00    +0.000 HD
ENDBRANCH  19  22
ENDBRANCH  17  18
ENDBRANCH   4  17
TORSDOF 6
ENDMDL
MODEL 5
REMARK VINA RESULT:    -7.143      2.907      3.215
REMARK INTER + INTRA:         -10.810
REMARK INTER:                 -10.074
REMARK INTRA:                  -0.736
REMARK UNBOUND:                -1.161
REMARK  Name = 
REMARK  6 active torsions:
REMARK  status: ('A' for Active; 'I' for Inactive)
REMARK    1  A    between atoms: C_2  and  C_25
REMARK    2  A    between atoms: N_3  and  C_4
REMARK    3  A    between atoms: C_4  and  C_5
REMARK    4  A    between atoms: C_8  and  C_9
REMARK    5  A    between atoms: C_9  and  N_10
REMARK    6  A    between atoms: C_11  and  C_13
REMARK                            x       y       z     vdW  Elec       q    Type
REMARK                         _______ _______ _______ _____ _____    ______ ____
ROOT
ATOM      1  C   UNL     1      44.436   4.651  11.607  0.00  0.00    +0.000 A 
ATOM      2  C   UNL     1      43.806   5.821  11.159  0.00  0.00    +0.000 A 
ATOM      3  C   UNL     1      44.264   7.079  11.564  0.00  0.00    +0.000 A 
ATOM      4  C   UNL     1      45.376   7.196  12.409  0.00  0.00    +0.000 A 
ATOM      5  C   UNL     1      45.995   6.026  12.870  0.00  0.00    +0.000 A 
ATOM      6  C   UNL     1      45.537   4.768  12.464  0.00  0.00    +0.000 A 
ENDROOT
BRANCH   1   7
ATOM      7  C   UNL     1      43.946   3.298  11.168  0.00  0.00    +0.000 C 
BRANCH   7  10
ATOM      8  O   UNL     1      44.256   3.758   8.461  0.00  0.00    +0.000 OA
ATOM      9  C   UNL     1      44.986   2.917   8.981  0.00  0.00    +0.000 C 
ATOM     10  N   UNL     1      44.902   2.620  10.326  0.00  0.00    +0.000 N 
ATOM     11  H   UNL     1      45.550   1.957  10.733  0.00  0.00    +0.000 HD
BRANCH   9  12
ATOM     12  C   UNL     1      45.983   2.185   8.240  0.00  0.00    +0.000 A 
ATOM     13  C   UNL     1      46.926   2.601   7.327  0.00  0.00    +0.000 A 
ATOM     14  C   UNL     1      47.586   1.422   6.946  0.00  0.00    +0.000 A 
ATOM     15  N   UNL     1      47.098   0.351   7.574  0.00  0.00    +0.000 NA
ATOM     16  O   UNL     1      46.088   0.833   8.393  0.00  0.00    +0.000 OA
ENDBRANCH   9  12
ENDBRANCH   7  10
ENDBRANCH   1   7
BRANCH   4  17
ATOM     17  C   UNL     1      45.880   8.547  12.852  0.00  0.00    +0.000 C 
BRANCH  17  18
ATOM     18  N   UNL     1      46.736   8.430  14.005  0.00  0.00    +0.000 N 
ATOM     19  C   UNL     1      47.865   9.197  14.144  0.00  0.00    +0.000 C 
ATOM     20  O   UNL     1      48.180  10.052  13.321  0.00  0.00    +0.000 OA
ATOM     21  H   UNL     1      46.645   7.581  14.552  0.00  0.00    +0.000 HD
BRANCH  19  22
ATOM     22  C   UNL     1      48.645   8.986  15.370  0.00  0.00    +0.000 A 
ATOM     23  C   UNL     1      48.129   9.380  16.598  0.00  0.00    +0.000 A 
ATOM     24  S   UNL     1      49.137   8.991  17.919  0.00  0.00    +0.000 S 
ATOM     25  C   UNL     1      50.324   8.334  16.891  0.00  0.00    +0.000 A 
ATOM     26  N   UNL     1      51.483   7.826  17.393  0.00  0.00    +0.000 NA
ATOM     27  C   UNL     1      52.304   7.388  16.498  0.00  0.00    +0.000 A 
ATOM     28  N   UNL     1      52.076   7.411  15.148  0.00  0.00    +0.000 N 
ATOM     29  C   UNL     1      50.910   7.892  14.597  0.00  0.00    +0.000 A 
ATOM     30  O   UNL     1      50.722   7.867  13.387  0.00  0.00    +0.000 OA
ATOM     31  C   UNL     1      49.951   8.400  15.561  0.00  0.00    +0.000 A 
ATOM     32  H   UNL     1      52.757   7.050  14.498  0.00  0.00    +0.000 HD
ENDBRANCH  19  22
ENDBRANCH  17  18
ENDBRANCH   4  17
TORSDOF 6
ENDMDL
MODEL 6
REMARK VINA RESULT:    -6.796      4.709      7.154
REMARK INTER + INTRA:         -10.340
REMARK INTER:                  -9.444
REMARK INTRA:                  -0.897
REMARK UNBOUND:                -1.161
REMARK  Name = 
REMARK  6 active torsions:
REMARK  status: ('A' for Active; 'I' for Inactive)
REMARK    1  A    between atoms: C_2  and  C_25
REMARK    2  A    between atoms: N_3  and  C_4
REMARK    3  A    between atoms: C_4  and  C_5
REMARK    4  A    between atoms: C_8  and  C_9
REMARK    5  A    between atoms: C_9  and  N_10
REMARK    6  A    between atoms: C_11  and  C_13
REMARK                            x       y       z     vdW  Elec       q    Type
REMARK                         _______ _______ _______ _____ _____    ______ ____
ROOT
ATOM      1  C   UNL     1      50.624   8.677  11.248  0.00  0.00    +0.000 A 
ATOM      2  C   UNL     1      50.179   7.426  11.698  0.00  0.00    +0.000 A 
ATOM      3  C   UNL     1      48.901   7.278  12.249  0.00  0.00    +0.000 A 
ATOM      4  C   UNL     1      48.032   8.374  12.340  0.00  0.00    +0.000 A 
ATOM      5  C   UNL     1      48.484   9.627  11.906  0.00  0.00    +0.000 A 
ATOM      6  C   UNL     1      49.761   9.775  11.355  0.00  0.00    +0.000 A 
ENDROOT
BRANCH   1   7
ATOM      7  C   UNL     1      51.996   8.835  10.652  0.00  0.00    +0.000 C 
BRANCH   7  10
ATOM      8  O   UNL     1      52.812   8.928   8.013  0.00  0.00    +0.000 OA
ATOM      9  C   UNL     1      52.784   7.828   8.561  0.00  0.00    +0.000 C 
ATOM     10  N   UNL     1      52.388   7.685   9.875  0.00  0.00    +0.000 N 
ATOM     11  H   UNL     1      52.421   6.771  10.310  0.00  0.00    +0.000 HD
BRANCH   9  12
ATOM     12  C   UNL     1      53.163   6.611   7.886  0.00  0.00    +0.000 A 
ATOM     13  C   UNL     1      53.751   5.457   8.353  0.00  0.00    +0.000 A 
ATOM     14  C   UNL     1      53.883   4.647   7.213  0.00  0.00    +0.000 A 
ATOM     15  N   UNL     1      53.410   5.245   6.118  0.00  0.00    +0.000 NA
ATOM     16  O   UNL     1      52.954   6.484   6.543  0.00  0.00    +0.000 OA
ENDBRANCH   9  12
ENDBRANCH   7  10
ENDBRANCH   1   7
BRANCH   4  17
ATOM     17  C   UNL     1      46.652   8.228  12.931  0.00  0.00    +0.000 C 
BRANCH  17  18
ATOM     18  N   UNL     1      46.105   6.924  12.661  0.00  0.00    +0.000 N 
ATOM     19  C   UNL     1      45.098   6.740  11.748  0.00  0.00    +0.000 C 
ATOM     20  O   UNL     1      44.644   7.666  11.081  0.00  0.00    +0.000 OA
ATOM     21  H   UNL     1      46.274   6.209  13.360  0.00  0.00    +0.000 HD
BRANCH  19  22
ATOM     22  C   UNL     1      44.636   5.359  11.561  0.00  0.00    +0.000 A 
ATOM     23  C   UNL     1      43.909   4.728  12.562  0.00  0.00    +0.000 A 
ATOM     24  S   UNL     1      43.393   3.157  12.144  0.00  0.00    +0.000 S 
ATOM     25  C   UNL     1      44.173   3.242  10.634  0.00  0.00    +0.000 A 
ATOM     26  N   UNL     1      44.137   2.193   9.766  0.00  0.00    +0.000 NA
ATOM     27  C   UNL     1      44.796   2.384   8.673  0.00  0.00    +0.000 A 
ATOM     28  N   UNL     1      45.487   3.526   8.365  0.00  0.00    +0.000 N 
ATOM     29  C   UNL     1      45.531   4.619   9.200  0.00  0.00    +0.000 A 
ATOM     30  O   UNL     1      46.131   5.638   8.879  0.00  0.00    +0.000 OA
ATOM     31  C   UNL     1      44.807   4.455  10.447  0.00  0.00    +0.000 A 
ATOM     32  H   UNL     1      45.981   3.616   7.490  0.00  0.00    +0.000 HD
ENDBRANCH  19  22
ENDBRANCH  17  18
ENDBRANCH   4  17
TORSDOF 6
ENDMDL
MODEL 7
REMARK VINA RESULT:    -6.687      3.787      8.242
REMARK INTER + INTRA:         -10.193
REMARK INTER:                  -9.308
REMARK INTRA:                  -0.884
REMARK UNBOUND:                -1.161
REMARK  Name = 
REMARK  6 active torsions:
REMARK  status: ('A' for Active; 'I' for Inactive)
REMARK    1  A    between atoms: C_2  and  C_25
REMARK    2  A    between atoms: N_3  and  C_4
REMARK    3  A    between atoms: C_4  and  C_5
REMARK    4  A    between atoms: C_8  and  C_9
REMARK    5  A    between atoms: C_9  and  N_10
REMARK    6  A    between atoms: C_11  and  C_13
REMARK                            x       y       z     vdW  Elec       q    Type
REMARK                         _______ _______ _______ _____ _____    ______ ____
ROOT
ATOM      1  C   UNL     1      49.882   6.963  15.969  0.00  0.00    +0.000 A 
ATOM      2  C   UNL     1      50.585   7.835  15.127  0.00  0.00    +0.000 A 
ATOM      3  C   UNL     1      50.085   8.165  13.862  0.00  0.00    +0.000 A 
ATOM      4  C   UNL     1      48.859   7.646  13.422  0.00  0.00    +0.000 A 
ATOM      5  C   UNL     1      48.166   6.761  14.258  0.00  0.00    +0.000 A 
ATOM      6  C   UNL     1      48.666   6.432  15.522  0.00  0.00    +0.000 A 
ENDROOT
BRANCH   1   7
ATOM      7  C   UNL     1      50.418   6.611  17.331  0.00  0.00    +0.000 C 
BRANCH   7  10
ATOM      8  O   UNL     1      49.322   4.285  18.342  0.00  0.00    +0.000 OA
ATOM      9  C   UNL     1      50.454   4.220  17.868  0.00  0.00    +0.000 C 
ATOM     10  N   UNL     1      51.081   5.331  17.341  0.00  0.00    +0.000 N 
ATOM     11  H   UNL     1      51.995   5.233  16.915  0.00  0.00    +0.000 HD
BRANCH   9  12
ATOM     12  C   UNL     1      51.208   2.992  17.815  0.00  0.00    +0.000 A 
ATOM     13  C   UNL     1      50.942   1.786  17.207  0.00  0.00    +0.000 A 
ATOM     14  C   UNL     1      52.046   0.981  17.532  0.00  0.00    +0.000 A 
ATOM     15  N   UNL     1      52.936   1.633  18.282  0.00  0.00    +0.000 NA
ATOM     16  O   UNL     1      52.409   2.904  18.459  0.00  0.00    +0.000 OA
ENDBRANCH   9  12
ENDBRANCH   7  10
ENDBRANCH   1   7
BRANCH   4  17
ATOM     17  C   UNL     1      48.308   7.994  12.061  0.00  0.00    +0.000 C 
BRANCH  17  18
ATOM     18  N   UNL     1      47.588   6.885  11.492  0.00  0.00    +0.000 N 
ATOM     19  C   UNL     1      46.225   6.915  11.338  0.00  0.00    +0.000 C 
ATOM     20  O   UNL     1      45.555   7.902  11.631  0.00  0.00    +0.000 OA
ATOM     21  H   UNL     1      48.066   5.991  11.484  0.00  0.00    +0.000 HD
BRANCH  19  22
ATOM     22  C   UNL     1      45.614   5.723  10.737  0.00  0.00    +0.000 A 
ATOM     23  C   UNL     1      45.773   5.469   9.381  0.00  0.00    +0.000 A 
ATOM     24  S   UNL     1      45.060   4.005   8.872  0.00  0.00    +0.000 S 
ATOM     25  C   UNL     1      44.464   3.687  10.434  0.00  0.00    +0.000 A 
ATOM     26  N   UNL     1      43.730   2.570  10.691  0.00  0.00    +0.000 NA
ATOM     27  C   UNL     1      43.318   2.472  11.910  0.00  0.00    +0.000 A 
ATOM     28  N   UNL     1      43.571   3.386  12.898  0.00  0.00    +0.000 N 
ATOM     29  C   UNL     1      44.327   4.517  12.691  0.00  0.00    +0.000 A 
ATOM     30  O   UNL     1      44.564   5.299  13.605  0.00  0.00    +0.000 OA
ATOM     31  C   UNL     1      44.814   4.677  11.333  0.00  0.00    +0.000 A 
ATOM     32  H   UNL     1      43.223   3.252  13.835  0.00  0.00    +0.000 HD
ENDBRANCH  19  22
ENDBRANCH  17  18
ENDBRANCH   4  17
TORSDOF 6
ENDMDL
MODEL 8
REMARK VINA RESULT:    -6.655      3.194      4.730
REMARK INTER + INTRA:         -10.151
REMARK INTER:                  -9.049
REMARK INTRA:                  -1.101
REMARK UNBOUND:                -1.161
REMARK  Name = 
REMARK  6 active torsions:
REMARK  status: ('A' for Active; 'I' for Inactive)
REMARK    1  A    between atoms: C_2  and  C_25
REMARK    2  A    between atoms: N_3  and  C_4
REMARK    3  A    between atoms: C_4  and  C_5
REMARK    4  A    between atoms: C_8  and  C_9
REMARK    5  A    between atoms: C_9  and  N_10
REMARK    6  A    between atoms: C_11  and  C_13
REMARK                            x       y       z     vdW  Elec       q    Type
REMARK                         _______ _______ _______ _____ _____    ______ ____
ROOT
ATOM      1  C   UNL     1      45.451   5.202  11.370  0.00  0.00    +0.000 A 
ATOM      2  C   UNL     1      46.142   6.420  11.325  0.00  0.00    +0.000 A 
ATOM      3  C   UNL     1      46.940   6.830  12.399  0.00  0.00    +0.000 A 
ATOM      4  C   UNL     1      47.080   6.018  13.533  0.00  0.00    +0.000 A 
ATOM      5  C   UNL     1      46.376   4.809  13.585  0.00  0.00    +0.000 A 
ATOM      6  C   UNL     1      45.579   4.399  12.510  0.00  0.00    +0.000 A 
ENDROOT
BRANCH   1   7
ATOM      7  C   UNL     1      44.597   4.759  10.213  0.00  0.00    +0.000 C 
BRANCH   7  10
ATOM      8  O   UNL     1      46.263   4.883   8.013  0.00  0.00    +0.000 OA
ATOM      9  C   UNL     1      45.974   3.769   8.444  0.00  0.00    +0.000 C 
ATOM     10  N   UNL     1      45.148   3.610   9.538  0.00  0.00    +0.000 N 
ATOM     11  H   UNL     1      44.968   2.680   9.897  0.00  0.00    +0.000 HD
BRANCH   9  12
ATOM     12  C   UNL     1      46.475   2.551   7.856  0.00  0.00    +0.000 A 
ATOM     13  C   UNL     1      46.142   1.233   8.071  0.00  0.00    +0.000 A 
ATOM     14  C   UNL     1      46.989   0.514   7.213  0.00  0.00    +0.000 A 
ATOM     15  N   UNL     1      47.788   1.320   6.510  0.00  0.00    +0.000 NA
ATOM     16  O   UNL     1      47.461   2.606   6.914  0.00  0.00    +0.000 OA
ENDBRANCH   9  12
ENDBRANCH   7  10
ENDBRANCH   1   7
BRANCH   4  17
ATOM     17  C   UNL     1      47.938   6.448  14.698  0.00  0.00    +0.000 C 
BRANCH  17  18
ATOM     18  N   UNL     1      48.904   7.437  14.296  0.00  0.00    +0.000 N 
ATOM     19  C   UNL     1      50.172   7.458  14.818  0.00  0.00    +0.000 C 
ATOM     20  O   UNL     1      50.565   6.612  15.617  0.00  0.00    +0.000 OA
ATOM     21  H   UNL     1      48.539   8.272  13.852  0.00  0.00    +0.000 HD
BRANCH  19  22
ATOM     22  C   UNL     1      51.062   8.514  14.318  0.00  0.00    +0.000 A 
ATOM     23  C   UNL     1      51.665   9.394  15.208  0.00  0.00    +0.000 A 
ATOM     24  S   UNL     1      52.721  10.505  14.459  0.00  0.00    +0.000 S 
ATOM     25  C   UNL     1      52.365   9.887  12.914  0.00  0.00    +0.000 A 
ATOM     26  N   UNL     1      52.937  10.418  11.798  0.00  0.00    +0.000 NA
ATOM     27  C   UNL     1      52.554   9.872  10.693  0.00  0.00    +0.000 A 
ATOM     28  N   UNL     1      51.653   8.846  10.598  0.00  0.00    +0.000 N 
ATOM     29  C   UNL     1      51.068   8.262  11.699  0.00  0.00    +0.000 A 
ATOM     30  O   UNL     1      50.291   7.322  11.582  0.00  0.00    +0.000 OA
ATOM     31  C   UNL     1      51.463   8.841  12.970  0.00  0.00    +0.000 A 
ATOM     32  H   UNL     1      51.395   8.459   9.702  0.00  0.00    +0.000 HD
ENDBRANCH  19  22
ENDBRANCH  17  18
ENDBRANCH   4  17
TORSDOF 6
ENDMDL
MODEL 9
REMARK VINA RESULT:    -6.564      3.287      8.550
REMARK INTER + INTRA:         -10.027
REMARK INTER:                  -9.070
REMARK INTRA:                  -0.958
REMARK UNBOUND:                -1.161
REMARK  Name = 
REMARK  6 active torsions:
REMARK  status: ('A' for Active; 'I' for Inactive)
REMARK    1  A    between atoms: C_2  and  C_25
REMARK    2  A    between atoms: N_3  and  C_4
REMARK    3  A    between atoms: C_4  and  C_5
REMARK    4  A    between atoms: C_8  and  C_9
REMARK    5  A    between atoms: C_9  and  N_10
REMARK    6  A    between atoms: C_11  and  C_13
REMARK                            x       y       z     vdW  Elec       q    Type
REMARK                         _______ _______ _______ _____ _____    ______ ____
ROOT
ATOM      1  C   UNL     1      50.186   7.374  15.208  0.00  0.00    +0.000 A 
ATOM      2  C   UNL     1      50.599   7.920  13.985  0.00  0.00    +0.000 A 
ATOM      3  C   UNL     1      49.698   8.063  12.925  0.00  0.00    +0.000 A 
ATOM      4  C   UNL     1      48.357   7.682  13.073  0.00  0.00    +0.000 A 
ATOM      5  C   UNL     1      47.949   7.120  14.290  0.00  0.00    +0.000 A 
ATOM      6  C   UNL     1      48.850   6.978  15.350  0.00  0.00    +0.000 A 
ENDROOT
BRANCH   1   7
ATOM      7  C   UNL     1      51.155   7.224  16.350  0.00  0.00    +0.000 C 
BRANCH   7  10
ATOM      8  O   UNL     1      50.118   5.542  18.282  0.00  0.00    +0.000 OA
ATOM      9  C   UNL     1      50.984   5.087  17.538  0.00  0.00    +0.000 C 
ATOM     10  N   UNL     1      51.559   5.854  16.545  0.00  0.00    +0.000 N 
ATOM     11  H   UNL     1      52.235   5.434  15.918  0.00  0.00    +0.000 HD
BRANCH   9  12
ATOM     12  C   UNL     1      51.458   3.729  17.633  0.00  0.00    +0.000 A 
ATOM     13  C   UNL     1      52.560   3.191  18.259  0.00  0.00    +0.000 A 
ATOM     14  C   UNL     1      52.487   1.818  17.977  0.00  0.00    +0.000 A 
ATOM     15  N   UNL     1      51.419   1.517  17.235  0.00  0.00    +0.000 NA
ATOM     16  O   UNL     1      50.768   2.723  17.020  0.00  0.00    +0.000 OA
ENDBRANCH   9  12
ENDBRANCH   7  10
ENDBRANCH   1   7
BRANCH   4  17
ATOM     17  C   UNL     1      47.374   7.831  11.938  0.00  0.00    +0.000 C 
BRANCH  17  18
ATOM     18  N   UNL     1      46.714   6.584  11.654  0.00  0.00    +0.000 N 
ATOM     19  C   UNL     1      45.351   6.455  11.733  0.00  0.00    +0.000 C 
ATOM     20  O   UNL     1      44.620   7.404  12.004  0.00  0.00    +0.000 OA
ATOM     21  H   UNL     1      47.291   5.750  11.682  0.00  0.00    +0.000 HD
BRANCH  19  22
ATOM     22  C   UNL     1      44.804   5.132  11.410  0.00  0.00    +0.000 A 
ATOM     23  C   UNL     1      44.047   4.445  12.351  0.00  0.00    +0.000 A 
ATOM     24  S   UNL     1      43.432   2.959  11.779  0.00  0.00    +0.000 S 
ATOM     25  C   UNL     1      44.204   3.155  10.275  0.00  0.00    +0.000 A 
ATOM     26  N   UNL     1      44.098   2.207   9.304  0.00  0.00    +0.000 NA
ATOM     27  C   UNL     1      44.759   2.471   8.227  0.00  0.00    +0.000 A 
ATOM     28  N   UNL     1      45.516   3.595   8.030  0.00  0.00    +0.000 N 
ATOM     29  C   UNL     1      45.634   4.590   8.973  0.00  0.00    +0.000 A 
ATOM     30  O   UNL     1      46.292   5.600   8.752  0.00  0.00    +0.000 OA
ATOM     31  C   UNL     1      44.911   4.341  10.206  0.00  0.00    +0.000 A 
ATOM     32  H   UNL     1      46.008   3.746   7.162  0.00  0.00    +0.000 HD
ENDBRANCH  19  22
ENDBRANCH  17  18
ENDBRANCH   4  17
TORSDOF 6
ENDMDL
