MODEL 1
REMARK VINA RESULT:    -8.202      0.000      0.000
REMARK INTER + INTRA:         -11.417
REMARK INTER:                 -10.600
REMARK INTRA:                  -0.818
REMARK UNBOUND:                -0.818
REMARK  Name = 
REMARK  5 active torsions:
REMARK  status: ('A' for Active; 'I' for Inactive)
REMARK    1  A    between atoms: C_2  and  C_19
REMARK    2  A    between atoms: N_3  and  C_4
REMARK    3  A    between atoms: C_4  and  C_5
REMARK    4  A    between atoms: C_8  and  C_9
REMARK    5  A    between atoms: C_9  and  C_10
REMARK                            x       y       z     vdW  Elec       q    Type
REMARK                         _______ _______ _______ _____ _____    ______ ____
ROOT
ATOM      1  O   UNL     1      47.195   3.162  14.070  0.00  0.00    +0.000 OA
ATOM      2  C   UNL     1      46.870   4.293  14.410  0.00  0.00    +0.000 C 
ATOM      3  N   UNL     1      45.632   4.850  14.166  0.00  0.00    +0.000 N 
ATOM      4  H   UNL     1      45.406   5.710  14.643  0.00  0.00    +0.000 HD
ENDROOT
BRANCH   2   5
ATOM      5  C   UNL     1      47.663   5.130  15.299  0.00  0.00    +0.000 A 
ATOM      6  C   UNL     1      48.285   6.289  14.870  0.00  0.00    +0.000 A 
ATOM      7  S   UNL     1      49.533   6.775  15.944  0.00  0.00    +0.000 S 
ATOM      8  C   UNL     1      49.166   5.517  17.037  0.00  0.00    +0.000 A 
ATOM      9  N   UNL     1      49.935   5.247  18.124  0.00  0.00    +0.000 NA
ATOM     10  C   UNL     1      49.482   4.287  18.868  0.00  0.00    +0.000 A 
ATOM     11  N   UNL     1      48.311   3.609  18.651  0.00  0.00    +0.000 N 
ATOM     12  C   UNL     1      47.492   3.849  17.570  0.00  0.00    +0.000 A 
ATOM     13  O   UNL     1      46.422   3.280  17.420  0.00  0.00    +0.000 OA
ATOM     14  C   UNL     1      48.031   4.836  16.652  0.00  0.00    +0.000 A 
ATOM     15  H   UNL     1      47.975   2.924  19.312  0.00  0.00    +0.000 HD
ENDBRANCH   2   5
BRANCH   3  16
ATOM     16  C   UNL     1      44.530   4.070  13.681  0.00  0.00    +0.000 C 
BRANCH  16  17
ATOM     17  C   UNL     1      44.530   4.039  12.181  0.00  0.00    +0.000 A 
ATOM     18  C   UNL     1      43.714   3.166  11.474  0.00  0.00    +0.000 A 
ATOM     19  N   UNL     1      43.701   3.063  10.125  0.00  0.00    +0.000 NA
ATOM     20  C   UNL     1      44.539   3.873   9.416  0.00  0.00    +0.000 A 
ATOM     21  C   UNL     1      45.336   4.835  10.043  0.00  0.00    +0.000 A 
ATOM     22 CL   UNL     1      46.370   5.908   9.179  0.00  0.00    +0.000 Cl
ATOM     23  C   UNL     1      45.324   4.915  11.437  0.00  0.00    +0.000 A 
BRANCH  20  24
ATOM     24  C   UNL     1      44.565   3.633   7.922  0.00  0.00    +0.000 C 
BRANCH  24  25
ATOM     25  C   UNL     1      45.786   2.912   7.439  0.00  0.00    +0.000 A 
ATOM     26  C   UNL     1      46.598   3.403   6.436  0.00  0.00    +0.000 A 
ATOM     27  N   UNL     1      47.677   2.753   5.959  0.00  0.00    +0.000 NA
ATOM     28  C   UNL     1      47.941   1.568   6.528  0.00  0.00    +0.000 A 
ATOM     29  N   UNL     1      47.240   0.994   7.516  0.00  0.00    +0.000 NA
ATOM     30  C   UNL     1      46.168   1.687   7.950  0.00  0.00    +0.000 A 
ENDBRANCH  24  25
ENDBRANCH  20  24
ENDBRANCH  16  17
ENDBRANCH   3  16
TORSDOF 5
ENDMDL
MODEL 2
REMARK VINA RESULT:    -7.837      2.215      3.006
REMARK INTER + INTRA:         -10.945
REMARK INTER:                 -10.271
REMARK INTRA:                  -0.674
REMARK UNBOUND:                -0.818
REMARK  Name = 
REMARK  5 active torsions:
REMARK  status: ('A' for Active; 'I' for Inactive)
REMARK    1  A    between atoms: C_2  and  C_19
REMARK    2  A    between atoms: N_3  and  C_4
REMARK    3  A    between atoms: C_4  and  C_5
REMARK    4  A    between atoms: C_8  and  C_9
REMARK    5  A    between atoms: C_9  and  C_10
REMARK                            x       y       z     vdW  Elec       q    Type
REMARK                         _______ _______ _______ _____ _____    ______ ____
ROOT
ATOM      1  O   UNL     1      49.042   6.645  13.413  0.00  0.00    +0.000 OA
ATOM      2  C   UNL     1      48.367   7.081  14.337  0.00  0.00    +0.000 C 
ATOM      3  N   UNL     1      47.345   7.995  14.186  0.00  0.00    +0.000 N 
ATOM      4  H   UNL     1      46.737   8.149  14.977  0.00  0.00    +0.000 HD
ENDROOT
BRANCH   2   5
ATOM      5  C   UNL     1      48.402   6.542  15.689  0.00  0.00    +0.000 A 
ATOM      6  C   UNL     1      48.894   7.263  16.764  0.00  0.00    +0.000 A 
ATOM      7  S   UNL     1      49.291   6.242  18.085  0.00  0.00    +0.000 S 
ATOM      8  C   UNL     1      48.697   4.862  17.276  0.00  0.00    +0.000 A 
ATOM      9  N   UNL     1      48.847   3.605  17.770  0.00  0.00    +0.000 NA
ATOM     10  C   UNL     1      48.296   2.682  17.047  0.00  0.00    +0.000 A 
ATOM     11  N   UNL     1      47.570   2.905  15.905  0.00  0.00    +0.000 N 
ATOM     12  C   UNL     1      47.382   4.159  15.367  0.00  0.00    +0.000 A 
ATOM     13  O   UNL     1      46.684   4.351  14.384  0.00  0.00    +0.000 OA
ATOM     14  C   UNL     1      48.087   5.203  16.087  0.00  0.00    +0.000 A 
ATOM     15  H   UNL     1      47.099   2.149  15.430  0.00  0.00    +0.000 HD
ENDBRANCH   2   5
BRANCH   3  16
ATOM     16  C   UNL     1      46.833   8.357  12.896  0.00  0.00    +0.000 C 
BRANCH  16  17
ATOM     17  C   UNL     1      46.074   7.211  12.294  0.00  0.00    +0.000 A 
ATOM     18  C   UNL     1      46.528   6.561  11.153  0.00  0.00    +0.000 A 
ATOM     19  N   UNL     1      45.866   5.552  10.541  0.00  0.00    +0.000 NA
ATOM     20  C   UNL     1      44.684   5.143  11.084  0.00  0.00    +0.000 A 
ATOM     21  C   UNL     1      44.194   5.688  12.274  0.00  0.00    +0.000 A 
ATOM     22 CL   UNL     1      42.729   5.165  13.016  0.00  0.00    +0.000 Cl
ATOM     23  C   UNL     1      44.902   6.727  12.880  0.00  0.00    +0.000 A 
BRANCH  20  24
ATOM     24  C   UNL     1      43.934   4.092  10.293  0.00  0.00    +0.000 C 
BRANCH  24  25
ATOM     25  C   UNL     1      44.764   3.399   9.257  0.00  0.00    +0.000 A 
ATOM     26  C   UNL     1      45.192   2.093   9.391  0.00  0.00    +0.000 A 
ATOM     27  N   UNL     1      45.971   1.462   8.490  0.00  0.00    +0.000 NA
ATOM     28  C   UNL     1      46.318   2.185   7.416  0.00  0.00    +0.000 A 
ATOM     29  N   UNL     1      45.954   3.451   7.164  0.00  0.00    +0.000 NA
ATOM     30  C   UNL     1      45.180   4.032   8.102  0.00  0.00    +0.000 A 
ENDBRANCH  24  25
ENDBRANCH  20  24
ENDBRANCH  16  17
ENDBRANCH   3  16
TORSDOF 5
ENDMDL
MODEL 3
REMARK VINA RESULT:    -7.784      2.146      2.647
REMARK INTER + INTRA:         -10.877
REMARK INTER:                 -10.291
REMARK INTRA:                  -0.586
REMARK UNBOUND:                -0.818
REMARK  Name = 
REMARK  5 active torsions:
REMARK  status: ('A' for Active; 'I' for Inactive)
REMARK    1  A    between atoms: C_2  and  C_19
REMARK    2  A    between atoms: N_3  and  C_4
REMARK    3  A    between atoms: C_4  and  C_5
REMARK    4  A    between atoms: C_8  and  C_9
REMARK    5  A    between atoms: C_9  and  C_10
REMARK                            x       y       z     vdW  Elec       q    Type
REMARK                         _______ _______ _______ _____ _____    ______ ____
ROOT
ATOM      1  O   UNL     1      48.388   6.422  12.791  0.00  0.00    +0.000 OA
ATOM      2  C   UNL     1      47.590   6.319  13.714  0.00  0.00    +0.000 C 
ATOM      3  N   UNL     1      46.286   6.769  13.665  0.00  0.00    +0.000 N 
ATOM      4  H   UNL     1      45.664   6.476  14.404  0.00  0.00    +0.000 HD
ENDROOT
BRANCH   2   5
ATOM      5  C   UNL     1      47.833   5.525  14.909  0.00  0.00    +0.000 A 
ATOM      6  C   UNL     1      47.148   4.352  15.174  0.00  0.00    +0.000 A 
ATOM      7  S   UNL     1      47.248   3.918  16.832  0.00  0.00    +0.000 S 
ATOM      8  C   UNL     1      48.298   5.219  17.172  0.00  0.00    +0.000 A 
ATOM      9  N   UNL     1      48.678   5.539  18.436  0.00  0.00    +0.000 NA
ATOM     10  C   UNL     1      49.515   6.527  18.504  0.00  0.00    +0.000 A 
ATOM     11  N   UNL     1      50.040   7.189  17.425  0.00  0.00    +0.000 N 
ATOM     12  C   UNL     1      49.693   6.900  16.124  0.00  0.00    +0.000 A 
ATOM     13  O   UNL     1      50.212   7.455  15.169  0.00  0.00    +0.000 OA
ATOM     14  C   UNL     1      48.668   5.877  16.018  0.00  0.00    +0.000 A 
ATOM     15  H   UNL     1      50.747   7.900  17.542  0.00  0.00    +0.000 HD
ENDBRANCH   2   5
BRANCH   3  16
ATOM     16  C   UNL     1      45.678   7.205  12.442  0.00  0.00    +0.000 C 
BRANCH  16  17
ATOM     17  C   UNL     1      45.402   6.033  11.548  0.00  0.00    +0.000 A 
ATOM     18  C   UNL     1      45.919   5.965  10.260  0.00  0.00    +0.000 A 
ATOM     19  N   UNL     1      45.670   4.956   9.394  0.00  0.00    +0.000 NA
ATOM     20  C   UNL     1      44.866   3.938   9.816  0.00  0.00    +0.000 A 
ATOM     21  C   UNL     1      44.367   3.887  11.120  0.00  0.00    +0.000 A 
ATOM     22 CL   UNL     1      43.389   2.595  11.704  0.00  0.00    +0.000 Cl
ATOM     23  C   UNL     1      44.645   4.945  11.989  0.00  0.00    +0.000 A 
BRANCH  20  24
ATOM     24  C   UNL     1      44.530   2.898   8.768  0.00  0.00    +0.000 C 
BRANCH  24  25
ATOM     25  C   UNL     1      45.675   2.541   7.872  0.00  0.00    +0.000 A 
ATOM     26  C   UNL     1      46.054   3.319   6.795  0.00  0.00    +0.000 A 
ATOM     27  N   UNL     1      47.055   2.998   5.952  0.00  0.00    +0.000 NA
ATOM     28  C   UNL     1      47.694   1.850   6.220  0.00  0.00    +0.000 A 
ATOM     29  N   UNL     1      47.432   1.019   7.240  0.00  0.00    +0.000 NA
ATOM     30  C   UNL     1      46.418   1.389   8.047  0.00  0.00    +0.000 A 
ENDBRANCH  24  25
ENDBRANCH  20  24
ENDBRANCH  16  17
ENDBRANCH   3  16
TORSDOF 5
ENDMDL
MODEL 4
REMARK VINA RESULT:    -7.748      3.396      8.627
REMARK INTER + INTRA:         -10.831
REMARK INTER:                  -9.922
REMARK INTRA:                  -0.908
REMARK UNBOUND:                -0.818
REMARK  Name = 
REMARK  5 active torsions:
REMARK  status: ('A' for Active; 'I' for Inactive)
REMARK    1  A    between atoms: C_2  and  C_19
REMARK    2  A    between atoms: N_3  and  C_4
REMARK    3  A    between atoms: C_4  and  C_5
REMARK    4  A    between atoms: C_8  and  C_9
REMARK    5  A    between atoms: C_9  and  C_10
REMARK                            x       y       z     vdW  Elec       q    Type
REMARK                         _______ _______ _______ _____ _____    ______ ____
ROOT
ATOM      1  O   UNL     1      44.792   7.374  11.445  0.00  0.00    +0.000 OA
ATOM      2  C   UNL     1      45.295   6.258  11.447  0.00  0.00    +0.000 C 
ATOM      3  N   UNL     1      46.543   5.971  11.961  0.00  0.00    +0.000 N 
ATOM      4  H   UNL     1      46.786   4.999  12.079  0.00  0.00    +0.000 HD
ENDROOT
BRANCH   2   5
ATOM      5  C   UNL     1      44.569   5.043  11.105  0.00  0.00    +0.000 A 
ATOM      6  C   UNL     1      43.578   4.516  11.914  0.00  0.00    +0.000 A 
ATOM      7  S   UNL     1      43.272   2.866  11.552  0.00  0.00    +0.000 S 
ATOM      8  C   UNL     1      44.366   2.888  10.243  0.00  0.00    +0.000 A 
ATOM      9  N   UNL     1      44.710   1.764   9.560  0.00  0.00    +0.000 NA
ATOM     10  C   UNL     1      45.517   1.972   8.569  0.00  0.00    +0.000 A 
ATOM     11  N   UNL     1      45.974   3.203   8.170  0.00  0.00    +0.000 N 
ATOM     12  C   UNL     1      45.651   4.372   8.824  0.00  0.00    +0.000 A 
ATOM     13  O   UNL     1      46.014   5.467   8.424  0.00  0.00    +0.000 OA
ATOM     14  C   UNL     1      44.843   4.160  10.011  0.00  0.00    +0.000 A 
ATOM     15  H   UNL     1      46.540   3.306   7.342  0.00  0.00    +0.000 HD
ENDBRANCH   2   5
BRANCH   3  16
ATOM     16  C   UNL     1      47.280   6.922  12.742  0.00  0.00    +0.000 C 
BRANCH  16  17
ATOM     17  C   UNL     1      47.759   6.293  14.017  0.00  0.00    +0.000 A 
ATOM     18  C   UNL     1      47.310   5.042  14.421  0.00  0.00    +0.000 A 
ATOM     19  N   UNL     1      47.673   4.443  15.579  0.00  0.00    +0.000 NA
ATOM     20  C   UNL     1      48.538   5.108  16.397  0.00  0.00    +0.000 A 
ATOM     21  C   UNL     1      49.099   6.335  16.031  0.00  0.00    +0.000 A 
ATOM     22 CL   UNL     1      50.232   7.182  17.014  0.00  0.00    +0.000 Cl
ATOM     23  C   UNL     1      48.704   6.924  14.828  0.00  0.00    +0.000 A 
BRANCH  20  24
ATOM     24  C   UNL     1      48.817   4.443  17.727  0.00  0.00    +0.000 C 
BRANCH  24  25
ATOM     25  C   UNL     1      49.977   3.497  17.708  0.00  0.00    +0.000 A 
ATOM     26  C   UNL     1      51.230   3.839  18.178  0.00  0.00    +0.000 A 
ATOM     27  N   UNL     1      52.298   3.018  18.134  0.00  0.00    +0.000 NA
ATOM     28  C   UNL     1      52.079   1.808  17.600  0.00  0.00    +0.000 A 
ATOM     29  N   UNL     1      50.910   1.354  17.126  0.00  0.00    +0.000 NA
ATOM     30  C   UNL     1      49.878   2.219  17.191  0.00  0.00    +0.000 A 
ENDBRANCH  24  25
ENDBRANCH  20  24
ENDBRANCH  16  17
ENDBRANCH   3  16
TORSDOF 5
ENDMDL
MODEL 5
REMARK VINA RESULT:    -7.475      2.347      3.302
REMARK INTER + INTRA:         -10.477
REMARK INTER:                  -9.480
REMARK INTRA:                  -0.998
REMARK UNBOUND:                -0.818
REMARK  Name = 
REMARK  5 active torsions:
REMARK  status: ('A' for Active; 'I' for Inactive)
REMARK    1  A    between atoms: C_2  and  C_19
REMARK    2  A    between atoms: N_3  and  C_4
REMARK    3  A    between atoms: C_4  and  C_5
REMARK    4  A    between atoms: C_8  and  C_9
REMARK    5  A    between atoms: C_9  and  C_10
REMARK                            x       y       z     vdW  Elec       q    Type
REMARK                         _______ _______ _______ _____ _____    ______ ____
ROOT
ATOM      1  O   UNL     1      48.372   8.252  16.882  0.00  0.00    +0.000 OA
ATOM      2  C   UNL     1      48.679   7.148  16.452  0.00  0.00    +0.000 C 
ATOM      3  N   UNL     1      48.356   6.689  15.192  0.00  0.00    +0.000 N 
ATOM      4  H   UNL     1      48.809   5.845  14.873  0.00  0.00    +0.000 HD
ENDROOT
BRANCH   2   5
ATOM      5  C   UNL     1      49.606   6.247  17.124  0.00  0.00    +0.000 A 
ATOM      6  C   UNL     1      50.831   6.668  17.610  0.00  0.00    +0.000 A 
ATOM      7  S   UNL     1      51.899   5.349  17.869  0.00  0.00    +0.000 S 
ATOM      8  C   UNL     1      50.695   4.214  17.453  0.00  0.00    +0.000 A 
ATOM      9  N   UNL     1      50.958   2.887  17.322  0.00  0.00    +0.000 NA
ATOM     10  C   UNL     1      49.917   2.166  17.046  0.00  0.00    +0.000 A 
ATOM     11  N   UNL     1      48.636   2.642  16.935  0.00  0.00    +0.000 N 
ATOM     12  C   UNL     1      48.316   3.976  17.065  0.00  0.00    +0.000 A 
ATOM     13  O   UNL     1      47.165   4.379  17.025  0.00  0.00    +0.000 OA
ATOM     14  C   UNL     1      49.476   4.827  17.258  0.00  0.00    +0.000 A 
ATOM     15  H   UNL     1      47.857   2.016  16.795  0.00  0.00    +0.000 HD
ENDBRANCH   2   5
BRANCH   3  16
ATOM     16  C   UNL     1      47.815   7.553  14.184  0.00  0.00    +0.000 C 
BRANCH  16  17
ATOM     17  C   UNL     1      46.989   6.767  13.209  0.00  0.00    +0.000 A 
ATOM     18  C   UNL     1      46.457   7.357  12.069  0.00  0.00    +0.000 A 
ATOM     19  N   UNL     1      45.671   6.711  11.177  0.00  0.00    +0.000 NA
ATOM     20  C   UNL     1      45.390   5.397  11.409  0.00  0.00    +0.000 A 
ATOM     21  C   UNL     1      45.947   4.706  12.488  0.00  0.00    +0.000 A 
ATOM     22 CL   UNL     1      45.655   3.034  12.787  0.00  0.00    +0.000 Cl
ATOM     23  C   UNL     1      46.755   5.402  13.389  0.00  0.00    +0.000 A 
BRANCH  20  24
ATOM     24  C   UNL     1      44.415   4.760  10.442  0.00  0.00    +0.000 C 
BRANCH  24  25
ATOM     25  C   UNL     1      45.064   3.946   9.365  0.00  0.00    +0.000 A 
ATOM     26  C   UNL     1      45.070   2.565   9.372  0.00  0.00    +0.000 A 
ATOM     27  N   UNL     1      45.681   1.813   8.435  0.00  0.00    +0.000 NA
ATOM     28  C   UNL     1      46.300   2.492   7.458  0.00  0.00    +0.000 A 
ATOM     29  N   UNL     1      46.350   3.826   7.333  0.00  0.00    +0.000 NA
ATOM     30  C   UNL     1      45.726   4.526   8.301  0.00  0.00    +0.000 A 
ENDBRANCH  24  25
ENDBRANCH  20  24
ENDBRANCH  16  17
ENDBRANCH   3  16
TORSDOF 5
ENDMDL
MODEL 6
REMARK VINA RESULT:    -7.374      2.186      2.958
REMARK INTER + INTRA:         -10.348
REMARK INTER:                  -9.287
REMARK INTRA:                  -1.060
REMARK UNBOUND:                -0.818
REMARK  Name = 
REMARK  5 active torsions:
REMARK  status: ('A' for Active; 'I' for Inactive)
REMARK    1  A    between atoms: C_2  and  C_19
REMARK    2  A    between atoms: N_3  and  C_4
REMARK    3  A    between atoms: C_4  and  C_5
REMARK    4  A    between atoms: C_8  and  C_9
REMARK    5  A    between atoms: C_9  and  C_10
REMARK                            x       y       z     vdW  Elec       q    Type
REMARK                         _______ _______ _______ _____ _____    ______ ____
ROOT
ATOM      1  O   UNL     1      46.767   3.757  17.224  0.00  0.00    +0.000 OA
ATOM      2  C   UNL     1      47.696   3.804  16.428  0.00  0.00    +0.000 C 
ATOM      3  N   UNL     1      47.631   4.421  15.196  0.00  0.00    +0.000 N 
ATOM      4  H   UNL     1      48.498   4.560  14.698  0.00  0.00    +0.000 HD
ENDROOT
BRANCH   2   5
ATOM      5  C   UNL     1      49.058   3.404  16.750  0.00  0.00    +0.000 A 
ATOM      6  C   UNL     1      49.490   2.092  16.656  0.00  0.00    +0.000 A 
ATOM      7  S   UNL     1      50.924   1.828  17.562  0.00  0.00    +0.000 S 
ATOM      8  C   UNL     1      51.037   3.479  17.978  0.00  0.00    +0.000 A 
ATOM      9  N   UNL     1      51.957   3.948  18.862  0.00  0.00    +0.000 NA
ATOM     10  C   UNL     1      51.929   5.233  19.025  0.00  0.00    +0.000 A 
ATOM     11  N   UNL     1      51.101   6.094  18.352  0.00  0.00    +0.000 N 
ATOM     12  C   UNL     1      50.157   5.671  17.442  0.00  0.00    +0.000 A 
ATOM     13  O   UNL     1      49.467   6.451  16.805  0.00  0.00    +0.000 OA
ATOM     14  C   UNL     1      50.081   4.226  17.324  0.00  0.00    +0.000 A 
ATOM     15  H   UNL     1      51.182   7.093  18.467  0.00  0.00    +0.000 HD
ENDBRANCH   2   5
BRANCH   3  16
ATOM     16  C   UNL     1      46.529   5.260  14.823  0.00  0.00    +0.000 C 
BRANCH  16  17
ATOM     17  C   UNL     1      45.818   4.690  13.631  0.00  0.00    +0.000 A 
ATOM     18  C   UNL     1      46.136   3.435  13.128  0.00  0.00    +0.000 A 
ATOM     19  N   UNL     1      45.560   2.888  12.032  0.00  0.00    +0.000 NA
ATOM     20  C   UNL     1      44.603   3.614  11.386  0.00  0.00    +0.000 A 
ATOM     21  C   UNL     1      44.166   4.850  11.869  0.00  0.00    +0.000 A 
ATOM     22 CL   UNL     1      42.926   5.773  11.109  0.00  0.00    +0.000 Cl
ATOM     23  C   UNL     1      44.780   5.385  13.003  0.00  0.00    +0.000 A 
BRANCH  20  24
ATOM     24  C   UNL     1      44.078   3.002  10.105  0.00  0.00    +0.000 C 
BRANCH  24  25
ATOM     25  C   UNL     1      45.079   2.959   8.992  0.00  0.00    +0.000 A 
ATOM     26  C   UNL     1      45.707   1.794   8.595  0.00  0.00    +0.000 A 
ATOM     27  N   UNL     1      46.640   1.738   7.625  0.00  0.00    +0.000 NA
ATOM     28  C   UNL     1      46.936   2.906   7.035  0.00  0.00    +0.000 A 
ATOM     29  N   UNL     1      46.387   4.095   7.319  0.00  0.00    +0.000 NA
ATOM     30  C   UNL     1      45.464   4.092   8.302  0.00  0.00    +0.000 A 
ENDBRANCH  24  25
ENDBRANCH  20  24
ENDBRANCH  16  17
ENDBRANCH   3  16
TORSDOF 5
ENDMDL
MODEL 7
REMARK VINA RESULT:    -7.116      2.930      3.681
REMARK INTER + INTRA:         -10.014
REMARK INTER:                  -8.955
REMARK INTRA:                  -1.059
REMARK UNBOUND:                -0.818
REMARK  Name = 
REMARK  5 active torsions:
REMARK  status: ('A' for Active; 'I' for Inactive)
REMARK    1  A    between atoms: C_2  and  C_19
REMARK    2  A    between atoms: N_3  and  C_4
REMARK    3  A    between atoms: C_4  and  C_5
REMARK    4  A    between atoms: C_8  and  C_9
REMARK    5  A    between atoms: C_9  and  C_10
REMARK                            x       y       z     vdW  Elec       q    Type
REMARK                         _______ _______ _______ _____ _____    ______ ____
ROOT
ATOM      1  O   UNL     1      50.151   6.526  15.549  0.00  0.00    +0.000 OA
ATOM      2  C   UNL     1      49.083   7.124  15.512  0.00  0.00    +0.000 C 
ATOM      3  N   UNL     1      47.880   6.542  15.169  0.00  0.00    +0.000 N 
ATOM      4  H   UNL     1      47.039   7.072  15.345  0.00  0.00    +0.000 HD
ENDROOT
BRANCH   2   5
ATOM      5  C   UNL     1      48.893   8.474  16.025  0.00  0.00    +0.000 A 
ATOM      6  C   UNL     1      49.029   9.597  15.228  0.00  0.00    +0.000 A 
ATOM      7  S   UNL     1      49.262  11.016  16.166  0.00  0.00    +0.000 S 
ATOM      8  C   UNL     1      49.060  10.157  17.626  0.00  0.00    +0.000 A 
ATOM      9  N   UNL     1      49.271  10.726  18.843  0.00  0.00    +0.000 NA
ATOM     10  C   UNL     1      49.026   9.940  19.844  0.00  0.00    +0.000 A 
ATOM     11  N   UNL     1      48.547   8.660  19.742  0.00  0.00    +0.000 N 
ATOM     12  C   UNL     1      48.311   8.040  18.534  0.00  0.00    +0.000 A 
ATOM     13  O   UNL     1      47.828   6.922  18.456  0.00  0.00    +0.000 OA
ATOM     14  C   UNL     1      48.687   8.851  17.391  0.00  0.00    +0.000 A 
ATOM     15  H   UNL     1      48.304   8.127  20.563  0.00  0.00    +0.000 HD
ENDBRANCH   2   5
BRANCH   3  16
ATOM     16  C   UNL     1      47.734   5.122  15.037  0.00  0.00    +0.000 C 
BRANCH  16  17
ATOM     17  C   UNL     1      46.750   4.796  13.952  0.00  0.00    +0.000 A 
ATOM     18  C   UNL     1      46.466   3.482  13.601  0.00  0.00    +0.000 A 
ATOM     19  N   UNL     1      45.622   3.128  12.605  0.00  0.00    +0.000 NA
ATOM     20  C   UNL     1      45.007   4.125  11.906  0.00  0.00    +0.000 A 
ATOM     21  C   UNL     1      45.175   5.470  12.243  0.00  0.00    +0.000 A 
ATOM     22 CL   UNL     1      44.379   6.754  11.416  0.00  0.00    +0.000 Cl
ATOM     23  C   UNL     1      46.052   5.801  13.278  0.00  0.00    +0.000 A 
BRANCH  20  24
ATOM     24  C   UNL     1      44.166   3.672  10.731  0.00  0.00    +0.000 C 
BRANCH  24  25
ATOM     25  C   UNL     1      44.952   3.392   9.488  0.00  0.00    +0.000 A 
ATOM     26  C   UNL     1      45.316   2.116   9.104  0.00  0.00    +0.000 A 
ATOM     27  N   UNL     1      46.056   1.843   8.011  0.00  0.00    +0.000 NA
ATOM     28  C   UNL     1      46.430   2.906   7.283  0.00  0.00    +0.000 A 
ATOM     29  N   UNL     1      46.127   4.186   7.542  0.00  0.00    +0.000 NA
ATOM     30  C   UNL     1      45.390   4.399   8.650  0.00  0.00    +0.000 A 
ENDBRANCH  24  25
ENDBRANCH  20  24
ENDBRANCH  16  17
ENDBRANCH   3  16
TORSDOF 5
ENDMDL
MODEL 8
REMARK VINA RESULT:    -6.888      4.022      9.448
REMARK INTER + INTRA:          -9.719
REMARK INTER:                  -9.013
REMARK INTRA:                  -0.706
REMARK UNBOUND:                -0.818
REMARK  Name = 
REMARK  5 active torsions:
REMARK  status: ('A' for Active; 'I' for Inactive)
REMARK    1  A    between atoms: C_2  and  C_19
REMARK    2  A    between atoms: N_3  and  C_4
REMARK    3  A    between atoms: C_4  and  C_5
REMARK    4  A    between atoms: C_8  and  C_9
REMARK    5  A    between atoms: C_9  and  C_10
REMARK                            x       y       z     vdW  Elec       q    Type
REMARK                         _______ _______ _______ _____ _____    ______ ____
ROOT
ATOM      1  O   UNL     1      47.527   2.888  14.447  0.00  0.00    +0.000 OA
ATOM      2  C   UNL     1      47.068   3.995  14.697  0.00  0.00    +0.000 C 
ATOM      3  N   UNL     1      46.760   4.439  15.966  0.00  0.00    +0.000 N 
ATOM      4  H   UNL     1      46.562   5.422  16.081  0.00  0.00    +0.000 HD
ENDROOT
BRANCH   2   5
ATOM      5  C   UNL     1      46.979   5.073  13.722  0.00  0.00    +0.000 A 
ATOM      6  C   UNL     1      47.865   6.136  13.707  0.00  0.00    +0.000 A 
ATOM      7  S   UNL     1      47.240   7.473  12.829  0.00  0.00    +0.000 S 
ATOM      8  C   UNL     1      45.850   6.597  12.369  0.00  0.00    +0.000 A 
ATOM      9  N   UNL     1      44.807   7.174  11.716  0.00  0.00    +0.000 NA
ATOM     10  C   UNL     1      43.855   6.351  11.405  0.00  0.00    +0.000 A 
ATOM     11  N   UNL     1      43.874   5.000  11.644  0.00  0.00    +0.000 N 
ATOM     12  C   UNL     1      44.909   4.366  12.295  0.00  0.00    +0.000 A 
ATOM     13  O   UNL     1      44.941   3.155  12.448  0.00  0.00    +0.000 OA
ATOM     14  C   UNL     1      45.936   5.278  12.763  0.00  0.00    +0.000 A 
ATOM     15  H   UNL     1      43.135   4.401  11.307  0.00  0.00    +0.000 HD
ENDBRANCH   2   5
BRANCH   3  16
ATOM     16  C   UNL     1      47.158   3.718  17.141  0.00  0.00    +0.000 C 
BRANCH  16  17
ATOM     17  C   UNL     1      48.648   3.769  17.306  0.00  0.00    +0.000 A 
ATOM     18  C   UNL     1      49.316   4.972  17.496  0.00  0.00    +0.000 A 
ATOM     19  N   UNL     1      50.659   5.085  17.609  0.00  0.00    +0.000 NA
ATOM     20  C   UNL     1      51.403   3.944  17.538  0.00  0.00    +0.000 A 
ATOM     21  C   UNL     1      50.808   2.684  17.427  0.00  0.00    +0.000 A 
ATOM     22 CL   UNL     1      51.710   1.217  17.384  0.00  0.00    +0.000 Cl
ATOM     23  C   UNL     1      49.419   2.603  17.315  0.00  0.00    +0.000 A 
BRANCH  20  24
ATOM     24  C   UNL     1      52.904   4.143  17.555  0.00  0.00    +0.000 C 
BRANCH  24  25
ATOM     25  C   UNL     1      53.586   3.555  18.751  0.00  0.00    +0.000 A 
ATOM     26  C   UNL     1      53.256   3.902  20.047  0.00  0.00    +0.000 A 
ATOM     27  N   UNL     1      53.883   3.416  21.136  0.00  0.00    +0.000 NA
ATOM     28  C   UNL     1      54.872   2.543  20.896  0.00  0.00    +0.000 A 
ATOM     29  N   UNL     1      55.274   2.116  19.690  0.00  0.00    +0.000 NA
ATOM     30  C   UNL     1      54.614   2.640  18.637  0.00  0.00    +0.000 A 
ENDBRANCH  24  25
ENDBRANCH  20  24
ENDBRANCH  16  17
ENDBRANCH   3  16
TORSDOF 5
ENDMDL
MODEL 9
REMARK VINA RESULT:    -6.797      4.068      8.612
REMARK INTER + INTRA:          -9.601
REMARK INTER:                  -8.508
REMARK INTRA:                  -1.093
REMARK UNBOUND:                -0.818
REMARK  Name = 
REMARK  5 active torsions:
REMARK  status: ('A' for Active; 'I' for Inactive)
REMARK    1  A    between atoms: C_2  and  C_19
REMARK    2  A    between atoms: N_3  and  C_4
REMARK    3  A    between atoms: C_4  and  C_5
REMARK    4  A    between atoms: C_8  and  C_9
REMARK    5  A    between atoms: C_9  and  C_10
REMARK                            x       y       z     vdW  Elec       q    Type
REMARK                         _______ _______ _______ _____ _____    ______ ____
ROOT
ATOM      1  O   UNL     1      47.531   2.903  14.378  0.00  0.00    +0.000 OA
ATOM      2  C   UNL     1      46.984   3.970  14.627  0.00  0.00    +0.000 C 
ATOM      3  N   UNL     1      46.702   4.419  15.901  0.00  0.00    +0.000 N 
ATOM      4  H   UNL     1      46.419   5.382  16.004  0.00  0.00    +0.000 HD
ENDROOT
BRANCH   2   5
ATOM      5  C   UNL     1      46.744   5.008  13.634  0.00  0.00    +0.000 A 
ATOM      6  C   UNL     1      47.533   6.141  13.538  0.00  0.00    +0.000 A 
ATOM      7  S   UNL     1      46.742   7.393  12.669  0.00  0.00    +0.000 S 
ATOM      8  C   UNL     1      45.408   6.390  12.318  0.00  0.00    +0.000 A 
ATOM      9  N   UNL     1      44.281   6.857  11.718  0.00  0.00    +0.000 NA
ATOM     10  C   UNL     1      43.388   5.948  11.487  0.00  0.00    +0.000 A 
ATOM     11  N   UNL     1      43.536   4.612  11.756  0.00  0.00    +0.000 N 
ATOM     12  C   UNL     1      44.660   4.087  12.356  0.00  0.00    +0.000 A 
ATOM     13  O   UNL     1      44.806   2.888  12.536  0.00  0.00    +0.000 OA
ATOM     14  C   UNL     1      45.631   5.096  12.737  0.00  0.00    +0.000 A 
ATOM     15  H   UNL     1      42.833   3.943  11.480  0.00  0.00    +0.000 HD
ENDBRANCH   2   5
BRANCH   3  16
ATOM     16  C   UNL     1      47.226   3.770  17.068  0.00  0.00    +0.000 C 
BRANCH  16  17
ATOM     17  C   UNL     1      48.584   4.314  17.404  0.00  0.00    +0.000 A 
ATOM     18  C   UNL     1      48.781   5.665  17.656  0.00  0.00    +0.000 A 
ATOM     19  N   UNL     1      49.987   6.220  17.922  0.00  0.00    +0.000 NA
ATOM     20  C   UNL     1      51.074   5.397  17.949  0.00  0.00    +0.000 A 
ATOM     21  C   UNL     1      50.955   4.015  17.784  0.00  0.00    +0.000 A 
ATOM     22 CL   UNL     1      52.297   2.938  17.860  0.00  0.00    +0.000 Cl
ATOM     23  C   UNL     1      49.696   3.475  17.513  0.00  0.00    +0.000 A 
BRANCH  20  24
ATOM     24  C   UNL     1      52.408   6.089  18.136  0.00  0.00    +0.000 C 
BRANCH  24  25
ATOM     25  C   UNL     1      53.148   6.346  16.861  0.00  0.00    +0.000 A 
ATOM     26  C   UNL     1      54.310   5.679  16.522  0.00  0.00    +0.000 A 
ATOM     27  N   UNL     1      55.014   5.922  15.400  0.00  0.00    +0.000 NA
ATOM     28  C   UNL     1      54.514   6.869  14.593  0.00  0.00    +0.000 A 
ATOM     29  N   UNL     1      53.391   7.571  14.802  0.00  0.00    +0.000 NA
ATOM     30  C   UNL     1      52.731   7.290  15.943  0.00  0.00    +0.000 A 
ENDBRANCH  24  25
ENDBRANCH  20  24
ENDBRANCH  16  17
ENDBRANCH   3  16
TORSDOF 5
ENDMDL
