MODEL 1
REMARK VINA RESULT:    -8.443      0.000      0.000
REMARK INTER + INTRA:         -12.797
REMARK INTER:                 -11.897
REMARK INTRA:                  -0.899
REMARK UNBOUND:                -0.899
REMARK  Name = 
REMARK  9 active torsions:
REMARK  status: ('A' for Active; 'I' for Inactive)
REMARK    1  A    between atoms: C_1  and  O_2
REMARK    2  A    between atoms: O_2  and  C_3
REMARK    3  A    between atoms: C_10  and  C_11
REMARK    4  A    between atoms: N_13  and  C_14
REMARK    5  A    between atoms: C_14  and  C_15
REMARK    6  A    between atoms: C_18  and  N_19
REMARK    7  A    between atoms: N_19  and  C_20
REMARK    8  A    between atoms: C_20  and  C_21
REMARK    9  A    between atoms: C_25  and  C_26
REMARK                            x       y       z     vdW  Elec       q    Type
REMARK                         _______ _______ _______ _____ _____    ______ ____
ROOT
ATOM      1  C   UNL     1      46.164   8.017  12.936  0.00  0.00    +0.000 A 
ATOM      2  C   UNL     1      45.798   6.709  13.270  0.00  0.00    +0.000 A 
ATOM      3  C   UNL     1      44.845   6.010  12.528  0.00  0.00    +0.000 A 
ATOM      4  C   UNL     1      44.205   6.600  11.439  0.00  0.00    +0.000 A 
ATOM      5  C   UNL     1      44.529   7.936  11.147  0.00  0.00    +0.000 A 
ATOM      6  C   UNL     1      45.503   8.635  11.872  0.00  0.00    +0.000 A 
ENDROOT
BRANCH   4   7
ATOM      7  N   UNL     1      43.206   5.983  10.683  0.00  0.00    +0.000 N 
ATOM      8  H   UNL     1      42.683   6.691  10.171  0.00  0.00    +0.000 HD
BRANCH   7   9
ATOM      9  C   UNL     1      43.472   4.786   9.900  0.00  0.00    +0.000 C 
BRANCH   9  10
ATOM     10  C   UNL     1      44.945   4.339   9.986  0.00  0.00    +0.000 C 
ATOM     11  C   UNL     1      45.818   4.743   8.789  0.00  0.00    +0.000 C 
ATOM     12  C   UNL     1      45.766   3.771   7.606  0.00  0.00    +0.000 C 
ATOM     13  N   UNL     1      45.954   2.386   8.043  0.00  0.00    +0.000 N 
ATOM     14  C   UNL     1      46.835   1.460   7.521  0.00  0.00    +0.000 C 
ATOM     15  C   UNL     1      47.808   1.857   6.444  0.00  0.00    +0.000 C 
ATOM     16  O   UNL     1      46.874   0.291   7.927  0.00  0.00    +0.000 OA
ATOM     17  C   UNL     1      44.996   1.950   9.063  0.00  0.00    +0.000 C 
ATOM     18  C   UNL     1      45.091   2.840  10.298  0.00  0.00    +0.000 C 
ENDBRANCH   9  10
ENDBRANCH   7   9
ENDBRANCH   4   7
BRANCH   1  19
ATOM     19  C   UNL     1      47.299   8.688  13.668  0.00  0.00    +0.000 C 
BRANCH  19  22
ATOM     20  C   UNL     1      48.734   6.989  14.760  0.00  0.00    +0.000 C 
ATOM     21  O   UNL     1      49.316   6.724  13.711  0.00  0.00    +0.000 OA
ATOM     22  N   UNL     1      47.737   7.929  14.824  0.00  0.00    +0.000 N 
ATOM     23  H   UNL     1      47.183   8.001  15.665  0.00  0.00    +0.000 HD
BRANCH  20  31
ATOM     24  C   UNL     1      47.518   4.190  16.383  0.00  0.00    +0.000 A 
ATOM     25  N   UNL     1      47.271   3.158  17.218  0.00  0.00    +0.000 NA
ATOM     26  C   UNL     1      48.046   3.012  18.296  0.00  0.00    +0.000 A 
ATOM     27  N   UNL     1      49.058   3.791  18.660  0.00  0.00    +0.000 NA
ATOM     28  C   UNL     1      49.267   4.810  17.812  0.00  0.00    +0.000 A 
ATOM     29  S   UNL     1      50.525   5.902  18.131  0.00  0.00    +0.000 S 
ATOM     30  C   UNL     1      50.163   6.793  16.736  0.00  0.00    +0.000 A 
ATOM     31  C   UNL     1      49.100   6.283  15.997  0.00  0.00    +0.000 A 
ATOM     32  C   UNL     1      48.556   5.098  16.648  0.00  0.00    +0.000 A 
BRANCH  24  34
ATOM     33  C   UNL     1      47.198   3.531  14.159  0.00  0.00    +0.000 C 
ATOM     34  O   UNL     1      46.727   4.317  15.255  0.00  0.00    +0.000 OA
ENDBRANCH  24  34
ENDBRANCH  20  31
ENDBRANCH  19  22
ENDBRANCH   1  19
TORSDOF 7
ENDMDL
MODEL 2
REMARK VINA RESULT:    -7.707      2.051      2.791
REMARK INTER + INTRA:         -11.761
REMARK INTER:                 -10.766
REMARK INTRA:                  -0.995
REMARK UNBOUND:                -0.899
REMARK  Name = 
REMARK  9 active torsions:
REMARK  status: ('A' for Active; 'I' for Inactive)
REMARK    1  A    between atoms: C_1  and  O_2
REMARK    2  A    between atoms: O_2  and  C_3
REMARK    3  A    between atoms: C_10  and  C_11
REMARK    4  A    between atoms: N_13  and  C_14
REMARK    5  A    between atoms: C_14  and  C_15
REMARK    6  A    between atoms: C_18  and  N_19
REMARK    7  A    between atoms: N_19  and  C_20
REMARK    8  A    between atoms: C_20  and  C_21
REMARK    9  A    between atoms: C_25  and  C_26
REMARK                            x       y       z     vdW  Elec       q    Type
REMARK                         _______ _______ _______ _____ _____    ______ ____
ROOT
ATOM      1  C   UNL     1      46.677   7.683  13.058  0.00  0.00    +0.000 A 
ATOM      2  C   UNL     1      45.987   8.402  12.077  0.00  0.00    +0.000 A 
ATOM      3  C   UNL     1      44.886   7.853  11.416  0.00  0.00    +0.000 A 
ATOM      4  C   UNL     1      44.451   6.559  11.694  0.00  0.00    +0.000 A 
ATOM      5  C   UNL     1      45.187   5.818  12.633  0.00  0.00    +0.000 A 
ATOM      6  C   UNL     1      46.277   6.371  13.319  0.00  0.00    +0.000 A 
ENDROOT
BRANCH   4   7
ATOM      7  N   UNL     1      43.393   5.926  11.037  0.00  0.00    +0.000 N 
ATOM      8  H   UNL     1      42.712   6.622  10.740  0.00  0.00    +0.000 HD
BRANCH   7   9
ATOM      9  C   UNL     1      43.625   4.888  10.043  0.00  0.00    +0.000 C 
BRANCH   9  10
ATOM     10  C   UNL     1      45.078   4.374  10.055  0.00  0.00    +0.000 C 
ATOM     11  C   UNL     1      45.909   4.745   8.817  0.00  0.00    +0.000 C 
ATOM     12  C   UNL     1      45.754   3.782   7.634  0.00  0.00    +0.000 C 
ATOM     13  N   UNL     1      45.899   2.388   8.056  0.00  0.00    +0.000 N 
ATOM     14  C   UNL     1      46.709   1.426   7.488  0.00  0.00    +0.000 C 
ATOM     15  C   UNL     1      47.646   1.784   6.365  0.00  0.00    +0.000 C 
ATOM     16  O   UNL     1      46.715   0.254   7.887  0.00  0.00    +0.000 OA
ATOM     17  C   UNL     1      44.974   1.990   9.121  0.00  0.00    +0.000 C 
ATOM     18  C   UNL     1      45.170   2.868  10.353  0.00  0.00    +0.000 C 
ENDBRANCH   9  10
ENDBRANCH   7   9
ENDBRANCH   4   7
BRANCH   1  19
ATOM     19  C   UNL     1      47.767   8.358  13.853  0.00  0.00    +0.000 C 
BRANCH  19  22
ATOM     20  C   UNL     1      48.936   7.113  15.649  0.00  0.00    +0.000 C 
ATOM     21  O   UNL     1      49.884   6.837  14.919  0.00  0.00    +0.000 OA
ATOM     22  N   UNL     1      47.863   7.845  15.206  0.00  0.00    +0.000 N 
ATOM     23  H   UNL     1      47.041   7.914  15.789  0.00  0.00    +0.000 HD
BRANCH  20  31
ATOM     24  C   UNL     1      47.942   8.521  18.645  0.00  0.00    +0.000 A 
ATOM     25  N   UNL     1      47.643   8.796  19.933  0.00  0.00    +0.000 NA
ATOM     26  C   UNL     1      47.874   7.859  20.855  0.00  0.00    +0.000 A 
ATOM     27  N   UNL     1      48.387   6.652  20.651  0.00  0.00    +0.000 NA
ATOM     28  C   UNL     1      48.681   6.417  19.364  0.00  0.00    +0.000 A 
ATOM     29  S   UNL     1      49.345   4.918  18.929  0.00  0.00    +0.000 S 
ATOM     30  C   UNL     1      49.414   5.371  17.298  0.00  0.00    +0.000 A 
ATOM     31  C   UNL     1      48.929   6.650  17.044  0.00  0.00    +0.000 A 
ATOM     32  C   UNL     1      48.497   7.281  18.285  0.00  0.00    +0.000 A 
BRANCH  24  34
ATOM     33  C   UNL     1      48.724  10.450  17.572  0.00  0.00    +0.000 C 
ATOM     34  O   UNL     1      47.674   9.488  17.693  0.00  0.00    +0.000 OA
ENDBRANCH  24  34
ENDBRANCH  20  31
ENDBRANCH  19  22
ENDBRANCH   1  19
TORSDOF 7
ENDMDL
MODEL 3
REMARK VINA RESULT:    -7.568      1.785      2.375
REMARK INTER + INTRA:         -11.564
REMARK INTER:                 -10.277
REMARK INTRA:                  -1.287
REMARK UNBOUND:                -0.899
REMARK  Name = 
REMARK  9 active torsions:
REMARK  status: ('A' for Active; 'I' for Inactive)
REMARK    1  A    between atoms: C_1  and  O_2
REMARK    2  A    between atoms: O_2  and  C_3
REMARK    3  A    between atoms: C_10  and  C_11
REMARK    4  A    between atoms: N_13  and  C_14
REMARK    5  A    between atoms: C_14  and  C_15
REMARK    6  A    between atoms: C_18  and  N_19
REMARK    7  A    between atoms: N_19  and  C_20
REMARK    8  A    between atoms: C_20  and  C_21
REMARK    9  A    between atoms: C_25  and  C_26
REMARK                            x       y       z     vdW  Elec       q    Type
REMARK                         _______ _______ _______ _____ _____    ______ ____
ROOT
ATOM      1  C   UNL     1      47.177   7.014  13.297  0.00  0.00    +0.000 A 
ATOM      2  C   UNL     1      46.002   7.574  12.786  0.00  0.00    +0.000 A 
ATOM      3  C   UNL     1      44.957   6.772  12.324  0.00  0.00    +0.000 A 
ATOM      4  C   UNL     1      45.056   5.382  12.335  0.00  0.00    +0.000 A 
ATOM      5  C   UNL     1      46.264   4.825  12.789  0.00  0.00    +0.000 A 
ATOM      6  C   UNL     1      47.307   5.623  13.278  0.00  0.00    +0.000 A 
ENDROOT
BRANCH   4   7
ATOM      7  N   UNL     1      44.076   4.518  11.842  0.00  0.00    +0.000 N 
ATOM      8  H   UNL     1      43.440   5.035  11.239  0.00  0.00    +0.000 HD
BRANCH   7   9
ATOM      9  C   UNL     1      44.412   3.199  11.327  0.00  0.00    +0.000 C 
BRANCH   9  10
ATOM     10  C   UNL     1      44.026   3.029   9.844  0.00  0.00    +0.000 C 
ATOM     11  C   UNL     1      44.574   1.761   9.170  0.00  0.00    +0.000 C 
ATOM     12  C   UNL     1      45.995   1.901   8.612  0.00  0.00    +0.000 C 
ATOM     13  N   UNL     1      46.137   3.115   7.807  0.00  0.00    +0.000 N 
ATOM     14  C   UNL     1      46.664   3.214   6.535  0.00  0.00    +0.000 C 
ATOM     15  C   UNL     1      47.080   1.978   5.784  0.00  0.00    +0.000 C 
ATOM     16  O   UNL     1      46.793   4.304   5.961  0.00  0.00    +0.000 OA
ATOM     17  C   UNL     1      45.780   4.346   8.519  0.00  0.00    +0.000 C 
ATOM     18  C   UNL     1      44.335   4.281   9.005  0.00  0.00    +0.000 C 
ENDBRANCH   9  10
ENDBRANCH   7   9
ENDBRANCH   4   7
BRANCH   1  19
ATOM     19  C   UNL     1      48.222   7.904  13.920  0.00  0.00    +0.000 C 
BRANCH  19  22
ATOM     20  C   UNL     1      49.296   7.191  16.036  0.00  0.00    +0.000 C 
ATOM     21  O   UNL     1      50.261   6.707  15.450  0.00  0.00    +0.000 OA
ATOM     22  N   UNL     1      48.258   7.788  15.365  0.00  0.00    +0.000 N 
ATOM     23  H   UNL     1      47.419   8.030  15.873  0.00  0.00    +0.000 HD
BRANCH  20  31
ATOM     24  C   UNL     1      48.790   4.652  18.325  0.00  0.00    +0.000 A 
ATOM     25  N   UNL     1      48.627   3.889  19.428  0.00  0.00    +0.000 NA
ATOM     26  C   UNL     1      48.697   4.476  20.625  0.00  0.00    +0.000 A 
ATOM     27  N   UNL     1      48.907   5.764  20.868  0.00  0.00    +0.000 NA
ATOM     28  C   UNL     1      49.053   6.492  19.751  0.00  0.00    +0.000 A 
ATOM     29  S   UNL     1      49.329   8.161  19.884  0.00  0.00    +0.000 S 
ATOM     30  C   UNL     1      49.399   8.328  18.200  0.00  0.00    +0.000 A 
ATOM     31  C   UNL     1      49.230   7.135  17.504  0.00  0.00    +0.000 A 
ATOM     32  C   UNL     1      49.013   6.035  18.434  0.00  0.00    +0.000 A 
BRANCH  24  34
ATOM     33  C   UNL     1      47.408   3.862  16.608  0.00  0.00    +0.000 C 
ATOM     34  O   UNL     1      48.742   4.030  17.091  0.00  0.00    +0.000 OA
ENDBRANCH  24  34
ENDBRANCH  20  31
ENDBRANCH  19  22
ENDBRANCH   1  19
TORSDOF 7
ENDMDL
MODEL 4
REMARK VINA RESULT:    -7.256      1.960      2.856
REMARK INTER + INTRA:         -11.125
REMARK INTER:                  -9.782
REMARK INTRA:                  -1.343
REMARK UNBOUND:                -0.899
REMARK  Name = 
REMARK  9 active torsions:
REMARK  status: ('A' for Active; 'I' for Inactive)
REMARK    1  A    between atoms: C_1  and  O_2
REMARK    2  A    between atoms: O_2  and  C_3
REMARK    3  A    between atoms: C_10  and  C_11
REMARK    4  A    between atoms: N_13  and  C_14
REMARK    5  A    between atoms: C_14  and  C_15
REMARK    6  A    between atoms: C_18  and  N_19
REMARK    7  A    between atoms: N_19  and  C_20
REMARK    8  A    between atoms: C_20  and  C_21
REMARK    9  A    between atoms: C_25  and  C_26
REMARK                            x       y       z     vdW  Elec       q    Type
REMARK                         _______ _______ _______ _____ _____    ______ ____
ROOT
ATOM      1  C   UNL     1      48.185   7.487  12.717  0.00  0.00    +0.000 A 
ATOM      2  C   UNL     1      47.225   8.484  12.518  0.00  0.00    +0.000 A 
ATOM      3  C   UNL     1      45.860   8.198  12.574  0.00  0.00    +0.000 A 
ATOM      4  C   UNL     1      45.404   6.903  12.807  0.00  0.00    +0.000 A 
ATOM      5  C   UNL     1      46.372   5.893  12.941  0.00  0.00    +0.000 A 
ATOM      6  C   UNL     1      47.744   6.176  12.912  0.00  0.00    +0.000 A 
ENDROOT
BRANCH   4   7
ATOM      7  N   UNL     1      44.057   6.532  12.824  0.00  0.00    +0.000 N 
ATOM      8  H   UNL     1      43.582   6.942  12.023  0.00  0.00    +0.000 HD
BRANCH   7   9
ATOM      9  C   UNL     1      43.647   5.162  13.096  0.00  0.00    +0.000 C 
BRANCH   9  10
ATOM     10  C   UNL     1      43.112   4.447  11.839  0.00  0.00    +0.000 C 
ATOM     11  C   UNL     1      43.535   2.976  11.698  0.00  0.00    +0.000 C 
ATOM     12  C   UNL     1      44.899   2.768  11.032  0.00  0.00    +0.000 C 
ATOM     13  N   UNL     1      45.016   3.545   9.796  0.00  0.00    +0.000 N 
ATOM     14  C   UNL     1      45.421   3.086   8.559  0.00  0.00    +0.000 C 
ATOM     15  C   UNL     1      45.706   1.624   8.344  0.00  0.00    +0.000 C 
ATOM     16  O   UNL     1      45.541   3.843   7.586  0.00  0.00    +0.000 OA
ATOM     17  C   UNL     1      44.785   4.982   9.974  0.00  0.00    +0.000 C 
ATOM     18  C   UNL     1      43.393   5.231  10.546  0.00  0.00    +0.000 C 
ENDBRANCH   9  10
ENDBRANCH   7   9
ENDBRANCH   4   7
BRANCH   1  19
ATOM     19  C   UNL     1      49.645   7.857  12.794  0.00  0.00    +0.000 C 
BRANCH  19  22
ATOM     20  C   UNL     1      50.489   8.186  15.100  0.00  0.00    +0.000 C 
ATOM     21  O   UNL     1      50.170   9.372  15.109  0.00  0.00    +0.000 OA
ATOM     22  N   UNL     1      50.273   7.380  14.011  0.00  0.00    +0.000 N 
ATOM     23  H   UNL     1      50.690   6.460  13.990  0.00  0.00    +0.000 HD
BRANCH  20  31
ATOM     24  C   UNL     1      49.860   5.384  17.023  0.00  0.00    +0.000 A 
ATOM     25  N   UNL     1      49.866   4.384  17.931  0.00  0.00    +0.000 NA
ATOM     26  C   UNL     1      50.821   4.377  18.865  0.00  0.00    +0.000 A 
ATOM     27  N   UNL     1      51.793   5.269  19.016  0.00  0.00    +0.000 NA
ATOM     28  C   UNL     1      51.749   6.252  18.103  0.00  0.00    +0.000 A 
ATOM     29  S   UNL     1      52.922   7.477  18.154  0.00  0.00    +0.000 S 
ATOM     30  C   UNL     1      52.241   8.245  16.806  0.00  0.00    +0.000 A 
ATOM     31  C   UNL     1      51.129   7.593  16.284  0.00  0.00    +0.000 A 
ATOM     32  C   UNL     1      50.828   6.402  17.067  0.00  0.00    +0.000 A 
BRANCH  24  34
ATOM     33  C   UNL     1      47.751   4.575  16.407  0.00  0.00    +0.000 C 
ATOM     34  O   UNL     1      48.883   5.368  16.044  0.00  0.00    +0.000 OA
ENDBRANCH  24  34
ENDBRANCH  20  31
ENDBRANCH  19  22
ENDBRANCH   1  19
TORSDOF 7
ENDMDL
MODEL 5
REMARK VINA RESULT:    -6.933      1.891      2.395
REMARK INTER + INTRA:         -10.669
REMARK INTER:                  -9.458
REMARK INTRA:                  -1.211
REMARK UNBOUND:                -0.899
REMARK  Name = 
REMARK  9 active torsions:
REMARK  status: ('A' for Active; 'I' for Inactive)
REMARK    1  A    between atoms: C_1  and  O_2
REMARK    2  A    between atoms: O_2  and  C_3
REMARK    3  A    between atoms: C_10  and  C_11
REMARK    4  A    between atoms: N_13  and  C_14
REMARK    5  A    between atoms: C_14  and  C_15
REMARK    6  A    between atoms: C_18  and  N_19
REMARK    7  A    between atoms: N_19  and  C_20
REMARK    8  A    between atoms: C_20  and  C_21
REMARK    9  A    between atoms: C_25  and  C_26
REMARK                            x       y       z     vdW  Elec       q    Type
REMARK                         _______ _______ _______ _____ _____    ______ ____
ROOT
ATOM      1  C   UNL     1      47.496   7.289  13.199  0.00  0.00    +0.000 A 
ATOM      2  C   UNL     1      47.589   5.895  13.256  0.00  0.00    +0.000 A 
ATOM      3  C   UNL     1      46.508   5.081  12.912  0.00  0.00    +0.000 A 
ATOM      4  C   UNL     1      45.288   5.630  12.522  0.00  0.00    +0.000 A 
ATOM      5  C   UNL     1      45.179   7.031  12.529  0.00  0.00    +0.000 A 
ATOM      6  C   UNL     1      46.268   7.854  12.848  0.00  0.00    +0.000 A 
ENDROOT
BRANCH   4   7
ATOM      7  N   UNL     1      44.149   4.882  12.215  0.00  0.00    +0.000 N 
ATOM      8  H   UNL     1      43.513   5.447  11.656  0.00  0.00    +0.000 HD
BRANCH   7   9
ATOM      9  C   UNL     1      44.243   3.502  11.761  0.00  0.00    +0.000 C 
BRANCH   9  10
ATOM     10  C   UNL     1      43.832   3.338  10.284  0.00  0.00    +0.000 C 
ATOM     11  C   UNL     1      44.290   2.028   9.624  0.00  0.00    +0.000 C 
ATOM     12  C   UNL     1      45.711   2.066   9.052  0.00  0.00    +0.000 C 
ATOM     13  N   UNL     1      45.925   3.257   8.228  0.00  0.00    +0.000 N 
ATOM     14  C   UNL     1      46.446   3.303   6.951  0.00  0.00    +0.000 C 
ATOM     15  C   UNL     1      46.772   2.032   6.214  0.00  0.00    +0.000 C 
ATOM     16  O   UNL     1      46.641   4.374   6.360  0.00  0.00    +0.000 OA
ATOM     17  C   UNL     1      45.657   4.518   8.926  0.00  0.00    +0.000 C 
ATOM     18  C   UNL     1      44.216   4.555   9.425  0.00  0.00    +0.000 C 
ENDBRANCH   9  10
ENDBRANCH   7   9
ENDBRANCH   4   7
BRANCH   1  19
ATOM     19  C   UNL     1      48.723   8.132  13.436  0.00  0.00    +0.000 C 
BRANCH  19  22
ATOM     20  C   UNL     1      49.801   7.632  15.611  0.00  0.00    +0.000 C 
ATOM     21  O   UNL     1      49.051   8.389  16.221  0.00  0.00    +0.000 OA
ATOM     22  N   UNL     1      49.711   7.453  14.253  0.00  0.00    +0.000 N 
ATOM     23  H   UNL     1      50.442   6.946  13.774  0.00  0.00    +0.000 HD
BRANCH  20  31
ATOM     24  C   UNL     1      49.936   4.500  17.066  0.00  0.00    +0.000 A 
ATOM     25  N   UNL     1      50.281   3.359  17.702  0.00  0.00    +0.000 NA
ATOM     26  C   UNL     1      51.517   3.254  18.196  0.00  0.00    +0.000 A 
ATOM     27  N   UNL     1      52.476   4.171  18.142  0.00  0.00    +0.000 NA
ATOM     28  C   UNL     1      52.094   5.292  17.512  0.00  0.00    +0.000 A 
ATOM     29  S   UNL     1      53.203   6.567  17.355  0.00  0.00    +0.000 S 
ATOM     30  C   UNL     1      52.066   7.511  16.526  0.00  0.00    +0.000 A 
ATOM     31  C   UNL     1      50.838   6.886  16.339  0.00  0.00    +0.000 A 
ATOM     32  C   UNL     1      50.851   5.558  16.940  0.00  0.00    +0.000 A 
BRANCH  24  34
ATOM     33  C   UNL     1      47.896   3.399  16.734  0.00  0.00    +0.000 C 
ATOM     34  O   UNL     1      48.662   4.588  16.534  0.00  0.00    +0.000 OA
ENDBRANCH  24  34
ENDBRANCH  20  31
ENDBRANCH  19  22
ENDBRANCH   1  19
TORSDOF 7
ENDMDL
MODEL 6
REMARK VINA RESULT:    -6.703      3.410      7.892
REMARK INTER + INTRA:         -10.345
REMARK INTER:                  -8.888
REMARK INTRA:                  -1.457
REMARK UNBOUND:                -0.899
REMARK  Name = 
REMARK  9 active torsions:
REMARK  status: ('A' for Active; 'I' for Inactive)
REMARK    1  A    between atoms: C_1  and  O_2
REMARK    2  A    between atoms: O_2  and  C_3
REMARK    3  A    between atoms: C_10  and  C_11
REMARK    4  A    between atoms: N_13  and  C_14
REMARK    5  A    between atoms: C_14  and  C_15
REMARK    6  A    between atoms: C_18  and  N_19
REMARK    7  A    between atoms: N_19  and  C_20
REMARK    8  A    between atoms: C_20  and  C_21
REMARK    9  A    between atoms: C_25  and  C_26
REMARK                            x       y       z     vdW  Elec       q    Type
REMARK                         _______ _______ _______ _____ _____    ______ ____
ROOT
ATOM      1  C   UNL     1      48.533   8.849  14.823  0.00  0.00    +0.000 A 
ATOM      2  C   UNL     1      47.918   9.150  16.042  0.00  0.00    +0.000 A 
ATOM      3  C   UNL     1      48.529   8.841  17.259  0.00  0.00    +0.000 A 
ATOM      4  C   UNL     1      49.765   8.200  17.302  0.00  0.00    +0.000 A 
ATOM      5  C   UNL     1      50.349   7.842  16.075  0.00  0.00    +0.000 A 
ATOM      6  C   UNL     1      49.754   8.172  14.850  0.00  0.00    +0.000 A 
ENDROOT
BRANCH   4   7
ATOM      7  N   UNL     1      50.412   7.813  18.478  0.00  0.00    +0.000 N 
ATOM      8  H   UNL     1      51.252   8.374  18.602  0.00  0.00    +0.000 HD
BRANCH   7   9
ATOM      9  C   UNL     1      49.678   7.595  19.715  0.00  0.00    +0.000 C 
BRANCH   9  10
ATOM     10  C   UNL     1      49.505   6.098  20.041  0.00  0.00    +0.000 C 
ATOM     11  C   UNL     1      50.442   5.152  19.274  0.00  0.00    +0.000 C 
ATOM     12  C   UNL     1      49.934   4.738  17.889  0.00  0.00    +0.000 C 
ATOM     13  N   UNL     1      48.542   4.287  17.941  0.00  0.00    +0.000 N 
ATOM     14  C   UNL     1      48.025   3.121  17.417  0.00  0.00    +0.000 C 
ATOM     15  C   UNL     1      48.932   2.100  16.785  0.00  0.00    +0.000 C 
ATOM     16  O   UNL     1      46.815   2.860  17.465  0.00  0.00    +0.000 OA
ATOM     17  C   UNL     1      47.620   5.273  18.514  0.00  0.00    +0.000 C 
ATOM     18  C   UNL     1      48.041   5.635  19.934  0.00  0.00    +0.000 C 
ENDBRANCH   9  10
ENDBRANCH   7   9
ENDBRANCH   4   7
BRANCH   1  19
ATOM     19  C   UNL     1      47.914   9.326  13.533  0.00  0.00    +0.000 C 
BRANCH  19  22
ATOM     20  C   UNL     1      46.791   7.492  12.302  0.00  0.00    +0.000 C 
ATOM     21  O   UNL     1      47.840   7.127  11.775  0.00  0.00    +0.000 OA
ATOM     22  N   UNL     1      46.740   8.557  13.166  0.00  0.00    +0.000 N 
ATOM     23  H   UNL     1      45.840   8.917  13.450  0.00  0.00    +0.000 HD
BRANCH  20  31
ATOM     24  C   UNL     1      45.702   4.245  12.769  0.00  0.00    +0.000 A 
ATOM     25  N   UNL     1      45.013   3.085  12.824  0.00  0.00    +0.000 NA
ATOM     26  C   UNL     1      43.762   3.064  12.360  0.00  0.00    +0.000 A 
ATOM     27  N   UNL     1      43.094   4.080  11.826  0.00  0.00    +0.000 NA
ATOM     28  C   UNL     1      43.812   5.212  11.778  0.00  0.00    +0.000 A 
ATOM     29  S   UNL     1      43.106   6.609  11.123  0.00  0.00    +0.000 S 
ATOM     30  C   UNL     1      44.516   7.506  11.404  0.00  0.00    +0.000 A 
ATOM     31  C   UNL     1      45.539   6.781  12.006  0.00  0.00    +0.000 A 
ATOM     32  C   UNL     1      45.120   5.401  12.222  0.00  0.00    +0.000 A 
BRANCH  24  34
ATOM     33  C   UNL     1      47.055   4.814  14.593  0.00  0.00    +0.000 C 
ATOM     34  O   UNL     1      46.988   4.264  13.276  0.00  0.00    +0.000 OA
ENDBRANCH  24  34
ENDBRANCH  20  31
ENDBRANCH  19  22
ENDBRANCH   1  19
TORSDOF 7
ENDMDL
MODEL 7
REMARK VINA RESULT:    -6.645      2.833      3.301
REMARK INTER + INTRA:         -10.263
REMARK INTER:                  -9.470
REMARK INTRA:                  -0.793
REMARK UNBOUND:                -0.899
REMARK  Name = 
REMARK  9 active torsions:
REMARK  status: ('A' for Active; 'I' for Inactive)
REMARK    1  A    between atoms: C_1  and  O_2
REMARK    2  A    between atoms: O_2  and  C_3
REMARK    3  A    between atoms: C_10  and  C_11
REMARK    4  A    between atoms: N_13  and  C_14
REMARK    5  A    between atoms: C_14  and  C_15
REMARK    6  A    between atoms: C_18  and  N_19
REMARK    7  A    between atoms: N_19  and  C_20
REMARK    8  A    between atoms: C_20  and  C_21
REMARK    9  A    between atoms: C_25  and  C_26
REMARK                            x       y       z     vdW  Elec       q    Type
REMARK                         _______ _______ _______ _____ _____    ______ ____
ROOT
ATOM      1  C   UNL     1      46.999   7.536  13.320  0.00  0.00    +0.000 A 
ATOM      2  C   UNL     1      47.604   6.324  13.666  0.00  0.00    +0.000 A 
ATOM      3  C   UNL     1      47.141   5.110  13.154  0.00  0.00    +0.000 A 
ATOM      4  C   UNL     1      46.043   5.062  12.297  0.00  0.00    +0.000 A 
ATOM      5  C   UNL     1      45.399   6.276  12.005  0.00  0.00    +0.000 A 
ATOM      6  C   UNL     1      45.874   7.500  12.494  0.00  0.00    +0.000 A 
ENDROOT
BRANCH   4   7
ATOM      7  N   UNL     1      45.491   3.884  11.789  0.00  0.00    +0.000 N 
ATOM      8  H   UNL     1      45.872   3.086  12.292  0.00  0.00    +0.000 HD
BRANCH   7   9
ATOM      9  C   UNL     1      44.067   3.765  11.516  0.00  0.00    +0.000 C 
BRANCH   9  10
ATOM     10  C   UNL     1      43.775   3.413  10.043  0.00  0.00    +0.000 C 
ATOM     11  C   UNL     1      44.351   2.070   9.569  0.00  0.00    +0.000 C 
ATOM     12  C   UNL     1      45.806   2.134   9.092  0.00  0.00    +0.000 C 
ATOM     13  N   UNL     1      46.014   3.239   8.153  0.00  0.00    +0.000 N 
ATOM     14  C   UNL     1      46.623   3.177   6.917  0.00  0.00    +0.000 C 
ATOM     15  C   UNL     1      47.072   1.856   6.353  0.00  0.00    +0.000 C 
ATOM     16  O   UNL     1      46.801   4.186   6.222  0.00  0.00    +0.000 OA
ATOM     17  C   UNL     1      45.626   4.549   8.684  0.00  0.00    +0.000 C 
ATOM     18  C   UNL     1      44.152   4.550   9.078  0.00  0.00    +0.000 C 
ENDBRANCH   9  10
ENDBRANCH   7   9
ENDBRANCH   4   7
BRANCH   1  19
ATOM     19  C   UNL     1      47.614   8.836  13.775  0.00  0.00    +0.000 C 
BRANCH  19  22
ATOM     20  C   UNL     1      48.389   9.005  16.122  0.00  0.00    +0.000 C 
ATOM     21  O   UNL     1      49.541   8.697  15.824  0.00  0.00    +0.000 OA
ATOM     22  N   UNL     1      47.390   9.090  15.185  0.00  0.00    +0.000 N 
ATOM     23  H   UNL     1      46.434   9.191  15.493  0.00  0.00    +0.000 HD
BRANCH  20  31
ATOM     24  C   UNL     1      47.865   7.041  18.917  0.00  0.00    +0.000 A 
ATOM     25  N   UNL     1      47.617   6.549  20.150  0.00  0.00    +0.000 NA
ATOM     26  C   UNL     1      47.356   7.407  21.139  0.00  0.00    +0.000 A 
ATOM     27  N   UNL     1      47.304   8.731  21.050  0.00  0.00    +0.000 NA
ATOM     28  C   UNL     1      47.545   9.183  19.811  0.00  0.00    +0.000 A 
ATOM     29  S   UNL     1      47.516  10.855  19.523  0.00  0.00    +0.000 S 
ATOM     30  C   UNL     1      47.885  10.624  17.885  0.00  0.00    +0.000 A 
ATOM     31  C   UNL     1      48.049   9.291  17.523  0.00  0.00    +0.000 A 
ATOM     32  C   UNL     1      47.836   8.425  18.677  0.00  0.00    +0.000 A 
BRANCH  24  34
ATOM     33  C   UNL     1      48.747   4.937  18.392  0.00  0.00    +0.000 C 
ATOM     34  O   UNL     1      48.159   6.145  17.906  0.00  0.00    +0.000 OA
ENDBRANCH  24  34
ENDBRANCH  20  31
ENDBRANCH  19  22
ENDBRANCH   1  19
TORSDOF 7
ENDMDL
MODEL 8
REMARK VINA RESULT:    -6.331      3.200      5.075
REMARK INTER + INTRA:          -9.821
REMARK INTER:                  -8.412
REMARK INTRA:                  -1.409
REMARK UNBOUND:                -0.899
REMARK  Name = 
REMARK  9 active torsions:
REMARK  status: ('A' for Active; 'I' for Inactive)
REMARK    1  A    between atoms: C_1  and  O_2
REMARK    2  A    between atoms: O_2  and  C_3
REMARK    3  A    between atoms: C_10  and  C_11
REMARK    4  A    between atoms: N_13  and  C_14
REMARK    5  A    between atoms: C_14  and  C_15
REMARK    6  A    between atoms: C_18  and  N_19
REMARK    7  A    between atoms: N_19  and  C_20
REMARK    8  A    between atoms: C_20  and  C_21
REMARK    9  A    between atoms: C_25  and  C_26
REMARK                            x       y       z     vdW  Elec       q    Type
REMARK                         _______ _______ _______ _____ _____    ______ ____
ROOT
ATOM      1  C   UNL     1      50.169   8.716  16.681  0.00  0.00    +0.000 A 
ATOM      2  C   UNL     1      50.783   9.016  15.461  0.00  0.00    +0.000 A 
ATOM      3  C   UNL     1      50.031   9.264  14.311  0.00  0.00    +0.000 A 
ATOM      4  C   UNL     1      48.640   9.198  14.333  0.00  0.00    +0.000 A 
ATOM      5  C   UNL     1      48.030   8.832  15.545  0.00  0.00    +0.000 A 
ATOM      6  C   UNL     1      48.777   8.608  16.709  0.00  0.00    +0.000 A 
ENDROOT
BRANCH   4   7
ATOM      7  N   UNL     1      47.824   9.382  13.213  0.00  0.00    +0.000 N 
ATOM      8  H   UNL     1      48.389   9.318  12.369  0.00  0.00    +0.000 HD
BRANCH   7   9
ATOM      9  C   UNL     1      46.534   8.720  13.094  0.00  0.00    +0.000 C 
BRANCH   9  10
ATOM     10  C   UNL     1      46.543   7.595  12.040  0.00  0.00    +0.000 C 
ATOM     11  C   UNL     1      45.157   7.175  11.525  0.00  0.00    +0.000 C 
ATOM     12  C   UNL     1      44.446   6.130  12.392  0.00  0.00    +0.000 C 
ATOM     13  N   UNL     1      45.330   5.008  12.712  0.00  0.00    +0.000 N 
ATOM     14  C   UNL     1      45.056   3.663  12.565  0.00  0.00    +0.000 C 
ATOM     15  C   UNL     1      43.768   3.213  11.931  0.00  0.00    +0.000 C 
ATOM     16  O   UNL     1      45.856   2.788  12.922  0.00  0.00    +0.000 OA
ATOM     17  C   UNL     1      46.579   5.405  13.369  0.00  0.00    +0.000 C 
ATOM     18  C   UNL     1      47.362   6.372  12.487  0.00  0.00    +0.000 C 
ENDBRANCH   9  10
ENDBRANCH   7   9
ENDBRANCH   4   7
BRANCH   1  19
ATOM     19  C   UNL     1      51.004   8.598  17.931  0.00  0.00    +0.000 C 
BRANCH  19  22
ATOM     20  C   UNL     1      51.109   6.248  18.711  0.00  0.00    +0.000 C 
ATOM     21  O   UNL     1      50.022   6.327  19.277  0.00  0.00    +0.000 OA
ATOM     22  N   UNL     1      51.661   7.309  18.037  0.00  0.00    +0.000 N 
ATOM     23  H   UNL     1      52.619   7.248  17.724  0.00  0.00    +0.000 HD
BRANCH  20  31
ATOM     24  C   UNL     1      50.569   3.087  17.423  0.00  0.00    +0.000 A 
ATOM     25  N   UNL     1      50.634   1.790  17.050  0.00  0.00    +0.000 NA
ATOM     26  C   UNL     1      51.701   1.075  17.414  0.00  0.00    +0.000 A 
ATOM     27  N   UNL     1      52.737   1.500  18.127  0.00  0.00    +0.000 NA
ATOM     28  C   UNL     1      52.634   2.788  18.487  0.00  0.00    +0.000 A 
ATOM     29  S   UNL     1      53.876   3.489  19.405  0.00  0.00    +0.000 S 
ATOM     30  C   UNL     1      53.072   4.980  19.435  0.00  0.00    +0.000 A 
ATOM     31  C   UNL     1      51.862   4.986  18.749  0.00  0.00    +0.000 A 
ATOM     32  C   UNL     1      51.595   3.668  18.187  0.00  0.00    +0.000 A 
BRANCH  24  34
ATOM     33  C   UNL     1      48.298   3.532  17.778  0.00  0.00    +0.000 C 
ATOM     34  O   UNL     1      49.472   3.826  17.019  0.00  0.00    +0.000 OA
ENDBRANCH  24  34
ENDBRANCH  20  31
ENDBRANCH  19  22
ENDBRANCH   1  19
TORSDOF 7
ENDMDL
MODEL 9
REMARK VINA RESULT:    -6.281      3.708      8.472
REMARK INTER + INTRA:          -9.750
REMARK INTER:                  -8.151
REMARK INTRA:                  -1.600
REMARK UNBOUND:                -0.899
REMARK  Name = 
REMARK  9 active torsions:
REMARK  status: ('A' for Active; 'I' for Inactive)
REMARK    1  A    between atoms: C_1  and  O_2
REMARK    2  A    between atoms: O_2  and  C_3
REMARK    3  A    between atoms: C_10  and  C_11
REMARK    4  A    between atoms: N_13  and  C_14
REMARK    5  A    between atoms: C_14  and  C_15
REMARK    6  A    between atoms: C_18  and  N_19
REMARK    7  A    between atoms: N_19  and  C_20
REMARK    8  A    between atoms: C_20  and  C_21
REMARK    9  A    between atoms: C_25  and  C_26
REMARK                            x       y       z     vdW  Elec       q    Type
REMARK                         _______ _______ _______ _____ _____    ______ ____
ROOT
ATOM      1  C   UNL     1      49.038   9.096  16.828  0.00  0.00    +0.000 A 
ATOM      2  C   UNL     1      50.433   9.177  16.774  0.00  0.00    +0.000 A 
ATOM      3  C   UNL     1      51.233   8.584  17.752  0.00  0.00    +0.000 A 
ATOM      4  C   UNL     1      50.668   7.908  18.832  0.00  0.00    +0.000 A 
ATOM      5  C   UNL     1      49.265   7.885  18.916  0.00  0.00    +0.000 A 
ATOM      6  C   UNL     1      48.457   8.456  17.924  0.00  0.00    +0.000 A 
ENDROOT
BRANCH   4   7
ATOM      7  N   UNL     1      51.400   7.336  19.875  0.00  0.00    +0.000 N 
ATOM      8  H   UNL     1      50.774   7.108  20.644  0.00  0.00    +0.000 HD
BRANCH   7   9
ATOM      9  C   UNL     1      52.405   6.313  19.629  0.00  0.00    +0.000 C 
BRANCH   9  10
ATOM     10  C   UNL     1      51.913   4.900  20.004  0.00  0.00    +0.000 C 
ATOM     11  C   UNL     1      53.021   3.848  20.168  0.00  0.00    +0.000 C 
ATOM     12  C   UNL     1      53.453   3.170  18.864  0.00  0.00    +0.000 C 
ATOM     13  N   UNL     1      52.298   2.707  18.092  0.00  0.00    +0.000 N 
ATOM     14  C   UNL     1      52.107   1.451  17.553  0.00  0.00    +0.000 C 
ATOM     15  C   UNL     1      53.100   0.350  17.813  0.00  0.00    +0.000 C 
ATOM     16  O   UNL     1      51.115   1.177  16.864  0.00  0.00    +0.000 OA
ATOM     17  C   UNL     1      51.328   3.761  17.785  0.00  0.00    +0.000 C 
ATOM     18  C   UNL     1      50.802   4.393  19.069  0.00  0.00    +0.000 C 
ENDBRANCH   9  10
ENDBRANCH   7   9
ENDBRANCH   4   7
BRANCH   1  19
ATOM     19  C   UNL     1      48.213   9.622  15.680  0.00  0.00    +0.000 C 
BRANCH  19  22
ATOM     20  C   UNL     1      47.373   8.539  13.616  0.00  0.00    +0.000 C 
ATOM     21  O   UNL     1      47.846   9.415  12.896  0.00  0.00    +0.000 OA
ATOM     22  N   UNL     1      47.502   8.568  14.982  0.00  0.00    +0.000 N 
ATOM     23  H   UNL     1      46.968   7.917  15.540  0.00  0.00    +0.000 HD
BRANCH  20  31
ATOM     24  C   UNL     1      47.337   5.124  14.148  0.00  0.00    +0.000 A 
ATOM     25  N   UNL     1      47.106   3.794  14.132  0.00  0.00    +0.000 NA
ATOM     26  C   UNL     1      46.203   3.314  13.274  0.00  0.00    +0.000 A 
ATOM     27  N   UNL     1      45.486   4.011  12.401  0.00  0.00    +0.000 NA
ATOM     28  C   UNL     1      45.749   5.326  12.438  0.00  0.00    +0.000 A 
ATOM     29  S   UNL     1      44.917   6.363  11.383  0.00  0.00    +0.000 S 
ATOM     30  C   UNL     1      45.733   7.714  11.999  0.00  0.00    +0.000 A 
ATOM     31  C   UNL     1      46.636   7.418  13.014  0.00  0.00    +0.000 A 
ATOM     32  C   UNL     1      46.652   5.983  13.272  0.00  0.00    +0.000 A 
BRANCH  24  34
ATOM     33  C   UNL     1      48.085   5.063  16.366  0.00  0.00    +0.000 C 
ATOM     34  O   UNL     1      48.255   5.615  15.059  0.00  0.00    +0.000 OA
ENDBRANCH  24  34
ENDBRANCH  20  31
ENDBRANCH  19  22
ENDBRANCH   1  19
TORSDOF 7
ENDMDL
