MODEL 1
REMARK VINA RESULT:    -7.564      0.000      0.000
REMARK INTER + INTRA:         -11.205
REMARK INTER:                 -10.438
REMARK INTRA:                  -0.767
REMARK UNBOUND:                -0.767
REMARK  Name = 
REMARK  7 active torsions:
REMARK  status: ('A' for Active; 'I' for Inactive)
REMARK    1  A    between atoms: N_1  and  C_2
REMARK    2  A    between atoms: C_2  and  C_3
REMARK    3  A    between atoms: C_3  and  C_4
REMARK    4  A    between atoms: C_7  and  C_8
REMARK    5  A    between atoms: C_8  and  C_9
REMARK    6  A    between atoms: C_9  and  C_10
REMARK    7  A    between atoms: C_13  and  C_14
REMARK                            x       y       z     vdW  Elec       q    Type
REMARK                         _______ _______ _______ _____ _____    ______ ____
ROOT
ATOM      1  C   UNL     1      44.725   5.917  11.072  0.00  0.00    +0.000 C 
ENDROOT
BRANCH   1   5
ATOM      2  C   UNL     1      47.073   5.095  14.554  0.00  0.00    +0.000 A 
ATOM      3  C   UNL     1      47.488   6.122  13.714  0.00  0.00    +0.000 A 
ATOM      4  C   UNL     1      46.741   6.405  12.573  0.00  0.00    +0.000 A 
ATOM      5  C   UNL     1      45.604   5.650  12.271  0.00  0.00    +0.000 A 
ATOM      6  C   UNL     1      45.265   4.650  13.179  0.00  0.00    +0.000 A 
ATOM      7  N   UNL     1      45.972   4.351  14.295  0.00  0.00    +0.000 NA
BRANCH   2   8
ATOM      8  C   UNL     1      47.861   4.759  15.794  0.00  0.00    +0.000 C 
BRANCH   8   9
ATOM      9  C   UNL     1      47.608   3.318  16.240  0.00  0.00    +0.000 C 
BRANCH   9  10
ATOM     10  N   UNL     1      46.664   3.267  17.358  0.00  0.00    +0.000 NA
ATOM     11  H   UNL     1      47.159   3.486  18.222  0.00  0.00    +0.000 HD
ATOM     12  H   UNL     1      46.325   2.311  17.466  0.00  0.00    +0.000 HD
ENDBRANCH   9  10
ENDBRANCH   8   9
ENDBRANCH   2   8
ENDBRANCH   1   5
BRANCH   1  13
ATOM     13  C   UNL     1      44.014   4.678  10.513  0.00  0.00    +0.000 C 
BRANCH  13  14
ATOM     14  C   UNL     1      44.858   3.900   9.539  0.00  0.00    +0.000 A 
ATOM     15  C   UNL     1      44.896   2.504   9.567  0.00  0.00    +0.000 A 
ATOM     16  C   UNL     1      45.715   1.819   8.674  0.00  0.00    +0.000 A 
ATOM     17  C   UNL     1      46.466   2.560   7.772  0.00  0.00    +0.000 A 
ATOM     18  N   UNL     1      46.446   3.922   7.703  0.00  0.00    +0.000 NA
ATOM     19  C   UNL     1      45.642   4.551   8.588  0.00  0.00    +0.000 A 
BRANCH  17  20
ATOM     20  C   UNL     1      47.368   1.859   6.803  0.00  0.00    +0.000 C 
ATOM     21  N   UNL     1      48.394   2.615   6.305  0.00  0.00    +0.000 N 
ATOM     22  O   UNL     1      47.207   0.690   6.474  0.00  0.00    +0.000 OA
ATOM     23  H   UNL     1      48.492   3.579   6.605  0.00  0.00    +0.000 HD
ATOM     24  H   UNL     1      49.042   2.210   5.646  0.00  0.00    +0.000 HD
ENDBRANCH  17  20
ENDBRANCH  13  14
ENDBRANCH   1  13
TORSDOF 7
ENDMDL
MODEL 2
REMARK VINA RESULT:    -7.465      2.666      6.991
REMARK INTER + INTRA:         -11.069
REMARK INTER:                 -10.341
REMARK INTRA:                  -0.728
REMARK UNBOUND:                -0.767
REMARK  Name = 
REMARK  7 active torsions:
REMARK  status: ('A' for Active; 'I' for Inactive)
REMARK    1  A    between atoms: N_1  and  C_2
REMARK    2  A    between atoms: C_2  and  C_3
REMARK    3  A    between atoms: C_3  and  C_4
REMARK    4  A    between atoms: C_7  and  C_8
REMARK    5  A    between atoms: C_8  and  C_9
REMARK    6  A    between atoms: C_9  and  C_10
REMARK    7  A    between atoms: C_13  and  C_14
REMARK                            x       y       z     vdW  Elec       q    Type
REMARK                         _______ _______ _______ _____ _____    ______ ____
ROOT
ATOM      1  C   UNL     1      43.331   3.560  11.194  0.00  0.00    +0.000 C 
ENDROOT
BRANCH   1   5
ATOM      2  C   UNL     1      45.885   3.196   7.780  0.00  0.00    +0.000 A 
ATOM      3  C   UNL     1      45.574   2.041   8.489  0.00  0.00    +0.000 A 
ATOM      4  C   UNL     1      44.747   2.137   9.606  0.00  0.00    +0.000 A 
ATOM      5  C   UNL     1      44.258   3.380  10.015  0.00  0.00    +0.000 A 
ATOM      6  C   UNL     1      44.618   4.475   9.234  0.00  0.00    +0.000 A 
ATOM      7  N   UNL     1      45.420   4.414   8.145  0.00  0.00    +0.000 NA
BRANCH   2   8
ATOM      8  C   UNL     1      46.781   3.128   6.570  0.00  0.00    +0.000 C 
BRANCH   8   9
ATOM      9  C   UNL     1      47.858   2.055   6.735  0.00  0.00    +0.000 C 
BRANCH   9  10
ATOM     10  N   UNL     1      48.546   1.795   5.468  0.00  0.00    +0.000 NA
ATOM     11  H   UNL     1      48.107   2.348   4.732  0.00  0.00    +0.000 HD
ATOM     12  H   UNL     1      48.404   0.819   5.205  0.00  0.00    +0.000 HD
ENDBRANCH   9  10
ENDBRANCH   8   9
ENDBRANCH   2   8
ENDBRANCH   1   5
BRANCH   1  13
ATOM     13  C   UNL     1      43.976   3.290  12.560  0.00  0.00    +0.000 C 
BRANCH  13  14
ATOM     14  C   UNL     1      45.062   4.274  12.906  0.00  0.00    +0.000 A 
ATOM     15  C   UNL     1      44.831   5.650  12.870  0.00  0.00    +0.000 A 
ATOM     16  C   UNL     1      45.870   6.531  13.162  0.00  0.00    +0.000 A 
ATOM     17  C   UNL     1      47.108   5.999  13.492  0.00  0.00    +0.000 A 
ATOM     18  N   UNL     1      47.370   4.662  13.552  0.00  0.00    +0.000 NA
ATOM     19  C   UNL     1      46.339   3.839  13.259  0.00  0.00    +0.000 A 
BRANCH  17  20
ATOM     20  C   UNL     1      48.252   6.915  13.801  0.00  0.00    +0.000 C 
ATOM     21  N   UNL     1      47.962   7.948  14.651  0.00  0.00    +0.000 N 
ATOM     22  O   UNL     1      49.372   6.760  13.330  0.00  0.00    +0.000 OA
ATOM     23  H   UNL     1      47.022   8.039  15.020  0.00  0.00    +0.000 HD
ATOM     24  H   UNL     1      48.683   8.607  14.904  0.00  0.00    +0.000 HD
ENDBRANCH  17  20
ENDBRANCH  13  14
ENDBRANCH   1  13
TORSDOF 7
ENDMDL
MODEL 3
REMARK VINA RESULT:    -7.454      2.351      7.060
REMARK INTER + INTRA:         -11.053
REMARK INTER:                 -10.406
REMARK INTRA:                  -0.647
REMARK UNBOUND:                -0.767
REMARK  Name = 
REMARK  7 active torsions:
REMARK  status: ('A' for Active; 'I' for Inactive)
REMARK    1  A    between atoms: N_1  and  C_2
REMARK    2  A    between atoms: C_2  and  C_3
REMARK    3  A    between atoms: C_3  and  C_4
REMARK    4  A    between atoms: C_7  and  C_8
REMARK    5  A    between atoms: C_8  and  C_9
REMARK    6  A    between atoms: C_9  and  C_10
REMARK    7  A    between atoms: C_13  and  C_14
REMARK                            x       y       z     vdW  Elec       q    Type
REMARK                         _______ _______ _______ _____ _____    ______ ____
ROOT
ATOM      1  C   UNL     1      43.778   4.792  10.307  0.00  0.00    +0.000 C 
ENDROOT
BRANCH   1   5
ATOM      2  C   UNL     1      46.232   2.188   7.961  0.00  0.00    +0.000 A 
ATOM      3  C   UNL     1      46.246   3.545   7.660  0.00  0.00    +0.000 A 
ATOM      4  C   UNL     1      45.451   4.411   8.408  0.00  0.00    +0.000 A 
ATOM      5  C   UNL     1      44.640   3.914   9.432  0.00  0.00    +0.000 A 
ATOM      6  C   UNL     1      44.705   2.542   9.663  0.00  0.00    +0.000 A 
ATOM      7  N   UNL     1      45.465   1.676   8.952  0.00  0.00    +0.000 NA
BRANCH   2   8
ATOM      8  C   UNL     1      47.076   1.224   7.168  0.00  0.00    +0.000 C 
BRANCH   8   9
ATOM      9  C   UNL     1      48.373   1.881   6.692  0.00  0.00    +0.000 C 
BRANCH   9  10
ATOM     10  N   UNL     1      48.425   1.952   5.230  0.00  0.00    +0.000 NA
ATOM     11  H   UNL     1      49.389   1.816   4.925  0.00  0.00    +0.000 HD
ATOM     12  H   UNL     1      48.169   2.894   4.931  0.00  0.00    +0.000 HD
ENDBRANCH   9  10
ENDBRANCH   8   9
ENDBRANCH   2   8
ENDBRANCH   1   5
BRANCH   1  13
ATOM     13  C   UNL     1      44.513   5.981  10.940  0.00  0.00    +0.000 C 
BRANCH  13  14
ATOM     14  C   UNL     1      45.318   5.600  12.154  0.00  0.00    +0.000 A 
ATOM     15  C   UNL     1      46.504   6.263  12.474  0.00  0.00    +0.000 A 
ATOM     16  C   UNL     1      47.241   5.861  13.585  0.00  0.00    +0.000 A 
ATOM     17  C   UNL     1      46.756   4.808  14.347  0.00  0.00    +0.000 A 
ATOM     18  N   UNL     1      45.596   4.144  14.077  0.00  0.00    +0.000 NA
ATOM     19  C   UNL     1      44.910   4.561  12.989  0.00  0.00    +0.000 A 
BRANCH  17  20
ATOM     20  C   UNL     1      47.527   4.339  15.543  0.00  0.00    +0.000 C 
ATOM     21  N   UNL     1      47.671   5.260  16.544  0.00  0.00    +0.000 N 
ATOM     22  O   UNL     1      47.999   3.212  15.627  0.00  0.00    +0.000 OA
ATOM     23  H   UNL     1      47.263   6.182  16.435  0.00  0.00    +0.000 HD
ATOM     24  H   UNL     1      48.180   5.016  17.381  0.00  0.00    +0.000 HD
ENDBRANCH  17  20
ENDBRANCH  13  14
ENDBRANCH   1  13
TORSDOF 7
ENDMDL
MODEL 4
REMARK VINA RESULT:    -7.285      1.561      1.889
REMARK INTER + INTRA:         -10.820
REMARK INTER:                  -9.997
REMARK INTRA:                  -0.823
REMARK UNBOUND:                -0.767
REMARK  Name = 
REMARK  7 active torsions:
REMARK  status: ('A' for Active; 'I' for Inactive)
REMARK    1  A    between atoms: N_1  and  C_2
REMARK    2  A    between atoms: C_2  and  C_3
REMARK    3  A    between atoms: C_3  and  C_4
REMARK    4  A    between atoms: C_7  and  C_8
REMARK    5  A    between atoms: C_8  and  C_9
REMARK    6  A    between atoms: C_9  and  C_10
REMARK    7  A    between atoms: C_13  and  C_14
REMARK                            x       y       z     vdW  Elec       q    Type
REMARK                         _______ _______ _______ _____ _____    ______ ____
ROOT
ATOM      1  C   UNL     1      44.306   3.709  11.979  0.00  0.00    +0.000 C 
ENDROOT
BRANCH   1   5
ATOM      2  C   UNL     1      47.599   6.130  13.244  0.00  0.00    +0.000 A 
ATOM      3  C   UNL     1      46.681   6.687  12.362  0.00  0.00    +0.000 A 
ATOM      4  C   UNL     1      45.603   5.916  11.934  0.00  0.00    +0.000 A 
ATOM      5  C   UNL     1      45.463   4.596  12.372  0.00  0.00    +0.000 A 
ATOM      6  C   UNL     1      46.429   4.134  13.262  0.00  0.00    +0.000 A 
ATOM      7  N   UNL     1      47.488   4.858  13.694  0.00  0.00    +0.000 NA
BRANCH   2   8
ATOM      8  C   UNL     1      48.780   6.936  13.723  0.00  0.00    +0.000 C 
BRANCH   8   9
ATOM      9  C   UNL     1      48.754   7.109  15.243  0.00  0.00    +0.000 C 
BRANCH   9  10
ATOM     10  N   UNL     1      49.665   6.168  15.898  0.00  0.00    +0.000 NA
ATOM     11  H   UNL     1      49.296   5.222  15.798  0.00  0.00    +0.000 HD
ATOM     12  H   UNL     1      49.676   6.357  16.901  0.00  0.00    +0.000 HD
ENDBRANCH   9  10
ENDBRANCH   8   9
ENDBRANCH   2   8
ENDBRANCH   1   5
BRANCH   1  13
ATOM     13  C   UNL     1      43.762   3.957  10.565  0.00  0.00    +0.000 C 
BRANCH  13  14
ATOM     14  C   UNL     1      44.698   3.490   9.482  0.00  0.00    +0.000 A 
ATOM     15  C   UNL     1      45.045   2.144   9.355  0.00  0.00    +0.000 A 
ATOM     16  C   UNL     1      45.940   1.753   8.363  0.00  0.00    +0.000 A 
ATOM     17  C   UNL     1      46.453   2.730   7.521  0.00  0.00    +0.000 A 
ATOM     18  N   UNL     1      46.129   4.052   7.602  0.00  0.00    +0.000 NA
ATOM     19  C   UNL     1      45.259   4.393   8.580  0.00  0.00    +0.000 A 
BRANCH  17  20
ATOM     20  C   UNL     1      47.428   2.349   6.449  0.00  0.00    +0.000 C 
ATOM     21  N   UNL     1      47.343   3.078   5.294  0.00  0.00    +0.000 N 
ATOM     22  O   UNL     1      48.248   1.450   6.587  0.00  0.00    +0.000 OA
ATOM     23  H   UNL     1      46.650   3.816   5.222  0.00  0.00    +0.000 HD
ATOM     24  H   UNL     1      47.967   2.878   4.527  0.00  0.00    +0.000 HD
ENDBRANCH  17  20
ENDBRANCH  13  14
ENDBRANCH   1  13
TORSDOF 7
ENDMDL
MODEL 5
REMARK VINA RESULT:    -7.204      2.714      6.948
REMARK INTER + INTRA:         -10.709
REMARK INTER:                 -10.168
REMARK INTRA:                  -0.541
REMARK UNBOUND:                -0.767
REMARK  Name = 
REMARK  7 active torsions:
REMARK  status: ('A' for Active; 'I' for Inactive)
REMARK    1  A    between atoms: N_1  and  C_2
REMARK    2  A    between atoms: C_2  and  C_3
REMARK    3  A    between atoms: C_3  and  C_4
REMARK    4  A    between atoms: C_7  and  C_8
REMARK    5  A    between atoms: C_8  and  C_9
REMARK    6  A    between atoms: C_9  and  C_10
REMARK    7  A    between atoms: C_13  and  C_14
REMARK                            x       y       z     vdW  Elec       q    Type
REMARK                         _______ _______ _______ _____ _____    ______ ____
ROOT
ATOM      1  C   UNL     1      43.282   3.534  11.237  0.00  0.00    +0.000 C 
ENDROOT
BRANCH   1   5
ATOM      2  C   UNL     1      45.826   3.221   7.810  0.00  0.00    +0.000 A 
ATOM      3  C   UNL     1      45.645   2.089   8.594  0.00  0.00    +0.000 A 
ATOM      4  C   UNL     1      44.824   2.168   9.717  0.00  0.00    +0.000 A 
ATOM      5  C   UNL     1      44.211   3.377  10.056  0.00  0.00    +0.000 A 
ATOM      6  C   UNL     1      44.445   4.452   9.201  0.00  0.00    +0.000 A 
ATOM      7  N   UNL     1      45.239   4.405   8.105  0.00  0.00    +0.000 NA
BRANCH   2   8
ATOM      8  C   UNL     1      46.711   3.171   6.591  0.00  0.00    +0.000 C 
BRANCH   8   9
ATOM      9  C   UNL     1      47.895   2.226   6.804  0.00  0.00    +0.000 C 
BRANCH   9  10
ATOM     10  N   UNL     1      48.506   1.846   5.528  0.00  0.00    +0.000 NA
ATOM     11  H   UNL     1      48.921   0.919   5.620  0.00  0.00    +0.000 HD
ATOM     12  H   UNL     1      49.281   2.479   5.327  0.00  0.00    +0.000 HD
ENDBRANCH   9  10
ENDBRANCH   8   9
ENDBRANCH   2   8
ENDBRANCH   1   5
BRANCH   1  13
ATOM     13  C   UNL     1      43.281   4.933  11.866  0.00  0.00    +0.000 C 
BRANCH  13  14
ATOM     14  C   UNL     1      44.603   5.306  12.481  0.00  0.00    +0.000 A 
ATOM     15  C   UNL     1      45.317   4.400  13.269  0.00  0.00    +0.000 A 
ATOM     16  C   UNL     1      46.521   4.792  13.850  0.00  0.00    +0.000 A 
ATOM     17  C   UNL     1      46.975   6.082  13.612  0.00  0.00    +0.000 A 
ATOM     18  N   UNL     1      46.315   6.990  12.839  0.00  0.00    +0.000 NA
ATOM     19  C   UNL     1      45.150   6.575  12.295  0.00  0.00    +0.000 A 
BRANCH  17  20
ATOM     20  C   UNL     1      48.259   6.542  14.230  0.00  0.00    +0.000 C 
ATOM     21  N   UNL     1      48.217   6.750  15.582  0.00  0.00    +0.000 N 
ATOM     22  O   UNL     1      49.281   6.724  13.580  0.00  0.00    +0.000 OA
ATOM     23  H   UNL     1      47.351   6.586  16.084  0.00  0.00    +0.000 HD
ATOM     24  H   UNL     1      49.045   7.062  16.068  0.00  0.00    +0.000 HD
ENDBRANCH  17  20
ENDBRANCH  13  14
ENDBRANCH   1  13
TORSDOF 7
ENDMDL
MODEL 6
REMARK VINA RESULT:    -6.314      2.904      7.340
REMARK INTER + INTRA:          -9.480
REMARK INTER:                  -9.039
REMARK INTRA:                  -0.441
REMARK UNBOUND:                -0.767
REMARK  Name = 
REMARK  7 active torsions:
REMARK  status: ('A' for Active; 'I' for Inactive)
REMARK    1  A    between atoms: N_1  and  C_2
REMARK    2  A    between atoms: C_2  and  C_3
REMARK    3  A    between atoms: C_3  and  C_4
REMARK    4  A    between atoms: C_7  and  C_8
REMARK    5  A    between atoms: C_8  and  C_9
REMARK    6  A    between atoms: C_9  and  C_10
REMARK    7  A    between atoms: C_13  and  C_14
REMARK                            x       y       z     vdW  Elec       q    Type
REMARK                         _______ _______ _______ _____ _____    ______ ____
ROOT
ATOM      1  C   UNL     1      44.984   5.492  11.945  0.00  0.00    +0.000 C 
ENDROOT
BRANCH   1   5
ATOM      2  C   UNL     1      45.693   3.616   8.165  0.00  0.00    +0.000 A 
ATOM      3  C   UNL     1      45.094   2.861   9.167  0.00  0.00    +0.000 A 
ATOM      4  C   UNL     1      44.857   3.450  10.406  0.00  0.00    +0.000 A 
ATOM      5  C   UNL     1      45.237   4.774  10.641  0.00  0.00    +0.000 A 
ATOM      6  C   UNL     1      45.820   5.450   9.571  0.00  0.00    +0.000 A 
ATOM      7  N   UNL     1      46.065   4.903   8.357  0.00  0.00    +0.000 NA
BRANCH   2   8
ATOM      8  C   UNL     1      45.968   3.007   6.814  0.00  0.00    +0.000 C 
BRANCH   8   9
ATOM      9  C   UNL     1      47.466   2.784   6.599  0.00  0.00    +0.000 C 
BRANCH   9  10
ATOM     10  N   UNL     1      47.794   1.357   6.598  0.00  0.00    +0.000 NA
ATOM     11  H   UNL     1      47.940   1.048   7.559  0.00  0.00    +0.000 HD
ATOM     12  H   UNL     1      48.688   1.220   6.123  0.00  0.00    +0.000 HD
ENDBRANCH   9  10
ENDBRANCH   8   9
ENDBRANCH   2   8
ENDBRANCH   1   5
BRANCH   1  13
ATOM     13  C   UNL     1      46.235   6.101  12.592  0.00  0.00    +0.000 C 
BRANCH  13  14
ATOM     14  C   UNL     1      46.795   5.257  13.706  0.00  0.00    +0.000 A 
ATOM     15  C   UNL     1      47.298   5.837  14.872  0.00  0.00    +0.000 A 
ATOM     16  C   UNL     1      47.840   5.027  15.866  0.00  0.00    +0.000 A 
ATOM     17  C   UNL     1      47.852   3.655  15.661  0.00  0.00    +0.000 A 
ATOM     18  N   UNL     1      47.358   3.049  14.544  0.00  0.00    +0.000 NA
ATOM     19  C   UNL     1      46.843   3.868  13.600  0.00  0.00    +0.000 A 
BRANCH  17  20
ATOM     20  C   UNL     1      48.438   2.753  16.703  0.00  0.00    +0.000 C 
ATOM     21  N   UNL     1      49.186   1.712  16.223  0.00  0.00    +0.000 N 
ATOM     22  O   UNL     1      48.265   2.926  17.903  0.00  0.00    +0.000 OA
ATOM     23  H   UNL     1      49.305   1.606  15.222  0.00  0.00    +0.000 HD
ATOM     24  H   UNL     1      49.612   1.062  16.866  0.00  0.00    +0.000 HD
ENDBRANCH  17  20
ENDBRANCH  13  14
ENDBRANCH   1  13
TORSDOF 7
ENDMDL
MODEL 7
REMARK VINA RESULT:    -5.523      3.887      7.126
REMARK INTER + INTRA:          -8.388
REMARK INTER:                  -7.844
REMARK INTRA:                  -0.544
REMARK UNBOUND:                -0.767
REMARK  Name = 
REMARK  7 active torsions:
REMARK  status: ('A' for Active; 'I' for Inactive)
REMARK    1  A    between atoms: N_1  and  C_2
REMARK    2  A    between atoms: C_2  and  C_3
REMARK    3  A    between atoms: C_3  and  C_4
REMARK    4  A    between atoms: C_7  and  C_8
REMARK    5  A    between atoms: C_8  and  C_9
REMARK    6  A    between atoms: C_9  and  C_10
REMARK    7  A    between atoms: C_13  and  C_14
REMARK                            x       y       z     vdW  Elec       q    Type
REMARK                         _______ _______ _______ _____ _____    ______ ____
ROOT
ATOM      1  C   UNL     1      45.253   6.554  11.385  0.00  0.00    +0.000 C 
ENDROOT
BRANCH   1   5
ATOM      2  C   UNL     1      45.278   2.814   9.306  0.00  0.00    +0.000 A 
ATOM      3  C   UNL     1      45.700   3.946   8.619  0.00  0.00    +0.000 A 
ATOM      4  C   UNL     1      45.697   5.175   9.275  0.00  0.00    +0.000 A 
ATOM      5  C   UNL     1      45.255   5.266  10.597  0.00  0.00    +0.000 A 
ATOM      6  C   UNL     1      44.863   4.074  11.202  0.00  0.00    +0.000 A 
ATOM      7  N   UNL     1      44.853   2.866  10.590  0.00  0.00    +0.000 NA
BRANCH   2   8
ATOM      8  C   UNL     1      45.265   1.470   8.624  0.00  0.00    +0.000 C 
BRANCH   8   9
ATOM      9  C   UNL     1      46.547   1.241   7.822  0.00  0.00    +0.000 C 
BRANCH   9  10
ATOM     10  N   UNL     1      46.873  -0.184   7.738  0.00  0.00    +0.000 NA
ATOM     11  H   UNL     1      46.124  -0.668   7.242  0.00  0.00    +0.000 HD
ATOM     12  H   UNL     1      46.884  -0.580   8.679  0.00  0.00    +0.000 HD
ENDBRANCH   9  10
ENDBRANCH   8   9
ENDBRANCH   2   8
ENDBRANCH   1   5
BRANCH   1  13
ATOM     13  C   UNL     1      45.918   6.461  12.765  0.00  0.00    +0.000 C 
BRANCH  13  14
ATOM     14  C   UNL     1      47.275   7.110  12.813  0.00  0.00    +0.000 A 
ATOM     15  C   UNL     1      48.009   7.343  11.647  0.00  0.00    +0.000 A 
ATOM     16  C   UNL     1      49.276   7.914  11.733  0.00  0.00    +0.000 A 
ATOM     17  C   UNL     1      49.763   8.244  12.990  0.00  0.00    +0.000 A 
ATOM     18  N   UNL     1      49.073   8.047  14.149  0.00  0.00    +0.000 NA
ATOM     19  C   UNL     1      47.849   7.487  14.026  0.00  0.00    +0.000 A 
BRANCH  17  20
ATOM     20  C   UNL     1      51.127   8.849  13.122  0.00  0.00    +0.000 C 
ATOM     21  N   UNL     1      52.147   7.958  13.316  0.00  0.00    +0.000 N 
ATOM     22  O   UNL     1      51.325  10.056  13.063  0.00  0.00    +0.000 OA
ATOM     23  H   UNL     1      51.939   6.966  13.357  0.00  0.00    +0.000 HD
ATOM     24  H   UNL     1      53.093   8.292  13.415  0.00  0.00    +0.000 HD
ENDBRANCH  17  20
ENDBRANCH  13  14
ENDBRANCH   1  13
TORSDOF 7
ENDMDL
MODEL 8
REMARK VINA RESULT:    -5.370      3.612      7.229
REMARK INTER + INTRA:          -8.178
REMARK INTER:                  -7.684
REMARK INTRA:                  -0.494
REMARK UNBOUND:                -0.767
REMARK  Name = 
REMARK  7 active torsions:
REMARK  status: ('A' for Active; 'I' for Inactive)
REMARK    1  A    between atoms: N_1  and  C_2
REMARK    2  A    between atoms: C_2  and  C_3
REMARK    3  A    between atoms: C_3  and  C_4
REMARK    4  A    between atoms: C_7  and  C_8
REMARK    5  A    between atoms: C_8  and  C_9
REMARK    6  A    between atoms: C_9  and  C_10
REMARK    7  A    between atoms: C_13  and  C_14
REMARK                            x       y       z     vdW  Elec       q    Type
REMARK                         _______ _______ _______ _____ _____    ______ ____
ROOT
ATOM      1  C   UNL     1      44.546   4.540  12.273  0.00  0.00    +0.000 C 
ENDROOT
BRANCH   1   5
ATOM      2  C   UNL     1      45.611   3.499   8.261  0.00  0.00    +0.000 A 
ATOM      3  C   UNL     1      45.789   4.818   8.662  0.00  0.00    +0.000 A 
ATOM      4  C   UNL     1      45.445   5.180   9.963  0.00  0.00    +0.000 A 
ATOM      5  C   UNL     1      44.911   4.233  10.840  0.00  0.00    +0.000 A 
ATOM      6  C   UNL     1      44.782   2.936  10.347  0.00  0.00    +0.000 A 
ATOM      7  N   UNL     1      45.106   2.555   9.089  0.00  0.00    +0.000 NA
BRANCH   2   8
ATOM      8  C   UNL     1      45.968   3.075   6.859  0.00  0.00    +0.000 C 
BRANCH   8   9
ATOM      9  C   UNL     1      47.473   2.837   6.718  0.00  0.00    +0.000 C 
BRANCH   9  10
ATOM     10  N   UNL     1      47.778   1.407   6.644  0.00  0.00    +0.000 NA
ATOM     11  H   UNL     1      48.105   1.184   5.704  0.00  0.00    +0.000 HD
ATOM     12  H   UNL     1      46.917   0.874   6.773  0.00  0.00    +0.000 HD
ENDBRANCH   9  10
ENDBRANCH   8   9
ENDBRANCH   2   8
ENDBRANCH   1   5
BRANCH   1  13
ATOM     13  C   UNL     1      44.266   6.022  12.556  0.00  0.00    +0.000 C 
BRANCH  13  14
ATOM     14  C   UNL     1      45.513   6.815  12.842  0.00  0.00    +0.000 A 
ATOM     15  C   UNL     1      46.669   6.199  13.327  0.00  0.00    +0.000 A 
ATOM     16  C   UNL     1      47.793   6.969  13.614  0.00  0.00    +0.000 A 
ATOM     17  C   UNL     1      47.723   8.337  13.394  0.00  0.00    +0.000 A 
ATOM     18  N   UNL     1      46.620   8.975  12.908  0.00  0.00    +0.000 NA
ATOM     19  C   UNL     1      45.548   8.195  12.645  0.00  0.00    +0.000 A 
BRANCH  17  20
ATOM     20  C   UNL     1      48.908   9.200  13.702  0.00  0.00    +0.000 C 
ATOM     21  N   UNL     1      49.664   8.798  14.769  0.00  0.00    +0.000 N 
ATOM     22  O   UNL     1      49.190  10.198  13.049  0.00  0.00    +0.000 OA
ATOM     23  H   UNL     1      49.397   7.965  15.282  0.00  0.00    +0.000 HD
ATOM     24  H   UNL     1      50.478   9.331  15.037  0.00  0.00    +0.000 HD
ENDBRANCH  17  20
ENDBRANCH  13  14
ENDBRANCH   1  13
TORSDOF 7
ENDMDL
MODEL 9
REMARK VINA RESULT:    -5.163      3.564      7.335
REMARK INTER + INTRA:          -7.892
REMARK INTER:                  -7.407
REMARK INTRA:                  -0.484
REMARK UNBOUND:                -0.767
REMARK  Name = 
REMARK  7 active torsions:
REMARK  status: ('A' for Active; 'I' for Inactive)
REMARK    1  A    between atoms: N_1  and  C_2
REMARK    2  A    between atoms: C_2  and  C_3
REMARK    3  A    between atoms: C_3  and  C_4
REMARK    4  A    between atoms: C_7  and  C_8
REMARK    5  A    between atoms: C_8  and  C_9
REMARK    6  A    between atoms: C_9  and  C_10
REMARK    7  A    between atoms: C_13  and  C_14
REMARK                            x       y       z     vdW  Elec       q    Type
REMARK                         _______ _______ _______ _____ _____    ______ ____
ROOT
ATOM      1  C   UNL     1      44.728   6.678  12.589  0.00  0.00    +0.000 C 
ENDROOT
BRANCH   1   5
ATOM      2  C   UNL     1      44.631   3.253  10.026  0.00  0.00    +0.000 A 
ATOM      3  C   UNL     1      43.941   3.187  11.230  0.00  0.00    +0.000 A 
ATOM      4  C   UNL     1      43.962   4.289  12.082  0.00  0.00    +0.000 A 
ATOM      5  C   UNL     1      44.684   5.433  11.735  0.00  0.00    +0.000 A 
ATOM      6  C   UNL     1      45.333   5.406  10.503  0.00  0.00    +0.000 A 
ATOM      7  N   UNL     1      45.333   4.350   9.655  0.00  0.00    +0.000 NA
BRANCH   2   8
ATOM      8  C   UNL     1      44.633   2.077   9.083  0.00  0.00    +0.000 C 
BRANCH   8   9
ATOM      9  C   UNL     1      45.823   2.136   8.123  0.00  0.00    +0.000 C 
BRANCH   9  10
ATOM     10  N   UNL     1      46.530   0.855   8.076  0.00  0.00    +0.000 NA
ATOM     11  H   UNL     1      46.697   0.603   7.101  0.00  0.00    +0.000 HD
ATOM     12  H   UNL     1      45.923   0.124   8.450  0.00  0.00    +0.000 HD
ENDBRANCH   9  10
ENDBRANCH   8   9
ENDBRANCH   2   8
ENDBRANCH   1   5
BRANCH   1  13
ATOM     13  C   UNL     1      45.875   7.642  12.256  0.00  0.00    +0.000 C 
BRANCH  13  14
ATOM     14  C   UNL     1      47.036   7.529  13.207  0.00  0.00    +0.000 A 
ATOM     15  C   UNL     1      47.457   8.621  13.969  0.00  0.00    +0.000 A 
ATOM     16  C   UNL     1      48.557   8.490  14.812  0.00  0.00    +0.000 A 
ATOM     17  C   UNL     1      49.195   7.259  14.871  0.00  0.00    +0.000 A 
ATOM     18  N   UNL     1      48.807   6.166  14.155  0.00  0.00    +0.000 NA
ATOM     19  C   UNL     1      47.738   6.333  13.345  0.00  0.00    +0.000 A 
BRANCH  17  20
ATOM     20  C   UNL     1      50.390   7.084  15.758  0.00  0.00    +0.000 C 
ATOM     21  N   UNL     1      51.165   8.199  15.924  0.00  0.00    +0.000 N 
ATOM     22  O   UNL     1      50.662   6.020  16.302  0.00  0.00    +0.000 OA
ATOM     23  H   UNL     1      50.904   9.060  15.457  0.00  0.00    +0.000 HD
ATOM     24  H   UNL     1      51.987   8.156  16.507  0.00  0.00    +0.000 HD
ENDBRANCH  17  20
ENDBRANCH  13  14
ENDBRANCH   1  13
TORSDOF 7
ENDMDL
