MODEL 1
REMARK VINA RESULT:    -7.646      0.000      0.000
REMARK INTER + INTRA:         -10.165
REMARK INTER:                  -9.657
REMARK INTRA:                  -0.508
REMARK UNBOUND:                -0.508
REMARK  Name = 
REMARK  5 active torsions:
REMARK  status: ('A' for Active; 'I' for Inactive)
REMARK    1  A    between atoms: N_1  and  C_2
REMARK    2  A    between atoms: C_2  and  C_3
REMARK    3  A    between atoms: C_3  and  C_4
REMARK    4  A    between atoms: C_7  and  C_8
REMARK    5  A    between atoms: C_8  and  C_9
REMARK                            x       y       z     vdW  Elec       q    Type
REMARK                         _______ _______ _______ _____ _____    ______ ____
ROOT
ATOM      1  C   UNL     1      45.847   3.046   7.836  0.00  0.00    +0.000 A 
ATOM      2  C   UNL     1      45.066   2.448   8.819  0.00  0.00    +0.000 A 
ATOM      3  C   UNL     1      44.592   3.212   9.898  0.00  0.00    +0.000 A 
ATOM      4  C   UNL     1      44.924   4.566   9.972  0.00  0.00    +0.000 A 
ATOM      5  N   UNL     1      45.656   5.158   8.997  0.00  0.00    +0.000 NA
ATOM      6  C   UNL     1      46.092   4.405   7.961  0.00  0.00    +0.000 A 
ENDROOT
BRANCH   1   7
ATOM      7  C   UNL     1      46.398   2.267   6.665  0.00  0.00    +0.000 C 
BRANCH   7   8
ATOM      8  C   UNL     1      47.850   1.832   6.889  0.00  0.00    +0.000 C 
BRANCH   8   9
ATOM      9  N   UNL     1      48.595   1.808   5.629  0.00  0.00    +0.000 NA
ATOM     10  H   UNL     1      49.575   2.022   5.817  0.00  0.00    +0.000 HD
ATOM     11  H   UNL     1      48.257   2.548   5.015  0.00  0.00    +0.000 HD
ENDBRANCH   8   9
ENDBRANCH   7   8
ENDBRANCH   1   7
BRANCH   4  12
ATOM     12  C   UNL     1      44.434   5.490  11.073  0.00  0.00    +0.000 C 
BRANCH  12  13
ATOM     13  C   UNL     1      45.371   5.456  12.243  0.00  0.00    +0.000 A 
ATOM     14  C   UNL     1      45.223   4.750  13.433  0.00  0.00    +0.000 A 
ATOM     15  N   UNL     1      46.334   4.969  14.216  0.00  0.00    +0.000 N 
ATOM     16  C   UNL     1      47.195   5.804  13.561  0.00  0.00    +0.000 A 
ATOM     17  N   UNL     1      48.418   6.158  14.003  0.00  0.00    +0.000 NA
ATOM     18  C   UNL     1      49.065   6.980  13.142  0.00  0.00    +0.000 A 
ATOM     19  C   UNL     1      48.549   7.498  11.961  0.00  0.00    +0.000 A 
ATOM     20  C   UNL     1      47.267   7.125  11.571  0.00  0.00    +0.000 A 
ATOM     21  C   UNL     1      46.588   6.196  12.374  0.00  0.00    +0.000 A 
ATOM     22  H   UNL     1      46.521   4.572  15.127  0.00  0.00    +0.000 HD
ENDBRANCH  12  13
ENDBRANCH   4  12
TORSDOF 5
ENDMDL
MODEL 2
REMARK VINA RESULT:    -7.573      1.148      1.495
REMARK INTER + INTRA:         -10.073
REMARK INTER:                  -9.477
REMARK INTRA:                  -0.596
REMARK UNBOUND:                -0.508
REMARK  Name = 
REMARK  5 active torsions:
REMARK  status: ('A' for Active; 'I' for Inactive)
REMARK    1  A    between atoms: N_1  and  C_2
REMARK    2  A    between atoms: C_2  and  C_3
REMARK    3  A    between atoms: C_3  and  C_4
REMARK    4  A    between atoms: C_7  and  C_8
REMARK    5  A    between atoms: C_8  and  C_9
REMARK                            x       y       z     vdW  Elec       q    Type
REMARK                         _______ _______ _______ _____ _____    ______ ____
ROOT
ATOM      1  C   UNL     1      46.179   2.318   7.734  0.00  0.00    +0.000 A 
ATOM      2  C   UNL     1      46.188   3.702   7.608  0.00  0.00    +0.000 A 
ATOM      3  C   UNL     1      45.430   4.491   8.490  0.00  0.00    +0.000 A 
ATOM      4  C   UNL     1      44.668   3.867   9.479  0.00  0.00    +0.000 A 
ATOM      5  N   UNL     1      44.685   2.519   9.625  0.00  0.00    +0.000 NA
ATOM      6  C   UNL     1      45.431   1.781   8.771  0.00  0.00    +0.000 A 
ENDROOT
BRANCH   1   7
ATOM      7  C   UNL     1      46.959   1.423   6.801  0.00  0.00    +0.000 C 
BRANCH   7   8
ATOM      8  C   UNL     1      48.298   2.043   6.386  0.00  0.00    +0.000 C 
BRANCH   8   9
ATOM      9  N   UNL     1      48.271   2.473   4.988  0.00  0.00    +0.000 NA
ATOM     10  H   UNL     1      48.834   1.830   4.430  0.00  0.00    +0.000 HD
ATOM     11  H   UNL     1      48.716   3.386   4.899  0.00  0.00    +0.000 HD
ENDBRANCH   8   9
ENDBRANCH   7   8
ENDBRANCH   1   7
BRANCH   4  12
ATOM     12  C   UNL     1      43.845   4.624  10.505  0.00  0.00    +0.000 C 
BRANCH  12  13
ATOM     13  C   UNL     1      44.587   4.722  11.805  0.00  0.00    +0.000 A 
ATOM     14  C   UNL     1      44.310   4.058  12.996  0.00  0.00    +0.000 A 
ATOM     15  N   UNL     1      45.263   4.405  13.926  0.00  0.00    +0.000 N 
ATOM     16  C   UNL     1      46.148   5.282  13.364  0.00  0.00    +0.000 A 
ATOM     17  N   UNL     1      47.255   5.759  13.967  0.00  0.00    +0.000 NA
ATOM     18  C   UNL     1      47.964   6.595  13.170  0.00  0.00    +0.000 A 
ATOM     19  C   UNL     1      47.599   7.015  11.897  0.00  0.00    +0.000 A 
ATOM     20  C   UNL     1      46.428   6.516  11.338  0.00  0.00    +0.000 A 
ATOM     21  C   UNL     1      45.706   5.568  12.078  0.00  0.00    +0.000 A 
ATOM     22  H   UNL     1      45.335   4.066  14.875  0.00  0.00    +0.000 HD
ENDBRANCH  12  13
ENDBRANCH   4  12
TORSDOF 5
ENDMDL
MODEL 3
REMARK VINA RESULT:    -7.363      1.718      2.203
REMARK INTER + INTRA:          -9.808
REMARK INTER:                  -9.271
REMARK INTRA:                  -0.536
REMARK UNBOUND:                -0.508
REMARK  Name = 
REMARK  5 active torsions:
REMARK  status: ('A' for Active; 'I' for Inactive)
REMARK    1  A    between atoms: N_1  and  C_2
REMARK    2  A    between atoms: C_2  and  C_3
REMARK    3  A    between atoms: C_3  and  C_4
REMARK    4  A    between atoms: C_7  and  C_8
REMARK    5  A    between atoms: C_8  and  C_9
REMARK                            x       y       z     vdW  Elec       q    Type
REMARK                         _______ _______ _______ _____ _____    ______ ____
ROOT
ATOM      1  C   UNL     1      45.957   2.475   8.050  0.00  0.00    +0.000 A 
ATOM      2  C   UNL     1      46.003   3.863   7.985  0.00  0.00    +0.000 A 
ATOM      3  C   UNL     1      45.227   4.631   8.868  0.00  0.00    +0.000 A 
ATOM      4  C   UNL     1      44.410   3.985   9.797  0.00  0.00    +0.000 A 
ATOM      5  N   UNL     1      44.391   2.633   9.886  0.00  0.00    +0.000 NA
ATOM      6  C   UNL     1      45.155   1.913   9.032  0.00  0.00    +0.000 A 
ENDROOT
BRANCH   1   7
ATOM      7  C   UNL     1      46.755   1.601   7.112  0.00  0.00    +0.000 C 
BRANCH   7   8
ATOM      8  C   UNL     1      47.353   2.396   5.945  0.00  0.00    +0.000 C 
BRANCH   8   9
ATOM      9  N   UNL     1      48.562   1.751   5.431  0.00  0.00    +0.000 NA
ATOM     10  H   UNL     1      49.373   2.125   5.924  0.00  0.00    +0.000 HD
ATOM     11  H   UNL     1      48.692   1.995   4.449  0.00  0.00    +0.000 HD
ENDBRANCH   8   9
ENDBRANCH   7   8
ENDBRANCH   1   7
BRANCH   4  12
ATOM     12  C   UNL     1      43.562   4.718  10.821  0.00  0.00    +0.000 C 
BRANCH  12  13
ATOM     13  C   UNL     1      44.434   5.403  11.831  0.00  0.00    +0.000 A 
ATOM     14  C   UNL     1      45.129   4.824  12.888  0.00  0.00    +0.000 A 
ATOM     15  N   UNL     1      45.836   5.808  13.542  0.00  0.00    +0.000 N 
ATOM     16  C   UNL     1      45.610   7.011  12.934  0.00  0.00    +0.000 A 
ATOM     17  N   UNL     1      46.212   8.171  13.264  0.00  0.00    +0.000 NA
ATOM     18  C   UNL     1      45.816   9.203  12.480  0.00  0.00    +0.000 A 
ATOM     19  C   UNL     1      44.846   9.152  11.488  0.00  0.00    +0.000 A 
ATOM     20  C   UNL     1      44.233   7.934  11.214  0.00  0.00    +0.000 A 
ATOM     21  C   UNL     1      44.676   6.809  11.925  0.00  0.00    +0.000 A 
ATOM     22  H   UNL     1      46.449   5.687  14.336  0.00  0.00    +0.000 HD
ENDBRANCH  12  13
ENDBRANCH   4  12
TORSDOF 5
ENDMDL
MODEL 4
REMARK VINA RESULT:    -7.329      1.408      2.069
REMARK INTER + INTRA:          -9.765
REMARK INTER:                  -9.302
REMARK INTRA:                  -0.464
REMARK UNBOUND:                -0.508
REMARK  Name = 
REMARK  5 active torsions:
REMARK  status: ('A' for Active; 'I' for Inactive)
REMARK    1  A    between atoms: N_1  and  C_2
REMARK    2  A    between atoms: C_2  and  C_3
REMARK    3  A    between atoms: C_3  and  C_4
REMARK    4  A    between atoms: C_7  and  C_8
REMARK    5  A    between atoms: C_8  and  C_9
REMARK                            x       y       z     vdW  Elec       q    Type
REMARK                         _______ _______ _______ _____ _____    ______ ____
ROOT
ATOM      1  C   UNL     1      46.092   2.273   7.801  0.00  0.00    +0.000 A 
ATOM      2  C   UNL     1      45.312   1.667   8.779  0.00  0.00    +0.000 A 
ATOM      3  C   UNL     1      44.534   2.456   9.643  0.00  0.00    +0.000 A 
ATOM      4  C   UNL     1      44.566   3.845   9.512  0.00  0.00    +0.000 A 
ATOM      5  N   UNL     1      45.299   4.436   8.536  0.00  0.00    +0.000 NA
ATOM      6  C   UNL     1      46.032   3.655   7.708  0.00  0.00    +0.000 A 
ENDROOT
BRANCH   1   7
ATOM      7  C   UNL     1      46.961   1.473   6.860  0.00  0.00    +0.000 C 
BRANCH   7   8
ATOM      8  C   UNL     1      48.234   2.229   6.461  0.00  0.00    +0.000 C 
BRANCH   8   9
ATOM      9  N   UNL     1      48.273   2.475   5.019  0.00  0.00    +0.000 NA
ATOM     10  H   UNL     1      48.068   3.459   4.843  0.00  0.00    +0.000 HD
ATOM     11  H   UNL     1      47.532   1.946   4.559  0.00  0.00    +0.000 HD
ENDBRANCH   8   9
ENDBRANCH   7   8
ENDBRANCH   1   7
BRANCH   4  12
ATOM     12  C   UNL     1      43.737   4.787  10.366  0.00  0.00    +0.000 C 
BRANCH  12  13
ATOM     13  C   UNL     1      44.619   5.570  11.292  0.00  0.00    +0.000 A 
ATOM     14  C   UNL     1      44.761   6.952  11.368  0.00  0.00    +0.000 A 
ATOM     15  N   UNL     1      45.642   7.249  12.383  0.00  0.00    +0.000 N 
ATOM     16  C   UNL     1      46.076   6.090  12.962  0.00  0.00    +0.000 A 
ATOM     17  N   UNL     1      46.881   6.017  14.042  0.00  0.00    +0.000 NA
ATOM     18  C   UNL     1      47.134   4.740  14.417  0.00  0.00    +0.000 A 
ATOM     19  C   UNL     1      46.709   3.594  13.757  0.00  0.00    +0.000 A 
ATOM     20  C   UNL     1      45.909   3.731  12.627  0.00  0.00    +0.000 A 
ATOM     21  C   UNL     1      45.531   5.028  12.251  0.00  0.00    +0.000 A 
ATOM     22  H   UNL     1      45.926   8.170  12.689  0.00  0.00    +0.000 HD
ENDBRANCH  12  13
ENDBRANCH   4  12
TORSDOF 5
ENDMDL
MODEL 5
REMARK VINA RESULT:    -6.422      1.826      6.082
REMARK INTER + INTRA:          -8.620
REMARK INTER:                  -8.238
REMARK INTRA:                  -0.382
REMARK UNBOUND:                -0.508
REMARK  Name = 
REMARK  5 active torsions:
REMARK  status: ('A' for Active; 'I' for Inactive)
REMARK    1  A    between atoms: N_1  and  C_2
REMARK    2  A    between atoms: C_2  and  C_3
REMARK    3  A    between atoms: C_3  and  C_4
REMARK    4  A    between atoms: C_7  and  C_8
REMARK    5  A    between atoms: C_8  and  C_9
REMARK                            x       y       z     vdW  Elec       q    Type
REMARK                         _______ _______ _______ _____ _____    ______ ____
ROOT
ATOM      1  C   UNL     1      46.873   7.599  13.068  0.00  0.00    +0.000 A 
ATOM      2  C   UNL     1      46.023   8.416  12.331  0.00  0.00    +0.000 A 
ATOM      3  C   UNL     1      44.917   7.859  11.669  0.00  0.00    +0.000 A 
ATOM      4  C   UNL     1      44.693   6.484  11.753  0.00  0.00    +0.000 A 
ATOM      5  N   UNL     1      45.501   5.691  12.499  0.00  0.00    +0.000 NA
ATOM      6  C   UNL     1      46.554   6.251  13.138  0.00  0.00    +0.000 A 
ENDROOT
BRANCH   1   7
ATOM      7  C   UNL     1      48.087   8.143  13.783  0.00  0.00    +0.000 C 
BRANCH   7   8
ATOM      8  C   UNL     1      49.370   7.397  13.398  0.00  0.00    +0.000 C 
BRANCH   8   9
ATOM      9  N   UNL     1      50.145   7.031  14.584  0.00  0.00    +0.000 NA
ATOM     10  H   UNL     1      50.905   6.409  14.306  0.00  0.00    +0.000 HD
ATOM     11  H   UNL     1      49.561   6.494  15.225  0.00  0.00    +0.000 HD
ENDBRANCH   8   9
ENDBRANCH   7   8
ENDBRANCH   1   7
BRANCH   4  12
ATOM     12  C   UNL     1      43.509   5.787  11.109  0.00  0.00    +0.000 C 
BRANCH  12  13
ATOM     13  C   UNL     1      43.857   4.370  10.763  0.00  0.00    +0.000 A 
ATOM     14  C   UNL     1      43.421   3.208  11.392  0.00  0.00    +0.000 A 
ATOM     15  N   UNL     1      43.950   2.123  10.730  0.00  0.00    +0.000 N 
ATOM     16  C   UNL     1      44.722   2.558   9.690  0.00  0.00    +0.000 A 
ATOM     17  N   UNL     1      45.320   1.760   8.783  0.00  0.00    +0.000 NA
ATOM     18  C   UNL     1      46.006   2.460   7.846  0.00  0.00    +0.000 A 
ATOM     19  C   UNL     1      46.177   3.838   7.817  0.00  0.00    +0.000 A 
ATOM     20  C   UNL     1      45.564   4.609   8.799  0.00  0.00    +0.000 A 
ATOM     21  C   UNL     1      44.758   3.946   9.737  0.00  0.00    +0.000 A 
ATOM     22  H   UNL     1      43.793   1.148  10.944  0.00  0.00    +0.000 HD
ENDBRANCH  12  13
ENDBRANCH   4  12
TORSDOF 5
ENDMDL
MODEL 6
REMARK VINA RESULT:    -6.352      1.711      6.460
REMARK INTER + INTRA:          -8.530
REMARK INTER:                  -8.006
REMARK INTRA:                  -0.524
REMARK UNBOUND:                -0.508
REMARK  Name = 
REMARK  5 active torsions:
REMARK  status: ('A' for Active; 'I' for Inactive)
REMARK    1  A    between atoms: N_1  and  C_2
REMARK    2  A    between atoms: C_2  and  C_3
REMARK    3  A    between atoms: C_3  and  C_4
REMARK    4  A    between atoms: C_7  and  C_8
REMARK    5  A    between atoms: C_8  and  C_9
REMARK                            x       y       z     vdW  Elec       q    Type
REMARK                         _______ _______ _______ _____ _____    ______ ____
ROOT
ATOM      1  C   UNL     1      46.635   5.969  12.851  0.00  0.00    +0.000 A 
ATOM      2  C   UNL     1      46.504   6.742  11.703  0.00  0.00    +0.000 A 
ATOM      3  C   UNL     1      45.749   6.264  10.619  0.00  0.00    +0.000 A 
ATOM      4  C   UNL     1      45.147   5.008  10.709  0.00  0.00    +0.000 A 
ATOM      5  N   UNL     1      45.244   4.268  11.841  0.00  0.00    +0.000 NA
ATOM      6  C   UNL     1      45.967   4.754  12.877  0.00  0.00    +0.000 A 
ENDROOT
BRANCH   1   7
ATOM      7  C   UNL     1      47.450   6.427  14.038  0.00  0.00    +0.000 C 
BRANCH   7   8
ATOM      8  C   UNL     1      47.991   7.850  13.857  0.00  0.00    +0.000 C 
BRANCH   8   9
ATOM      9  N   UNL     1      47.208   8.815  14.630  0.00  0.00    +0.000 NA
ATOM     10  H   UNL     1      46.522   9.255  14.016  0.00  0.00    +0.000 HD
ATOM     11  H   UNL     1      47.815   9.566  14.958  0.00  0.00    +0.000 HD
ENDBRANCH   8   9
ENDBRANCH   7   8
ENDBRANCH   1   7
BRANCH   4  12
ATOM     12  C   UNL     1      44.281   4.414   9.614  0.00  0.00    +0.000 C 
BRANCH  12  13
ATOM     13  C   UNL     1      44.884   3.142   9.098  0.00  0.00    +0.000 A 
ATOM     14  C   UNL     1      44.570   1.838   9.469  0.00  0.00    +0.000 A 
ATOM     15  N   UNL     1      45.333   0.971   8.720  0.00  0.00    +0.000 N 
ATOM     16  C   UNL     1      46.137   1.685   7.877  0.00  0.00    +0.000 A 
ATOM     17  N   UNL     1      46.951   1.150   6.944  0.00  0.00    +0.000 NA
ATOM     18  C   UNL     1      47.616   2.092   6.233  0.00  0.00    +0.000 A 
ATOM     19  C   UNL     1      47.570   3.464   6.447  0.00  0.00    +0.000 A 
ATOM     20  C   UNL     1      46.739   3.957   7.447  0.00  0.00    +0.000 A 
ATOM     21  C   UNL     1      45.948   3.034   8.149  0.00  0.00    +0.000 A 
ATOM     22  H   UNL     1      45.310  -0.039   8.753  0.00  0.00    +0.000 HD
ENDBRANCH  12  13
ENDBRANCH   4  12
TORSDOF 5
ENDMDL
MODEL 7
REMARK VINA RESULT:    -5.732      2.185      2.950
REMARK INTER + INTRA:          -7.748
REMARK INTER:                  -7.248
REMARK INTRA:                  -0.500
REMARK UNBOUND:                -0.508
REMARK  Name = 
REMARK  5 active torsions:
REMARK  status: ('A' for Active; 'I' for Inactive)
REMARK    1  A    between atoms: N_1  and  C_2
REMARK    2  A    between atoms: C_2  and  C_3
REMARK    3  A    between atoms: C_3  and  C_4
REMARK    4  A    between atoms: C_7  and  C_8
REMARK    5  A    between atoms: C_8  and  C_9
REMARK                            x       y       z     vdW  Elec       q    Type
REMARK                         _______ _______ _______ _____ _____    ______ ____
ROOT
ATOM      1  C   UNL     1      45.042   3.353   9.506  0.00  0.00    +0.000 A 
ATOM      2  C   UNL     1      45.393   4.686   9.326  0.00  0.00    +0.000 A 
ATOM      3  C   UNL     1      45.395   5.564  10.423  0.00  0.00    +0.000 A 
ATOM      4  C   UNL     1      45.032   5.083  11.682  0.00  0.00    +0.000 A 
ATOM      5  N   UNL     1      44.724   3.776  11.866  0.00  0.00    +0.000 NA
ATOM      6  C   UNL     1      44.739   2.946  10.797  0.00  0.00    +0.000 A 
ENDROOT
BRANCH   1   7
ATOM      7  C   UNL     1      45.004   2.372   8.359  0.00  0.00    +0.000 C 
BRANCH   7   8
ATOM      8  C   UNL     1      46.407   1.926   7.930  0.00  0.00    +0.000 C 
BRANCH   8   9
ATOM      9  N   UNL     1      46.529   0.468   7.955  0.00  0.00    +0.000 NA
ATOM     10  H   UNL     1      45.846   0.088   8.612  0.00  0.00    +0.000 HD
ATOM     11  H   UNL     1      47.445   0.204   8.319  0.00  0.00    +0.000 HD
ENDBRANCH   8   9
ENDBRANCH   7   8
ENDBRANCH   1   7
BRANCH   4  12
ATOM     12  C   UNL     1      45.038   5.935  12.938  0.00  0.00    +0.000 C 
BRANCH  12  13
ATOM     13  C   UNL     1      46.227   6.847  12.949  0.00  0.00    +0.000 A 
ATOM     14  C   UNL     1      47.537   6.534  13.302  0.00  0.00    +0.000 A 
ATOM     15  N   UNL     1      48.318   7.655  13.131  0.00  0.00    +0.000 N 
ATOM     16  C   UNL     1      47.542   8.686  12.680  0.00  0.00    +0.000 A 
ATOM     17  N   UNL     1      48.001   9.903  12.326  0.00  0.00    +0.000 NA
ATOM     18  C   UNL     1      47.014  10.725  11.893  0.00  0.00    +0.000 A 
ATOM     19  C   UNL     1      45.657  10.432  11.870  0.00  0.00    +0.000 A 
ATOM     20  C   UNL     1      45.238   9.171  12.279  0.00  0.00    +0.000 A 
ATOM     21  C   UNL     1      46.226   8.243  12.642  0.00  0.00    +0.000 A 
ATOM     22  H   UNL     1      49.314   7.728  13.286  0.00  0.00    +0.000 HD
ENDBRANCH  12  13
ENDBRANCH   4  12
TORSDOF 5
ENDMDL
MODEL 8
REMARK VINA RESULT:    -5.599      2.271      6.461
REMARK INTER + INTRA:          -7.580
REMARK INTER:                  -6.991
REMARK INTRA:                  -0.589
REMARK UNBOUND:                -0.508
REMARK  Name = 
REMARK  5 active torsions:
REMARK  status: ('A' for Active; 'I' for Inactive)
REMARK    1  A    between atoms: N_1  and  C_2
REMARK    2  A    between atoms: C_2  and  C_3
REMARK    3  A    between atoms: C_3  and  C_4
REMARK    4  A    between atoms: C_7  and  C_8
REMARK    5  A    between atoms: C_8  and  C_9
REMARK                            x       y       z     vdW  Elec       q    Type
REMARK                         _______ _______ _______ _____ _____    ______ ____
ROOT
ATOM      1  C   UNL     1      48.658   8.094  13.503  0.00  0.00    +0.000 A 
ATOM      2  C   UNL     1      48.745   7.314  12.356  0.00  0.00    +0.000 A 
ATOM      3  C   UNL     1      47.581   6.990  11.639  0.00  0.00    +0.000 A 
ATOM      4  C   UNL     1      46.347   7.452  12.098  0.00  0.00    +0.000 A 
ATOM      5  N   UNL     1      46.264   8.242  13.197  0.00  0.00    +0.000 NA
ATOM      6  C   UNL     1      47.399   8.550  13.865  0.00  0.00    +0.000 A 
ENDROOT
BRANCH   1   7
ATOM      7  C   UNL     1      49.875   8.455  14.321  0.00  0.00    +0.000 C 
BRANCH   7   8
ATOM      8  C   UNL     1      49.824   7.859  15.732  0.00  0.00    +0.000 C 
BRANCH   8   9
ATOM      9  N   UNL     1      49.726   6.400  15.686  0.00  0.00    +0.000 NA
ATOM     10  H   UNL     1      49.979   6.020  16.599  0.00  0.00    +0.000 HD
ATOM     11  H   UNL     1      50.410   6.028  15.027  0.00  0.00    +0.000 HD
ENDBRANCH   8   9
ENDBRANCH   7   8
ENDBRANCH   1   7
BRANCH   4  12
ATOM     12  C   UNL     1      45.035   7.193  11.380  0.00  0.00    +0.000 C 
BRANCH  12  13
ATOM     13  C   UNL     1      44.696   5.733  11.415  0.00  0.00    +0.000 A 
ATOM     14  C   UNL     1      44.153   5.010  12.473  0.00  0.00    +0.000 A 
ATOM     15  N   UNL     1      43.964   3.709  12.065  0.00  0.00    +0.000 N 
ATOM     16  C   UNL     1      44.376   3.574  10.768  0.00  0.00    +0.000 A 
ATOM     17  N   UNL     1      44.253   2.453  10.029  0.00  0.00    +0.000 NA
ATOM     18  C   UNL     1      44.724   2.607   8.768  0.00  0.00    +0.000 A 
ATOM     19  C   UNL     1      45.348   3.740   8.261  0.00  0.00    +0.000 A 
ATOM     20  C   UNL     1      45.478   4.856   9.081  0.00  0.00    +0.000 A 
ATOM     21  C   UNL     1      44.917   4.788  10.365  0.00  0.00    +0.000 A 
ATOM     22  H   UNL     1      43.567   2.955  12.609  0.00  0.00    +0.000 HD
ENDBRANCH  12  13
ENDBRANCH   4  12
TORSDOF 5
ENDMDL
MODEL 9
REMARK VINA RESULT:    -5.512      2.171      3.772
REMARK INTER + INTRA:          -7.470
REMARK INTER:                  -6.963
REMARK INTRA:                  -0.507
REMARK UNBOUND:                -0.508
REMARK  Name = 
REMARK  5 active torsions:
REMARK  status: ('A' for Active; 'I' for Inactive)
REMARK    1  A    between atoms: N_1  and  C_2
REMARK    2  A    between atoms: C_2  and  C_3
REMARK    3  A    between atoms: C_3  and  C_4
REMARK    4  A    between atoms: C_7  and  C_8
REMARK    5  A    between atoms: C_8  and  C_9
REMARK                            x       y       z     vdW  Elec       q    Type
REMARK                         _______ _______ _______ _____ _____    ______ ____
ROOT
ATOM      1  C   UNL     1      44.719   3.938  10.929  0.00  0.00    +0.000 A 
ATOM      2  C   UNL     1      45.205   4.974  10.141  0.00  0.00    +0.000 A 
ATOM      3  C   UNL     1      45.708   6.138  10.745  0.00  0.00    +0.000 A 
ATOM      4  C   UNL     1      45.702   6.240  12.137  0.00  0.00    +0.000 A 
ATOM      5  N   UNL     1      45.260   5.217  12.909  0.00  0.00    +0.000 NA
ATOM      6  C   UNL     1      44.791   4.101  12.305  0.00  0.00    +0.000 A 
ENDROOT
BRANCH   1   7
ATOM      7  C   UNL     1      44.149   2.673  10.331  0.00  0.00    +0.000 C 
BRANCH   7   8
ATOM      8  C   UNL     1      44.626   2.446   8.892  0.00  0.00    +0.000 C 
BRANCH   8   9
ATOM      9  N   UNL     1      45.620   1.374   8.828  0.00  0.00    +0.000 NA
ATOM     10  H   UNL     1      46.239   1.541   8.034  0.00  0.00    +0.000 HD
ATOM     11  H   UNL     1      45.157   0.485   8.642  0.00  0.00    +0.000 HD
ENDBRANCH   8   9
ENDBRANCH   7   8
ENDBRANCH   1   7
BRANCH   4  12
ATOM     12  C   UNL     1      46.255   7.435  12.892  0.00  0.00    +0.000 C 
BRANCH  12  13
ATOM     13  C   UNL     1      47.726   7.581  12.640  0.00  0.00    +0.000 A 
ATOM     14  C   UNL     1      48.727   6.643  12.875  0.00  0.00    +0.000 A 
ATOM     15  N   UNL     1      49.930   7.171  12.463  0.00  0.00    +0.000 N 
ATOM     16  C   UNL     1      49.730   8.430  11.971  0.00  0.00    +0.000 A 
ATOM     17  N   UNL     1      50.680   9.201  11.405  0.00  0.00    +0.000 NA
ATOM     18  C   UNL     1      50.198  10.395  10.984  0.00  0.00    +0.000 A 
ATOM     19  C   UNL     1      48.902  10.862  11.160  0.00  0.00    +0.000 A 
ATOM     20  C   UNL     1      47.972  10.037  11.782  0.00  0.00    +0.000 A 
ATOM     21  C   UNL     1      48.389   8.748  12.149  0.00  0.00    +0.000 A 
ATOM     22  H   UNL     1      50.832   6.715  12.489  0.00  0.00    +0.000 HD
ENDBRANCH  12  13
ENDBRANCH   4  12
TORSDOF 5
ENDMDL
